MODEL 1
REMARK VINA RESULT:      -1.8      0.000      0.000
REMARK  Name = 45783728
REMARK  6 active torsions:
REMARK  status: ('A' for Active; 'I' for Inactive)
REMARK    1  A    between atoms: O_2  and  C_26
REMARK    2  A    between atoms: N_4  and  C_14
REMARK    3  A    between atoms: C_10  and  C_15
REMARK    4  A    between atoms: C_14  and  C_16
REMARK    5  A    between atoms: C_19  and  C_23
REMARK    6  A    between atoms: C_22  and  C_26
REMARK                            x       y       z     vdW  Elec       q    Type
REMARK                         _______ _______ _______ _____ _____    ______ ____
ROOT
ATOM      4  N   UNL     1      -3.827   3.421  25.347  0.00  0.00    -0.287 NA
ATOM     10  C   UNL     1      -2.625   4.066  24.781  0.00  0.00    +0.146 C 
ATOM     11  C   UNL     1      -2.417   5.327  25.639  0.00  0.00    +0.030 C 
ATOM     12  C   UNL     1      -3.582   5.338  26.618  0.00  0.00    +0.017 C 
ATOM     13  C   UNL     1      -4.635   4.492  25.931  0.00  0.00    +0.085 C 
ENDROOT
BRANCH  10  15
ATOM      1  O   UNL     1      -0.969   2.744  25.998  0.00  0.00    -0.336 OA
ATOM      5  N   UNL     1      -0.728   2.687  23.772  0.00  0.00    -0.190 NA
ATOM      6  N   UNL     1       0.137   1.922  25.747  0.00  0.00    -0.056 NA
ATOM     15  C   UNL     1      -1.418   3.152  24.783  0.00  0.00    +0.245 A 
ATOM     19  C   UNL     1       0.216   1.937  24.413  0.00  0.00    +0.207 A 
BRANCH  19  23
ATOM      7  N   UNL     1       2.034  -0.778  22.612  0.00  0.00    -0.220 NA
ATOM      8  N   UNL     1      -0.112  -0.785  23.607  0.00  0.00    -0.342 N 
ATOM      9  N   UNL     1       3.405   1.204  22.675  0.00  0.00    -0.243 NA
ATOM     23  C   UNL     1       1.223   1.215  23.691  0.00  0.00    +0.080 A 
ATOM     24  C   UNL     1       1.087  -0.099  23.292  0.00  0.00    +0.130 A 
ATOM     25  C   UNL     1       2.415   1.823  23.352  0.00  0.00    +0.127 A 
ATOM     27  C   UNL     1       3.151  -0.076  22.342  0.00  0.00    +0.223 A 
ATOM     28  H   UNL     1      -0.177  -1.744  23.286  0.00  0.00    +0.144 HD
ATOM     29  H   UNL     1      -0.601  -0.549  24.460  0.00  0.00    +0.144 HD
ENDBRANCH  19  23
ENDBRANCH  10  15
BRANCH   4  14
ATOM     14  C   UNL     1      -4.575   2.641  24.369  0.00  0.00    +0.120 C 
BRANCH  14  16
ATOM     16  C   UNL     1      -4.180   1.188  24.389  0.00  0.00    -0.033 A 
ATOM     17  C   UNL     1      -4.312   0.446  25.562  0.00  0.00    +0.006 A 
ATOM     18  C   UNL     1      -3.681   0.585  23.234  0.00  0.00    +0.006 A 
ATOM     20  C   UNL     1      -3.947  -0.900  25.581  0.00  0.00    +0.015 A 
ATOM     21  C   UNL     1      -3.315  -0.761  23.253  0.00  0.00    +0.015 A 
ATOM     22  C   UNL     1      -3.447  -1.503  24.426  0.00  0.00    +0.059 A 
BRANCH  22  26
ATOM      3  O   UNL     1      -3.840  -3.861  24.311  0.00  0.00    -0.245 OA
ATOM     26  C   UNL     1      -3.066  -2.907  24.445  0.00  0.00    +0.337 C 
BRANCH  26   2
ATOM      2  O   UNL     1      -1.729  -3.081  24.632  0.00  0.00    -0.477 OA
ATOM     30  H   UNL     1      -1.460  -2.879  25.553  0.00  0.00    +0.295 HD
ENDBRANCH  26   2
ENDBRANCH  22  26
ENDBRANCH  14  16
ENDBRANCH   4  14
TORSDOF 6
ENDMDL
MODEL 2
REMARK VINA RESULT:      -1.0      1.889      4.855
REMARK  Name = 45783728
REMARK  6 active torsions:
REMARK  status: ('A' for Active; 'I' for Inactive)
REMARK    1  A    between atoms: O_2  and  C_26
REMARK    2  A    between atoms: N_4  and  C_14
REMARK    3  A    between atoms: C_10  and  C_15
REMARK    4  A    between atoms: C_14  and  C_16
REMARK    5  A    between atoms: C_19  and  C_23
REMARK    6  A    between atoms: C_22  and  C_26
REMARK                            x       y       z     vdW  Elec       q    Type
REMARK                         _______ _______ _______ _____ _____    ______ ____
ROOT
ATOM      4  N   UNL     1      -4.291  -1.224  23.915  0.00  0.00    -0.287 NA
ATOM     10  C   UNL     1      -3.368  -1.657  24.983  0.00  0.00    +0.146 C 
ATOM     11  C   UNL     1      -3.240  -3.180  24.797  0.00  0.00    +0.030 C 
ATOM     12  C   UNL     1      -4.171  -3.518  23.641  0.00  0.00    +0.017 C 
ATOM     13  C   UNL     1      -5.157  -2.368  23.628  0.00  0.00    +0.085 C 
ENDROOT
BRANCH  10  15
ATOM      1  O   UNL     1      -1.676  -0.233  26.022  0.00  0.00    -0.336 OA
ATOM      5  N   UNL     1      -1.153  -0.913  23.953  0.00  0.00    -0.190 NA
ATOM      6  N   UNL     1      -0.424   0.325  25.733  0.00  0.00    -0.056 NA
ATOM     15  C   UNL     1      -2.032  -0.946  24.923  0.00  0.00    +0.245 A 
ATOM     19  C   UNL     1      -0.183  -0.121  24.497  0.00  0.00    +0.207 A 
BRANCH  19  23
ATOM      7  N   UNL     1       2.755   1.744  23.152  0.00  0.00    -0.220 NA
ATOM      8  N   UNL     1       1.052   2.453  24.634  0.00  0.00    -0.342 N 
ATOM      9  N   UNL     1       2.754  -0.498  22.270  0.00  0.00    -0.243 NA
ATOM     23  C   UNL     1       1.014   0.204  23.778  0.00  0.00    +0.080 A 
ATOM     24  C   UNL     1       1.628   1.439  23.829  0.00  0.00    +0.130 A 
ATOM     25  C   UNL     1       1.628  -0.735  22.975  0.00  0.00    +0.127 A 
ATOM     27  C   UNL     1       3.256   0.744  22.403  0.00  0.00    +0.223 A 
ATOM     28  H   UNL     1       1.540   3.341  24.654  0.00  0.00    +0.144 HD
ATOM     29  H   UNL     1       0.048   2.474  24.750  0.00  0.00    +0.144 HD
ENDBRANCH  19  23
ENDBRANCH  10  15
BRANCH   4  14
ATOM     14  C   UNL     1      -5.053  -0.032  24.262  0.00  0.00    +0.120 C 
BRANCH  14  16
ATOM     16  C   UNL     1      -4.167   1.176  24.411  0.00  0.00    -0.033 A 
ATOM     17  C   UNL     1      -4.270   1.981  25.546  0.00  0.00    +0.006 A 
ATOM     18  C   UNL     1      -3.243   1.492  23.414  0.00  0.00    +0.006 A 
ATOM     20  C   UNL     1      -3.449   3.100  25.685  0.00  0.00    +0.015 A 
ATOM     21  C   UNL     1      -2.423   2.611  23.553  0.00  0.00    +0.015 A 
ATOM     22  C   UNL     1      -2.526   3.416  24.688  0.00  0.00    +0.059 A 
BRANCH  22  26
ATOM      3  O   UNL     1      -0.556   4.722  24.316  0.00  0.00    -0.245 OA
ATOM     26  C   UNL     1      -1.670   4.582  24.833  0.00  0.00    +0.337 C 
BRANCH  26   2
ATOM      2  O   UNL     1      -2.228   5.544  25.619  0.00  0.00    -0.477 OA
ATOM     30  H   UNL     1      -1.884   6.436  25.404  0.00  0.00    +0.295 HD
ENDBRANCH  26   2
ENDBRANCH  22  26
ENDBRANCH  14  16
ENDBRANCH   4  14
TORSDOF 6
ENDMDL
MODEL 3
REMARK VINA RESULT:      -0.7      2.218      7.034
REMARK  Name = 45783728
REMARK  6 active torsions:
REMARK  status: ('A' for Active; 'I' for Inactive)
REMARK    1  A    between atoms: O_2  and  C_26
REMARK    2  A    between atoms: N_4  and  C_14
REMARK    3  A    between atoms: C_10  and  C_15
REMARK    4  A    between atoms: C_14  and  C_16
REMARK    5  A    between atoms: C_19  and  C_23
REMARK    6  A    between atoms: C_22  and  C_26
REMARK                            x       y       z     vdW  Elec       q    Type
REMARK                         _______ _______ _______ _____ _____    ______ ____
ROOT
ATOM      4  N   UNL     1      -0.495  -1.319  24.871  0.00  0.00    -0.287 NA
ATOM     10  C   UNL     1      -1.656  -1.810  24.100  0.00  0.00    +0.146 C 
ATOM     11  C   UNL     1      -1.883  -3.246  24.607  0.00  0.00    +0.030 C 
ATOM     12  C   UNL     1      -0.769  -3.492  25.614  0.00  0.00    +0.017 C 
ATOM     13  C   UNL     1       0.301  -2.497  25.215  0.00  0.00    +0.085 C 
ENDROOT
BRANCH  10  15
ATOM      1  O   UNL     1      -4.072  -1.485  23.925  0.00  0.00    -0.336 OA
ATOM      5  N   UNL     1      -2.961   0.304  24.688  0.00  0.00    -0.190 NA
ATOM      6  N   UNL     1      -5.037  -0.497  24.156  0.00  0.00    -0.056 NA
ATOM     15  C   UNL     1      -2.878  -0.931  24.264  0.00  0.00    +0.245 A 
ATOM     19  C   UNL     1      -4.305   0.527  24.605  0.00  0.00    +0.207 A 
BRANCH  19  23
ATOM      7  N   UNL     1      -5.171   4.156  24.681  0.00  0.00    -0.220 NA
ATOM      8  N   UNL     1      -3.737   2.964  23.224  0.00  0.00    -0.342 N 
ATOM      9  N   UNL     1      -6.338   3.014  26.452  0.00  0.00    -0.243 NA
ATOM     23  C   UNL     1      -4.885   1.785  24.979  0.00  0.00    +0.080 A 
ATOM     24  C   UNL     1      -4.625   2.973  24.328  0.00  0.00    +0.130 A 
ATOM     25  C   UNL     1      -5.758   1.866  26.045  0.00  0.00    +0.127 A 
ATOM     27  C   UNL     1      -6.005   4.104  25.736  0.00  0.00    +0.223 A 
ATOM     28  H   UNL     1      -3.582   3.855  22.766  0.00  0.00    +0.144 HD
ATOM     29  H   UNL     1      -2.973   2.301  23.216  0.00  0.00    +0.144 HD
ENDBRANCH  19  23
ENDBRANCH  10  15
BRANCH   4  14
ATOM     14  C   UNL     1       0.286  -0.317  24.158  0.00  0.00    +0.120 C 
BRANCH  14  16
ATOM     16  C   UNL     1      -0.182   1.081  24.463  0.00  0.00    -0.033 A 
ATOM     17  C   UNL     1      -0.334   2.007  23.432  0.00  0.00    +0.006 A 
ATOM     18  C   UNL     1      -0.462   1.451  25.780  0.00  0.00    +0.006 A 
ATOM     20  C   UNL     1      -0.768   3.302  23.714  0.00  0.00    +0.015 A 
ATOM     21  C   UNL     1      -0.895   2.747  26.062  0.00  0.00    +0.015 A 
ATOM     22  C   UNL     1      -1.047   3.672  25.030  0.00  0.00    +0.059 A 
BRANCH  22  26
ATOM      3  O   UNL     1      -0.987   6.060  24.893  0.00  0.00    -0.245 OA
ATOM     26  C   UNL     1      -1.500   5.023  25.325  0.00  0.00    +0.337 C 
BRANCH  26   2
ATOM      2  O   UNL     1      -2.582   5.040  26.152  0.00  0.00    -0.477 OA
ATOM     30  H   UNL     1      -3.339   5.515  25.751  0.00  0.00    +0.295 HD
ENDBRANCH  26   2
ENDBRANCH  22  26
ENDBRANCH  14  16
ENDBRANCH   4  14
TORSDOF 6
ENDMDL
MODEL 4
REMARK VINA RESULT:      -0.7      2.303      7.017
REMARK  Name = 45783728
REMARK  6 active torsions:
REMARK  status: ('A' for Active; 'I' for Inactive)
REMARK    1  A    between atoms: O_2  and  C_26
REMARK    2  A    between atoms: N_4  and  C_14
REMARK    3  A    between atoms: C_10  and  C_15
REMARK    4  A    between atoms: C_14  and  C_16
REMARK    5  A    between atoms: C_19  and  C_23
REMARK    6  A    between atoms: C_22  and  C_26
REMARK                            x       y       z     vdW  Elec       q    Type
REMARK                         _______ _______ _______ _____ _____    ______ ____
ROOT
ATOM      4  N   UNL     1      -0.723  -1.273  24.875  0.00  0.00    -0.287 NA
ATOM     10  C   UNL     1      -1.919  -1.678  24.109  0.00  0.00    +0.146 C 
ATOM     11  C   UNL     1      -2.248  -3.094  24.618  0.00  0.00    +0.030 C 
ATOM     12  C   UNL     1      -1.150  -3.421  25.621  0.00  0.00    +0.017 C 
ATOM     13  C   UNL     1      -0.012  -2.506  25.216  0.00  0.00    +0.085 C 
ENDROOT
BRANCH  10  15
ATOM      1  O   UNL     1      -4.321  -1.226  24.112  0.00  0.00    -0.336 OA
ATOM      5  N   UNL     1      -3.052   0.564  24.561  0.00  0.00    -0.190 NA
ATOM      6  N   UNL     1      -5.208  -0.161  24.313  0.00  0.00    -0.056 NA
ATOM     15  C   UNL     1      -3.074  -0.713  24.278  0.00  0.00    +0.245 A 
ATOM     19  C   UNL     1      -4.385   0.860  24.573  0.00  0.00    +0.207 A 
BRANCH  19  23
ATOM      7  N   UNL     1      -6.272   3.718  26.052  0.00  0.00    -0.220 NA
ATOM      8  N   UNL     1      -6.383   1.406  26.542  0.00  0.00    -0.342 N 
ATOM      9  N   UNL     1      -4.762   4.539  24.363  0.00  0.00    -0.243 NA
ATOM     23  C   UNL     1      -4.861   2.184  24.848  0.00  0.00    +0.080 A 
ATOM     24  C   UNL     1      -5.824   2.472  25.794  0.00  0.00    +0.130 A 
ATOM     25  C   UNL     1      -4.360   3.268  24.156  0.00  0.00    +0.127 A 
ATOM     27  C   UNL     1      -5.706   4.690  25.311  0.00  0.00    +0.223 A 
ATOM     28  H   UNL     1      -7.078   1.661  27.234  0.00  0.00    +0.144 HD
ATOM     29  H   UNL     1      -6.475   0.498  26.107  0.00  0.00    +0.144 HD
ENDBRANCH  19  23
ENDBRANCH  10  15
BRANCH   4  14
ATOM     14  C   UNL     1       0.126  -0.331  24.158  0.00  0.00    +0.120 C 
BRANCH  14  16
ATOM     16  C   UNL     1      -0.256   1.097  24.441  0.00  0.00    -0.033 A 
ATOM     17  C   UNL     1      -0.487   1.980  23.387  0.00  0.00    +0.006 A 
ATOM     18  C   UNL     1      -0.380   1.539  25.760  0.00  0.00    +0.006 A 
ATOM     20  C   UNL     1      -0.843   3.303  23.649  0.00  0.00    +0.015 A 
ATOM     21  C   UNL     1      -0.734   2.862  26.022  0.00  0.00    +0.015 A 
ATOM     22  C   UNL     1      -0.965   3.744  24.967  0.00  0.00    +0.059 A 
BRANCH  22  26
ATOM      3  O   UNL     1      -0.761   6.122  24.794  0.00  0.00    -0.245 OA
ATOM     26  C   UNL     1      -1.336   5.124  25.241  0.00  0.00    +0.337 C 
BRANCH  26   2
ATOM      2  O   UNL     1      -2.416   5.219  26.065  0.00  0.00    -0.477 OA
ATOM     30  H   UNL     1      -2.732   4.338  26.354  0.00  0.00    +0.295 HD
ENDBRANCH  26   2
ENDBRANCH  22  26
ENDBRANCH  14  16
ENDBRANCH   4  14
TORSDOF 6
ENDMDL
MODEL 5
REMARK VINA RESULT:      -0.5      2.304      5.351
REMARK  Name = 45783728
REMARK  6 active torsions:
REMARK  status: ('A' for Active; 'I' for Inactive)
REMARK    1  A    between atoms: O_2  and  C_26
REMARK    2  A    between atoms: N_4  and  C_14
REMARK    3  A    between atoms: C_10  and  C_15
REMARK    4  A    between atoms: C_14  and  C_16
REMARK    5  A    between atoms: C_19  and  C_23
REMARK    6  A    between atoms: C_22  and  C_26
REMARK                            x       y       z     vdW  Elec       q    Type
REMARK                         _______ _______ _______ _____ _____    ______ ____
ROOT
ATOM      4  N   UNL     1      -2.857  -1.011  24.742  0.00  0.00    -0.287 NA
ATOM     10  C   UNL     1      -1.705  -1.934  24.701  0.00  0.00    +0.146 C 
ATOM     11  C   UNL     1      -2.205  -3.150  23.900  0.00  0.00    +0.030 C 
ATOM     12  C   UNL     1      -3.663  -2.845  23.585  0.00  0.00    +0.017 C 
ATOM     13  C   UNL     1      -4.057  -1.842  24.650  0.00  0.00    +0.085 C 
ENDROOT
BRANCH  10  15
ATOM      1  O   UNL     1      -0.673  -0.473  23.037  0.00  0.00    -0.336 OA
ATOM      5  N   UNL     1       0.785  -1.434  24.438  0.00  0.00    -0.190 NA
ATOM      6  N   UNL     1       0.594  -0.017  22.653  0.00  0.00    -0.056 NA
ATOM     15  C   UNL     1      -0.471  -1.301  24.094  0.00  0.00    +0.245 A 
ATOM     19  C   UNL     1       1.401  -0.628  23.526  0.00  0.00    +0.207 A 
BRANCH  19  23
ATOM      7  N   UNL     1       4.787   0.916  23.251  0.00  0.00    -0.220 NA
ATOM      8  N   UNL     1       2.646   1.891  22.997  0.00  0.00    -0.342 N 
ATOM      9  N   UNL     1       5.011  -1.427  23.769  0.00  0.00    -0.243 NA
ATOM     23  C   UNL     1       2.825  -0.453  23.515  0.00  0.00    +0.080 A 
ATOM     24  C   UNL     1       3.447   0.753  23.262  0.00  0.00    +0.130 A 
ATOM     25  C   UNL     1       3.665  -1.519  23.764  0.00  0.00    +0.127 A 
ATOM     27  C   UNL     1       5.497  -0.198  23.508  0.00  0.00    +0.223 A 
ATOM     28  H   UNL     1       3.141   2.758  22.828  0.00  0.00    +0.144 HD
ATOM     29  H   UNL     1       1.759   1.766  22.528  0.00  0.00    +0.144 HD
ENDBRANCH  19  23
ENDBRANCH  10  15
BRANCH   4  14
ATOM     14  C   UNL     1      -2.869  -0.158  25.923  0.00  0.00    +0.120 C 
BRANCH  14  16
ATOM     16  C   UNL     1      -2.374   1.231  25.617  0.00  0.00    -0.033 A 
ATOM     17  C   UNL     1      -3.261   2.201  25.152  0.00  0.00    +0.006 A 
ATOM     18  C   UNL     1      -1.026   1.547  25.799  0.00  0.00    +0.006 A 
ATOM     20  C   UNL     1      -2.802   3.488  24.869  0.00  0.00    +0.015 A 
ATOM     21  C   UNL     1      -0.568   2.833  25.515  0.00  0.00    +0.015 A 
ATOM     22  C   UNL     1      -1.455   3.804  25.050  0.00  0.00    +0.059 A 
BRANCH  22  26
ATOM      3  O   UNL     1       0.093   5.419  24.202  0.00  0.00    -0.245 OA
ATOM     26  C   UNL     1      -0.977   5.145  24.756  0.00  0.00    +0.337 C 
BRANCH  26   2
ATOM      2  O   UNL     1      -1.849   6.110  25.162  0.00  0.00    -0.477 OA
ATOM     30  H   UNL     1      -2.686   5.726  25.497  0.00  0.00    +0.295 HD
ENDBRANCH  26   2
ENDBRANCH  22  26
ENDBRANCH  14  16
ENDBRANCH   4  14
TORSDOF 6
ENDMDL
MODEL 6
REMARK VINA RESULT:      -0.5      2.139      4.603
REMARK  Name = 45783728
REMARK  6 active torsions:
REMARK  status: ('A' for Active; 'I' for Inactive)
REMARK    1  A    between atoms: O_2  and  C_26
REMARK    2  A    between atoms: N_4  and  C_14
REMARK    3  A    between atoms: C_10  and  C_15
REMARK    4  A    between atoms: C_14  and  C_16
REMARK    5  A    between atoms: C_19  and  C_23
REMARK    6  A    between atoms: C_22  and  C_26
REMARK                            x       y       z     vdW  Elec       q    Type
REMARK                         _______ _______ _______ _____ _____    ______ ____
ROOT
ATOM      4  N   UNL     1      -3.066  -1.466  24.023  0.00  0.00    -0.287 NA
ATOM     10  C   UNL     1      -2.408  -0.720  25.115  0.00  0.00    +0.146 C 
ATOM     11  C   UNL     1      -2.166  -1.769  26.215  0.00  0.00    +0.030 C 
ATOM     12  C   UNL     1      -2.773  -3.057  25.677  0.00  0.00    +0.017 C 
ATOM     13  C   UNL     1      -3.781  -2.576  24.652  0.00  0.00    +0.085 C 
ENDROOT
BRANCH  10  15
ATOM      1  O   UNL     1      -0.965   1.252  25.069  0.00  0.00    -0.336 OA
ATOM      5  N   UNL     1      -0.152  -0.504  23.941  0.00  0.00    -0.190 NA
ATOM      6  N   UNL     1       0.265   1.664  24.542  0.00  0.00    -0.056 NA
ATOM     15  C   UNL     1      -1.133  -0.036  24.669  0.00  0.00    +0.245 A 
ATOM     19  C   UNL     1       0.684   0.574  23.890  0.00  0.00    +0.207 A 
BRANCH  19  23
ATOM      7  N   UNL     1       3.243  -0.038  21.245  0.00  0.00    -0.220 NA
ATOM      8  N   UNL     1       0.928  -0.527  21.263  0.00  0.00    -0.342 N 
ATOM      9  N   UNL     1       4.285   1.018  23.143  0.00  0.00    -0.243 NA
ATOM     23  C   UNL     1       1.929   0.530  23.180  0.00  0.00    +0.080 A 
ATOM     24  C   UNL     1       2.071   0.004  21.912  0.00  0.00    +0.130 A 
ATOM     25  C   UNL     1       3.081   1.028  23.752  0.00  0.00    +0.127 A 
ATOM     27  C   UNL     1       4.294   0.478  21.910  0.00  0.00    +0.223 A 
ATOM     28  H   UNL     1       1.073  -0.893  20.329  0.00  0.00    +0.144 HD
ATOM     29  H   UNL     1       0.204  -0.958  21.822  0.00  0.00    +0.144 HD
ENDBRANCH  19  23
ENDBRANCH  10  15
BRANCH   4  14
ATOM     14  C   UNL     1      -3.946  -0.637  23.210  0.00  0.00    +0.120 C 
BRANCH  14  16
ATOM     16  C   UNL     1      -4.241   0.683  23.870  0.00  0.00    -0.033 A 
ATOM     17  C   UNL     1      -3.641   1.850  23.396  0.00  0.00    +0.006 A 
ATOM     18  C   UNL     1      -5.115   0.740  24.957  0.00  0.00    +0.006 A 
ATOM     20  C   UNL     1      -3.915   3.073  24.007  0.00  0.00    +0.015 A 
ATOM     21  C   UNL     1      -5.388   1.964  25.568  0.00  0.00    +0.015 A 
ATOM     22  C   UNL     1      -4.788   3.130  25.094  0.00  0.00    +0.059 A 
BRANCH  22  26
ATOM      3  O   UNL     1      -6.176   4.965  25.752  0.00  0.00    -0.245 OA
ATOM     26  C   UNL     1      -5.074   4.406  25.731  0.00  0.00    +0.337 C 
BRANCH  26   2
ATOM      2  O   UNL     1      -3.975   4.950  26.325  0.00  0.00    -0.477 OA
ATOM     30  H   UNL     1      -3.398   4.264  26.720  0.00  0.00    +0.295 HD
ENDBRANCH  26   2
ENDBRANCH  22  26
ENDBRANCH  14  16
ENDBRANCH   4  14
TORSDOF 6
ENDMDL
MODEL 7
REMARK VINA RESULT:       0.7      2.136      4.997
REMARK  Name = 45783728
REMARK  6 active torsions:
REMARK  status: ('A' for Active; 'I' for Inactive)
REMARK    1  A    between atoms: O_2  and  C_26
REMARK    2  A    between atoms: N_4  and  C_14
REMARK    3  A    between atoms: C_10  and  C_15
REMARK    4  A    between atoms: C_14  and  C_16
REMARK    5  A    between atoms: C_19  and  C_23
REMARK    6  A    between atoms: C_22  and  C_26
REMARK                            x       y       z     vdW  Elec       q    Type
REMARK                         _______ _______ _______ _____ _____    ______ ____
ROOT
ATOM      4  N   UNL     1      -2.854  -1.249  23.633  0.00  0.00    -0.287 NA
ATOM     10  C   UNL     1      -1.761  -0.845  24.540  0.00  0.00    +0.146 C 
ATOM     11  C   UNL     1      -1.722  -1.944  25.619  0.00  0.00    +0.030 C 
ATOM     12  C   UNL     1      -2.865  -2.885  25.268  0.00  0.00    +0.017 C 
ATOM     13  C   UNL     1      -3.797  -2.024  24.440  0.00  0.00    +0.085 C 
ENDROOT
BRANCH  10  15
ATOM      1  O   UNL     1      -0.463  -0.810  22.470  0.00  0.00    -0.336 OA
ATOM      5  N   UNL     1       0.750  -0.437  24.316  0.00  0.00    -0.190 NA
ATOM      6  N   UNL     1       0.857  -0.624  22.039  0.00  0.00    -0.056 NA
ATOM     15  C   UNL     1      -0.437  -0.683  23.823  0.00  0.00    +0.245 A 
ATOM     19  C   UNL     1       1.512  -0.409  23.184  0.00  0.00    +0.207 A 
BRANCH  19  23
ATOM      7  N   UNL     1       5.169  -0.821  23.798  0.00  0.00    -0.220 NA
ATOM      8  N   UNL     1       3.373  -2.285  24.274  0.00  0.00    -0.342 N 
ATOM      9  N   UNL     1       4.763   1.315  22.757  0.00  0.00    -0.243 NA
ATOM     23  C   UNL     1       2.924  -0.163  23.232  0.00  0.00    +0.080 A 
ATOM     24  C   UNL     1       3.840  -1.053  23.753  0.00  0.00    +0.130 A 
ATOM     25  C   UNL     1       3.447   1.017  22.743  0.00  0.00    +0.127 A 
ATOM     27  C   UNL     1       5.555   0.365  23.291  0.00  0.00    +0.223 A 
ATOM     28  H   UNL     1       4.079  -2.916  24.636  0.00  0.00    +0.144 HD
ATOM     29  H   UNL     1       2.458  -2.319  24.704  0.00  0.00    +0.144 HD
ENDBRANCH  19  23
ENDBRANCH  10  15
BRANCH   4  14
ATOM     14  C   UNL     1      -3.496  -0.121  22.971  0.00  0.00    +0.120 C 
BRANCH  14  16
ATOM     16  C   UNL     1      -3.223   1.177  23.682  0.00  0.00    -0.033 A 
ATOM     17  C   UNL     1      -2.114   1.945  23.331  0.00  0.00    +0.006 A 
ATOM     18  C   UNL     1      -4.081   1.612  24.694  0.00  0.00    +0.006 A 
ATOM     20  C   UNL     1      -1.861   3.149  23.990  0.00  0.00    +0.015 A 
ATOM     21  C   UNL     1      -3.828   2.815  25.353  0.00  0.00    +0.015 A 
ATOM     22  C   UNL     1      -2.718   3.583  25.002  0.00  0.00    +0.059 A 
BRANCH  22  26
ATOM      3  O   UNL     1      -3.110   5.287  26.635  0.00  0.00    -0.245 OA
ATOM     26  C   UNL     1      -2.455   4.838  25.689  0.00  0.00    +0.337 C 
BRANCH  26   2
ATOM      2  O   UNL     1      -1.380   5.497  25.175  0.00  0.00    -0.477 OA
ATOM     30  H   UNL     1      -0.675   5.623  25.845  0.00  0.00    +0.295 HD
ENDBRANCH  26   2
ENDBRANCH  22  26
ENDBRANCH  14  16
ENDBRANCH   4  14
TORSDOF 6
ENDMDL
MODEL 8
REMARK VINA RESULT:       1.5      2.127      5.607
REMARK  Name = 45783728
REMARK  6 active torsions:
REMARK  status: ('A' for Active; 'I' for Inactive)
REMARK    1  A    between atoms: O_2  and  C_26
REMARK    2  A    between atoms: N_4  and  C_14
REMARK    3  A    between atoms: C_10  and  C_15
REMARK    4  A    between atoms: C_14  and  C_16
REMARK    5  A    between atoms: C_19  and  C_23
REMARK    6  A    between atoms: C_22  and  C_26
REMARK                            x       y       z     vdW  Elec       q    Type
REMARK                         _______ _______ _______ _____ _____    ______ ____
ROOT
ATOM      4  N   UNL     1       0.391  -0.380  23.259  0.00  0.00    -0.287 NA
ATOM     10  C   UNL     1       1.000   0.682  24.085  0.00  0.00    +0.146 C 
ATOM     11  C   UNL     1       2.276   1.087  23.324  0.00  0.00    +0.030 C 
ATOM     12  C   UNL     1       2.330   0.159  22.118  0.00  0.00    +0.017 C 
ATOM     13  C   UNL     1       1.490  -1.028  22.543  0.00  0.00    +0.085 C 
ENDROOT
BRANCH  10  15
ATOM      1  O   UNL     1       0.566   3.087  24.074  0.00  0.00    -0.336 OA
ATOM      5  N   UNL     1      -1.180   1.846  24.727  0.00  0.00    -0.190 NA
ATOM      6  N   UNL     1      -0.469   3.988  24.357  0.00  0.00    -0.056 NA
ATOM     15  C   UNL     1       0.063   1.849  24.317  0.00  0.00    +0.245 A 
ATOM     19  C   UNL     1      -1.464   3.180  24.735  0.00  0.00    +0.207 A 
BRANCH  19  23
ATOM      7  N   UNL     1      -5.036   4.254  24.632  0.00  0.00    -0.220 NA
ATOM      8  N   UNL     1      -3.654   3.401  22.911  0.00  0.00    -0.342 N 
ATOM      9  N   UNL     1      -4.173   4.545  26.863  0.00  0.00    -0.243 NA
ATOM     23  C   UNL     1      -2.753   3.674  25.126  0.00  0.00    +0.080 A 
ATOM     24  C   UNL     1      -3.824   3.789  24.264  0.00  0.00    +0.130 A 
ATOM     25  C   UNL     1      -2.988   4.070  26.427  0.00  0.00    +0.127 A 
ATOM     27  C   UNL     1      -5.139   4.609  25.927  0.00  0.00    +0.223 A 
ATOM     28  H   UNL     1      -4.468   3.490  22.314  0.00  0.00    +0.144 HD
ATOM     29  H   UNL     1      -2.748   3.518  22.479  0.00  0.00    +0.144 HD
ENDBRANCH  19  23
ENDBRANCH  10  15
BRANCH   4  14
ATOM     14  C   UNL     1      -0.395  -1.331  24.034  0.00  0.00    +0.120 C 
BRANCH  14  16
ATOM     16  C   UNL     1      -1.745  -0.775  24.401  0.00  0.00    -0.033 A 
ATOM     17  C   UNL     1      -2.171  -0.797  25.729  0.00  0.00    +0.006 A 
ATOM     18  C   UNL     1      -2.571  -0.237  23.412  0.00  0.00    +0.006 A 
ATOM     20  C   UNL     1      -3.422  -0.280  26.069  0.00  0.00    +0.015 A 
ATOM     21  C   UNL     1      -3.822   0.277  23.753  0.00  0.00    +0.015 A 
ATOM     22  C   UNL     1      -4.248   0.255  25.081  0.00  0.00    +0.059 A 
BRANCH  22  26
ATOM      3  O   UNL     1      -6.026   0.827  26.575  0.00  0.00    -0.245 OA
ATOM     26  C   UNL     1      -5.552   0.794  25.435  0.00  0.00    +0.337 C 
BRANCH  26   2
ATOM      2  O   UNL     1      -6.227   1.276  24.356  0.00  0.00    -0.477 OA
ATOM     30  H   UNL     1      -6.126   2.247  24.266  0.00  0.00    +0.295 HD
ENDBRANCH  26   2
ENDBRANCH  22  26
ENDBRANCH  14  16
ENDBRANCH   4  14
TORSDOF 6
ENDMDL
MODEL 9
REMARK VINA RESULT:       2.1      1.982      6.528
REMARK  Name = 45783728
REMARK  6 active torsions:
REMARK  status: ('A' for Active; 'I' for Inactive)
REMARK    1  A    between atoms: O_2  and  C_26
REMARK    2  A    between atoms: N_4  and  C_14
REMARK    3  A    between atoms: C_10  and  C_15
REMARK    4  A    between atoms: C_14  and  C_16
REMARK    5  A    between atoms: C_19  and  C_23
REMARK    6  A    between atoms: C_22  and  C_26
REMARK                            x       y       z     vdW  Elec       q    Type
REMARK                         _______ _______ _______ _____ _____    ______ ____
ROOT
ATOM      4  N   UNL     1       1.933   1.172  23.593  0.00  0.00    -0.287 NA
ATOM     10  C   UNL     1       0.956   0.557  22.672  0.00  0.00    +0.146 C 
ATOM     11  C   UNL     1       1.658  -0.707  22.143  0.00  0.00    +0.030 C 
ATOM     12  C   UNL     1       3.043  -0.686  22.775  0.00  0.00    +0.017 C 
ATOM     13  C   UNL     1       3.258   0.775  23.116  0.00  0.00    +0.085 C 
ENDROOT
BRANCH  10  15
ATOM      1  O   UNL     1      -0.504  -0.988  23.877  0.00  0.00    -0.336 OA
ATOM      5  N   UNL     1      -1.418   1.020  23.489  0.00  0.00    -0.190 NA
ATOM      6  N   UNL     1      -1.790  -1.031  24.432  0.00  0.00    -0.056 NA
ATOM     15  C   UNL     1      -0.367   0.254  23.344  0.00  0.00    +0.245 A 
ATOM     19  C   UNL     1      -2.265   0.189  24.163  0.00  0.00    +0.207 A 
BRANCH  19  23
ATOM      7  N   UNL     1      -5.590   0.337  25.850  0.00  0.00    -0.220 NA
ATOM      8  N   UNL     1      -3.830  -1.225  26.093  0.00  0.00    -0.342 N 
ATOM      9  N   UNL     1      -5.382   2.187  24.319  0.00  0.00    -0.243 NA
ATOM     23  C   UNL     1      -3.580   0.608  24.554  0.00  0.00    +0.080 A 
ATOM     24  C   UNL     1      -4.353  -0.058  25.483  0.00  0.00    +0.130 A 
ATOM     25  C   UNL     1      -4.151   1.736  23.999  0.00  0.00    +0.127 A 
ATOM     27  C   UNL     1      -6.036   1.451  25.237  0.00  0.00    +0.223 A 
ATOM     28  H   UNL     1      -4.424  -1.677  26.778  0.00  0.00    +0.144 HD
ATOM     29  H   UNL     1      -3.203  -1.815  25.563  0.00  0.00    +0.144 HD
ENDBRANCH  19  23
ENDBRANCH  10  15
BRANCH   4  14
ATOM     14  C   UNL     1       1.797   2.619  23.693  0.00  0.00    +0.120 C 
BRANCH  14  16
ATOM     16  C   UNL     1       0.540   3.016  24.420  0.00  0.00    -0.033 A 
ATOM     17  C   UNL     1      -0.323   3.957  23.859  0.00  0.00    +0.006 A 
ATOM     18  C   UNL     1       0.238   2.442  25.656  0.00  0.00    +0.006 A 
ATOM     20  C   UNL     1      -1.489   4.323  24.532  0.00  0.00    +0.015 A 
ATOM     21  C   UNL     1      -0.927   2.809  26.329  0.00  0.00    +0.015 A 
ATOM     22  C   UNL     1      -1.790   3.750  25.768  0.00  0.00    +0.059 A 
BRANCH  22  26
ATOM      3  O   UNL     1      -3.142   4.165  27.698  0.00  0.00    -0.245 OA
ATOM     26  C   UNL     1      -3.005   4.133  26.471  0.00  0.00    +0.337 C 
BRANCH  26   2
ATOM      2  O   UNL     1      -4.015   4.464  25.620  0.00  0.00    -0.477 OA
ATOM     30  H   UNL     1      -4.572   3.689  25.396  0.00  0.00    +0.295 HD
ENDBRANCH  26   2
ENDBRANCH  22  26
ENDBRANCH  14  16
ENDBRANCH   4  14
TORSDOF 6
ENDMDL
