MODEL 1
REMARK VINA RESULT:       9.5      0.000      0.000
REMARK  Name = 11883035
REMARK  9 active torsions:
REMARK  status: ('A' for Active; 'I' for Inactive)
REMARK    1  A    between atoms: O_3  and  C_16
REMARK    2  A    between atoms: O_4  and  C_21
REMARK    3  A    between atoms: O_5  and  C_25
REMARK    4  A    between atoms: C_11  and  C_19
REMARK    5  A    between atoms: C_13  and  C_21
REMARK    6  A    between atoms: C_13  and  C_22
REMARK    7  A    between atoms: C_14  and  C_24
REMARK    8  A    between atoms: C_24  and  C_25
REMARK    9  A    between atoms: C_27  and  C_28
REMARK                            x       y       z     vdW  Elec       q    Type
REMARK                         _______ _______ _______ _____ _____    ______ ____
ROOT
ATOM      2  S   UNL     1       0.669   2.355  24.554  0.00  0.00    -0.057 S 
ATOM      7  O   UNL     1       2.905  -1.510  23.238  0.00  0.00    -0.270 OA
ATOM      8  N   UNL     1       0.372  -0.125  23.881  0.00  0.00    -0.229 NA
ATOM      9  N   UNL     1       2.624   0.733  23.903  0.00  0.00    -0.261 N 
ATOM     11  C   UNL     1      -3.366   0.217  24.766  0.00  0.00    -0.019 C 
ATOM     12  C   UNL     1      -3.401   1.757  24.363  0.00  0.00    +0.011 C 
ATOM     13  C   UNL     1      -4.744   2.538  24.636  0.00  0.00    +0.021 C 
ATOM     14  C   UNL     1      -2.125  -0.459  24.021  0.00  0.00    +0.055 C 
ATOM     15  C   UNL     1      -4.665  -0.474  24.279  0.00  0.00    +0.010 C 
ATOM     16  C   UNL     1      -5.944   1.687  24.129  0.00  0.00    +0.123 C 
ATOM     17  C   UNL     1      -2.129   2.505  24.859  0.00  0.00    +0.049 C 
ATOM     18  C   UNL     1      -5.939   0.261  24.669  0.00  0.00    +0.032 C 
ATOM     19  C   UNL     1      -3.230  -0.001  26.293  0.00  0.00    +0.012 C 
ATOM     20  C   UNL     1      -0.883   0.383  24.160  0.00  0.00    +0.058 A 
ATOM     22  C   UNL     1      -4.736   3.860  23.818  0.00  0.00    +0.016 C 
ATOM     23  C   UNL     1      -0.909   1.716  24.519  0.00  0.00    +0.015 A 
ATOM     26  C   UNL     1       1.266   0.822  24.062  0.00  0.00    +0.165 A 
ATOM     27  C   UNL     1       3.351  -0.401  23.509  0.00  0.00    +0.250 C 
ATOM     35  H   UNL     1       3.106   1.613  24.058  0.00  0.00    +0.157 HD
ENDROOT
BRANCH  27  28
ATOM      1 CL   UNL     1       7.963  -2.011  21.811  0.00  0.00    -0.062 Cl
ATOM     10  N   UNL     1       7.549   0.163  23.162  0.00  0.00    -0.244 NA
ATOM     28  C   UNL     1       4.821  -0.205  23.387  0.00  0.00    +0.041 A 
ATOM     29  C   UNL     1       5.563  -1.142  22.712  0.00  0.00    +0.053 A 
ATOM     30  C   UNL     1       5.391   0.911  23.953  0.00  0.00    +0.033 A 
ATOM     31  C   UNL     1       6.927  -0.913  22.626  0.00  0.00    +0.130 A 
ATOM     32  C   UNL     1       6.762   1.049  23.812  0.00  0.00    +0.113 A 
ENDBRANCH  27  28
BRANCH  16   3
ATOM      3  O   UNL     1      -7.181   2.307  24.478  0.00  0.00    -0.391 OA
ATOM     33  H   UNL     1      -6.995   3.008  25.124  0.00  0.00    +0.210 HD
ENDBRANCH  16   3
BRANCH  13  21
ATOM     21  C   UNL     1      -4.951   2.960  26.107  0.00  0.00    +0.165 C 
BRANCH  21   4
ATOM      4  O   UNL     1      -5.893   4.010  26.126  0.00  0.00    -0.394 OA
ATOM     34  H   UNL     1      -5.657   4.640  25.425  0.00  0.00    +0.209 HD
ENDBRANCH  21   4
ENDBRANCH  13  21
BRANCH  14  24
ATOM     24  C   UNL     1      -1.860  -1.918  24.417  0.00  0.00    +0.130 C 
BRANCH  24  25
ATOM      6  O   UNL     1      -3.831  -2.957  23.427  0.00  0.00    -0.251 OA
ATOM     25  C   UNL     1      -3.123  -2.730  24.397  0.00  0.00    +0.305 C 
BRANCH  25   5
ATOM      5  O   UNL     1      -3.381  -3.197  25.646  0.00  0.00    -0.481 OA
ATOM     36  H   UNL     1      -2.883  -4.020  25.839  0.00  0.00    +0.295 HD
ENDBRANCH  25   5
ENDBRANCH  24  25
ENDBRANCH  14  24
TORSDOF 7
ENDMDL
MODEL 2
REMARK VINA RESULT:      10.2      2.237      3.934
REMARK  Name = 11883035
REMARK  9 active torsions:
REMARK  status: ('A' for Active; 'I' for Inactive)
REMARK    1  A    between atoms: O_3  and  C_16
REMARK    2  A    between atoms: O_4  and  C_21
REMARK    3  A    between atoms: O_5  and  C_25
REMARK    4  A    between atoms: C_11  and  C_19
REMARK    5  A    between atoms: C_13  and  C_21
REMARK    6  A    between atoms: C_13  and  C_22
REMARK    7  A    between atoms: C_14  and  C_24
REMARK    8  A    between atoms: C_24  and  C_25
REMARK    9  A    between atoms: C_27  and  C_28
REMARK                            x       y       z     vdW  Elec       q    Type
REMARK                         _______ _______ _______ _____ _____    ______ ____
ROOT
ATOM      2  S   UNL     1      -0.772  -0.759  24.260  0.00  0.00    -0.057 S 
ATOM      7  O   UNL     1       3.134   1.700  23.657  0.00  0.00    -0.270 OA
ATOM      8  N   UNL     1       0.215   1.629  24.126  0.00  0.00    -0.229 NA
ATOM      9  N   UNL     1       1.758  -0.203  23.856  0.00  0.00    -0.261 N 
ATOM     11  C   UNL     1      -3.389   2.988  24.315  0.00  0.00    -0.019 C 
ATOM     12  C   UNL     1      -3.889   1.762  25.200  0.00  0.00    +0.011 C 
ATOM     13  C   UNL     1      -5.430   1.697  25.526  0.00  0.00    +0.021 C 
ATOM     14  C   UNL     1      -1.803   3.100  24.479  0.00  0.00    +0.055 C 
ATOM     15  C   UNL     1      -4.029   4.299  24.840  0.00  0.00    +0.010 C 
ATOM     16  C   UNL     1      -5.916   3.099  25.993  0.00  0.00    +0.123 C 
ATOM     17  C   UNL     1      -3.296   0.415  24.693  0.00  0.00    +0.049 C 
ATOM     18  C   UNL     1      -5.537   4.217  25.028  0.00  0.00    +0.032 C 
ATOM     19  C   UNL     1      -3.741   2.829  22.815  0.00  0.00    +0.012 C 
ATOM     20  C   UNL     1      -1.146   1.752  24.336  0.00  0.00    +0.058 A 
ATOM     22  C   UNL     1      -5.656   0.712  26.709  0.00  0.00    +0.016 C 
ATOM     23  C   UNL     1      -1.831   0.559  24.455  0.00  0.00    +0.015 A 
ATOM     26  C   UNL     1       0.523   0.352  24.062  0.00  0.00    +0.165 A 
ATOM     27  C   UNL     1       2.968   0.486  23.670  0.00  0.00    +0.250 C 
ATOM     35  H   UNL     1       1.756  -1.217  23.891  0.00  0.00    +0.157 HD
ENDROOT
BRANCH  27  28
ATOM      1 CL   UNL     1       8.052   0.003  22.858  0.00  0.00    -0.062 Cl
ATOM     10  N   UNL     1       6.401  -1.970  23.180  0.00  0.00    -0.244 NA
ATOM     28  C   UNL     1       4.170  -0.373  23.498  0.00  0.00    +0.041 A 
ATOM     29  C   UNL     1       5.389   0.223  23.285  0.00  0.00    +0.053 A 
ATOM     30  C   UNL     1       4.025  -1.739  23.560  0.00  0.00    +0.033 A 
ATOM     31  C   UNL     1       6.478  -0.620  23.132  0.00  0.00    +0.130 A 
ATOM     32  C   UNL     1       5.174  -2.495  23.394  0.00  0.00    +0.113 A 
ENDBRANCH  27  28
BRANCH  16   3
ATOM      3  O   UNL     1      -7.332   3.107  26.172  0.00  0.00    -0.391 OA
ATOM     33  H   UNL     1      -7.637   4.028  26.114  0.00  0.00    +0.210 HD
ENDBRANCH  16   3
BRANCH  13  21
ATOM     21  C   UNL     1      -6.307   1.166  24.371  0.00  0.00    +0.165 C 
BRANCH  21   4
ATOM      4  O   UNL     1      -7.591   1.733  24.509  0.00  0.00    -0.394 OA
ATOM     34  H   UNL     1      -8.072   1.597  23.676  0.00  0.00    +0.209 HD
ENDBRANCH  21   4
ENDBRANCH  13  21
BRANCH  14  24
ATOM     24  C   UNL     1      -1.140   4.146  23.572  0.00  0.00    +0.130 C 
BRANCH  24  25
ATOM      6  O   UNL     1       0.434   5.907  24.176  0.00  0.00    -0.251 OA
ATOM     25  C   UNL     1      -0.612   5.305  24.367  0.00  0.00    +0.305 C 
BRANCH  25   5
ATOM      5  O   UNL     1      -1.485   5.607  25.363  0.00  0.00    -0.481 OA
ATOM     36  H   UNL     1      -1.057   5.582  26.246  0.00  0.00    +0.295 HD
ENDBRANCH  25   5
ENDBRANCH  24  25
ENDBRANCH  14  24
TORSDOF 7
ENDMDL
MODEL 3
REMARK VINA RESULT:      10.6      2.226      3.994
REMARK  Name = 11883035
REMARK  9 active torsions:
REMARK  status: ('A' for Active; 'I' for Inactive)
REMARK    1  A    between atoms: O_3  and  C_16
REMARK    2  A    between atoms: O_4  and  C_21
REMARK    3  A    between atoms: O_5  and  C_25
REMARK    4  A    between atoms: C_11  and  C_19
REMARK    5  A    between atoms: C_13  and  C_21
REMARK    6  A    between atoms: C_13  and  C_22
REMARK    7  A    between atoms: C_14  and  C_24
REMARK    8  A    between atoms: C_24  and  C_25
REMARK    9  A    between atoms: C_27  and  C_28
REMARK                            x       y       z     vdW  Elec       q    Type
REMARK                         _______ _______ _______ _____ _____    ______ ____
ROOT
ATOM      2  S   UNL     1       1.075  -1.344  23.574  0.00  0.00    -0.057 S 
ATOM      7  O   UNL     1       4.433   1.880  23.510  0.00  0.00    -0.270 OA
ATOM      8  N   UNL     1       1.580   1.179  23.852  0.00  0.00    -0.229 NA
ATOM      9  N   UNL     1       3.452  -0.257  23.358  0.00  0.00    -0.261 N 
ATOM     11  C   UNL     1      -2.220   1.778  24.114  0.00  0.00    -0.019 C 
ATOM     12  C   UNL     1      -2.479   0.354  24.778  0.00  0.00    +0.011 C 
ATOM     13  C   UNL     1      -3.980  -0.055  25.031  0.00  0.00    +0.021 C 
ATOM     14  C   UNL     1      -0.688   2.163  24.353  0.00  0.00    +0.055 C 
ATOM     15  C   UNL     1      -3.106   2.842  24.812  0.00  0.00    +0.010 C 
ATOM     16  C   UNL     1      -4.732   1.135  25.691  0.00  0.00    +0.123 C 
ATOM     17  C   UNL     1      -1.633  -0.757  24.089  0.00  0.00    +0.049 C 
ATOM     18  C   UNL     1      -4.571   2.445  24.928  0.00  0.00    +0.032 C 
ATOM     19  C   UNL     1      -2.524   1.797  22.595  0.00  0.00    +0.012 C 
ATOM     20  C   UNL     1       0.220   1.005  24.027  0.00  0.00    +0.058 A 
ATOM     22  C   UNL     1      -4.019  -1.242  26.036  0.00  0.00    +0.016 C 
ATOM     23  C   UNL     1      -0.221  -0.299  23.932  0.00  0.00    +0.015 A 
ATOM     26  C   UNL     1       2.131   0.011  23.601  0.00  0.00    +0.165 A 
ATOM     27  C   UNL     1       4.506   0.670  23.328  0.00  0.00    +0.250 C 
ATOM     35  H   UNL     1       3.646  -1.246  23.234  0.00  0.00    +0.157 HD
ENDROOT
BRANCH  27  28
ATOM      1 CL   UNL     1       9.629   0.769  24.021  0.00  0.00    -0.062 Cl
ATOM     10  N   UNL     1       8.354  -0.976  22.590  0.00  0.00    -0.244 NA
ATOM     28  C   UNL     1       5.853   0.095  23.069  0.00  0.00    +0.041 A 
ATOM     29  C   UNL     1       6.951   0.691  23.640  0.00  0.00    +0.053 A 
ATOM     30  C   UNL     1       5.958  -1.018  22.269  0.00  0.00    +0.033 A 
ATOM     31  C   UNL     1       8.183   0.117  23.369  0.00  0.00    +0.130 A 
ATOM     32  C   UNL     1       7.233  -1.515  22.059  0.00  0.00    +0.113 A 
ENDBRANCH  27  28
BRANCH  16   3
ATOM      3  O   UNL     1      -6.124   0.844  25.816  0.00  0.00    -0.391 OA
ATOM     33  H   UNL     1      -6.254   0.347  26.641  0.00  0.00    +0.210 HD
ENDBRANCH  16   3
BRANCH  13  21
ATOM     21  C   UNL     1      -4.729  -0.551  23.774  0.00  0.00    +0.165 C 
BRANCH  21   4
ATOM      4  O   UNL     1      -4.664  -1.960  23.761  0.00  0.00    -0.394 OA
ATOM     34  H   UNL     1      -4.052  -2.227  23.055  0.00  0.00    +0.209 HD
ENDBRANCH  21   4
ENDBRANCH  13  21
BRANCH  14  24
ATOM     24  C   UNL     1      -0.235   3.448  23.647  0.00  0.00    +0.130 C 
BRANCH  24  25
ATOM      6  O   UNL     1      -0.484   5.813  24.179  0.00  0.00    -0.251 OA
ATOM     25  C   UNL     1      -0.396   4.648  24.534  0.00  0.00    +0.305 C 
BRANCH  25   5
ATOM      5  O   UNL     1      -0.434   4.249  25.832  0.00  0.00    -0.481 OA
ATOM     36  H   UNL     1      -0.499   3.273  25.913  0.00  0.00    +0.295 HD
ENDBRANCH  25   5
ENDBRANCH  24  25
ENDBRANCH  14  24
TORSDOF 7
ENDMDL
MODEL 4
REMARK VINA RESULT:      11.3      1.463      1.742
REMARK  Name = 11883035
REMARK  9 active torsions:
REMARK  status: ('A' for Active; 'I' for Inactive)
REMARK    1  A    between atoms: O_3  and  C_16
REMARK    2  A    between atoms: O_4  and  C_21
REMARK    3  A    between atoms: O_5  and  C_25
REMARK    4  A    between atoms: C_11  and  C_19
REMARK    5  A    between atoms: C_13  and  C_21
REMARK    6  A    between atoms: C_13  and  C_22
REMARK    7  A    between atoms: C_14  and  C_24
REMARK    8  A    between atoms: C_24  and  C_25
REMARK    9  A    between atoms: C_27  and  C_28
REMARK                            x       y       z     vdW  Elec       q    Type
REMARK                         _______ _______ _______ _____ _____    ______ ____
ROOT
ATOM      2  S   UNL     1       0.112   2.324  25.464  0.00  0.00    -0.057 S 
ATOM      7  O   UNL     1       1.656  -0.740  22.318  0.00  0.00    -0.270 OA
ATOM      8  N   UNL     1      -0.604   0.638  23.638  0.00  0.00    -0.229 NA
ATOM      9  N   UNL     1       1.761   0.873  24.033  0.00  0.00    -0.261 N 
ATOM     11  C   UNL     1      -4.265   1.273  24.671  0.00  0.00    -0.019 C 
ATOM     12  C   UNL     1      -3.965   2.776  25.103  0.00  0.00    +0.011 C 
ATOM     13  C   UNL     1      -5.148   3.579  25.767  0.00  0.00    +0.021 C 
ATOM     14  C   UNL     1      -3.121   0.814  23.654  0.00  0.00    +0.055 C 
ATOM     15  C   UNL     1      -5.628   1.209  23.935  0.00  0.00    +0.010 C 
ATOM     16  C   UNL     1      -6.443   3.371  24.931  0.00  0.00    +0.123 C 
ATOM     17  C   UNL     1      -2.618   2.888  25.875  0.00  0.00    +0.049 C 
ATOM     18  C   UNL     1      -6.762   1.902  24.676  0.00  0.00    +0.032 C 
ATOM     19  C   UNL     1      -4.304   0.299  25.874  0.00  0.00    +0.012 C 
ATOM     20  C   UNL     1      -1.755   1.191  24.168  0.00  0.00    +0.058 A 
ATOM     22  C   UNL     1      -4.813   5.098  25.730  0.00  0.00    +0.016 C 
ATOM     23  C   UNL     1      -1.551   2.138  25.151  0.00  0.00    +0.015 A 
ATOM     26  C   UNL     1       0.439   1.155  24.249  0.00  0.00    +0.165 A 
ATOM     27  C   UNL     1       2.285  -0.037  23.100  0.00  0.00    +0.250 C 
ATOM     35  H   UNL     1       2.391   1.434  24.598  0.00  0.00    +0.157 HD
ENDROOT
BRANCH  27  28
ATOM      1 CL   UNL     1       6.741  -1.691  25.136  0.00  0.00    -0.062 Cl
ATOM     10  N   UNL     1       6.526  -0.278  22.974  0.00  0.00    -0.244 NA
ATOM     28  C   UNL     1       3.769  -0.121  23.057  0.00  0.00    +0.041 A 
ATOM     29  C   UNL     1       4.426  -0.812  24.046  0.00  0.00    +0.053 A 
ATOM     30  C   UNL     1       4.440   0.493  22.026  0.00  0.00    +0.033 A 
ATOM     31  C   UNL     1       5.808  -0.862  23.960  0.00  0.00    +0.130 A 
ATOM     32  C   UNL     1       5.821   0.386  22.030  0.00  0.00    +0.113 A 
ENDBRANCH  27  28
BRANCH  16   3
ATOM      3  O   UNL     1      -7.561   3.978  25.577  0.00  0.00    -0.391 OA
ATOM     33  H   UNL     1      -7.971   3.314  26.156  0.00  0.00    +0.210 HD
ENDBRANCH  16   3
BRANCH  13  21
ATOM     21  C   UNL     1      -5.393   3.244  27.255  0.00  0.00    +0.165 C 
BRANCH  21   4
ATOM      4  O   UNL     1      -6.407   2.266  27.316  0.00  0.00    -0.394 OA
ATOM     34  H   UNL     1      -6.022   1.454  27.686  0.00  0.00    +0.209 HD
ENDBRANCH  21   4
ENDBRANCH  13  21
BRANCH  14  24
ATOM     24  C   UNL     1      -3.180  -0.666  23.251  0.00  0.00    +0.130 C 
BRANCH  24  25
ATOM      6  O   UNL     1      -1.912  -1.536  25.142  0.00  0.00    -0.251 OA
ATOM     25  C   UNL     1      -2.897  -1.564  24.420  0.00  0.00    +0.305 C 
BRANCH  25   5
ATOM      5  O   UNL     1      -3.921  -2.444  24.573  0.00  0.00    -0.481 OA
ATOM     36  H   UNL     1      -4.754  -2.108  24.177  0.00  0.00    +0.295 HD
ENDBRANCH  25   5
ENDBRANCH  24  25
ENDBRANCH  14  24
TORSDOF 7
ENDMDL
