MODEL 1
REMARK VINA RESULT:      -4.8      0.000      0.000
REMARK  Name = 26744196
REMARK  9 active torsions:
REMARK  status: ('A' for Active; 'I' for Inactive)
REMARK    1  A    between atoms: O_1  and  C_9
REMARK    2  A    between atoms: O_3  and  C_22
REMARK    3  A    between atoms: O_3  and  C_23
REMARK    4  A    between atoms: N_4  and  C_11
REMARK    5  A    between atoms: C_7  and  C_12
REMARK    6  A    between atoms: C_11  and  C_13
REMARK    7  A    between atoms: C_14  and  C_15
REMARK    8  A    between atoms: C_15  and  C_20
REMARK    9  A    between atoms: C_15  and  C_21
REMARK                            x       y       z     vdW  Elec       q    Type
REMARK                         _______ _______ _______ _____ _____    ______ ____
ROOT
ATOM      4  N   UNL     1      -2.011  -1.169  24.794  0.00  0.00    -0.285 NA
ATOM      7  C   UNL     1      -2.908  -0.734  23.705  0.00  0.00    +0.149 C 
ATOM      8  C   UNL     1      -3.976  -1.840  23.610  0.00  0.00    +0.061 C 
ATOM      9  C   UNL     1      -3.568  -2.873  24.653  0.00  0.00    +0.130 C 
ATOM     10  C   UNL     1      -2.081  -2.628  24.832  0.00  0.00    +0.116 C 
ENDROOT
BRANCH   7  12
ATOM      2  O   UNL     1      -3.247   1.587  23.016  0.00  0.00    -0.336 OA
ATOM      5  N   UNL     1      -4.242   1.051  24.950  0.00  0.00    -0.194 NA
ATOM      6  N   UNL     1      -3.891   2.749  23.457  0.00  0.00    -0.061 NA
ATOM     12  C   UNL     1      -3.504   0.635  23.952  0.00  0.00    +0.245 A 
ATOM     14  C   UNL     1      -4.454   2.354  24.603  0.00  0.00    +0.174 A 
BRANCH  14  15
ATOM     15  C   UNL     1      -5.250   3.266  25.432  0.00  0.00    +0.054 C 
ATOM     20  C   UNL     1      -6.309   2.539  26.299  0.00  0.00    +0.015 C 
ATOM     21  C   UNL     1      -4.386   4.170  26.349  0.00  0.00    +0.015 C 
ENDBRANCH  14  15
ENDBRANCH   7  12
BRANCH   9   1
ATOM      1  O   UNL     1      -3.832  -4.184  24.193  0.00  0.00    -0.390 OA
ATOM     24  H   UNL     1      -3.114  -4.431  23.586  0.00  0.00    +0.210 HD
ENDBRANCH   9   1
BRANCH   4  11
ATOM     11  C   UNL     1      -0.643  -0.690  24.636  0.00  0.00    +0.120 C 
BRANCH  11  13
ATOM     13  C   UNL     1      -0.560   0.810  24.732  0.00  0.00    -0.033 A 
ATOM     16  C   UNL     1      -0.954   1.457  25.903  0.00  0.00    +0.008 A 
ATOM     17  C   UNL     1      -0.088   1.553  23.650  0.00  0.00    +0.008 A 
ATOM     18  C   UNL     1      -0.877   2.847  25.993  0.00  0.00    +0.046 A 
ATOM     19  C   UNL     1      -0.012   2.943  23.739  0.00  0.00    +0.046 A 
ATOM     22  C   UNL     1      -0.406   3.590  24.911  0.00  0.00    +0.120 A 
BRANCH  22   3
ATOM      3  O   UNL     1      -0.330   4.946  24.998  0.00  0.00    -0.495 OA
ATOM     23  C   UNL     1      -1.563   5.663  25.045  0.00  0.00    +0.277 C 
ENDBRANCH  22   3
ENDBRANCH  11  13
ENDBRANCH   4  11
TORSDOF 6
ENDMDL
MODEL 2
REMARK VINA RESULT:      -4.7      2.126      5.099
REMARK  Name = 26744196
REMARK  9 active torsions:
REMARK  status: ('A' for Active; 'I' for Inactive)
REMARK    1  A    between atoms: O_1  and  C_9
REMARK    2  A    between atoms: O_3  and  C_22
REMARK    3  A    between atoms: O_3  and  C_23
REMARK    4  A    between atoms: N_4  and  C_11
REMARK    5  A    between atoms: C_7  and  C_12
REMARK    6  A    between atoms: C_11  and  C_13
REMARK    7  A    between atoms: C_14  and  C_15
REMARK    8  A    between atoms: C_15  and  C_20
REMARK    9  A    between atoms: C_15  and  C_21
REMARK                            x       y       z     vdW  Elec       q    Type
REMARK                         _______ _______ _______ _____ _____    ______ ____
ROOT
ATOM      4  N   UNL     1      -3.572   3.367  25.044  0.00  0.00    -0.285 NA
ATOM      7  C   UNL     1      -4.190   2.335  25.901  0.00  0.00    +0.149 C 
ATOM      8  C   UNL     1      -5.669   2.749  26.012  0.00  0.00    +0.061 C 
ATOM      9  C   UNL     1      -5.775   4.049  25.223  0.00  0.00    +0.130 C 
ATOM     10  C   UNL     1      -4.356   4.586  25.232  0.00  0.00    +0.116 C 
ENDROOT
BRANCH   7  12
ATOM      2  O   UNL     1      -4.739   0.625  24.242  0.00  0.00    -0.336 OA
ATOM      5  N   UNL     1      -3.256  -0.038  25.785  0.00  0.00    -0.194 NA
ATOM      6  N   UNL     1      -4.414  -0.699  23.925  0.00  0.00    -0.061 NA
ATOM     12  C   UNL     1      -4.014   0.937  25.349  0.00  0.00    +0.245 A 
ATOM     14  C   UNL     1      -3.536  -1.021  24.880  0.00  0.00    +0.174 A 
BRANCH  14  15
ATOM     15  C   UNL     1      -2.914  -2.348  24.948  0.00  0.00    +0.054 C 
ATOM     20  C   UNL     1      -3.650  -3.415  24.099  0.00  0.00    +0.015 C 
ATOM     21  C   UNL     1      -1.414  -2.341  24.553  0.00  0.00    +0.015 C 
ENDBRANCH  14  15
ENDBRANCH   7  12
BRANCH   9   1
ATOM      1  O   UNL     1      -6.679   4.942  25.844  0.00  0.00    -0.390 OA
ATOM     24  H   UNL     1      -7.024   5.534  25.155  0.00  0.00    +0.210 HD
ENDBRANCH   9   1
BRANCH   4  11
ATOM     11  C   UNL     1      -2.157   3.576  25.326  0.00  0.00    +0.120 C 
BRANCH  11  13
ATOM     13  C   UNL     1      -1.291   2.560  24.631  0.00  0.00    -0.033 A 
ATOM     16  C   UNL     1      -1.715   1.986  23.432  0.00  0.00    +0.008 A 
ATOM     17  C   UNL     1      -0.066   2.192  25.185  0.00  0.00    +0.008 A 
ATOM     18  C   UNL     1      -0.913   1.044  22.787  0.00  0.00    +0.046 A 
ATOM     19  C   UNL     1       0.736   1.250  24.541  0.00  0.00    +0.046 A 
ATOM     22  C   UNL     1       0.313   0.676  23.342  0.00  0.00    +0.120 A 
BRANCH  22   3
ATOM      3  O   UNL     1       1.096  -0.242  22.712  0.00  0.00    -0.495 OA
ATOM     23  C   UNL     1       2.461   0.111  22.492  0.00  0.00    +0.277 C 
ENDBRANCH  22   3
ENDBRANCH  11  13
ENDBRANCH   4  11
TORSDOF 6
ENDMDL
MODEL 3
REMARK VINA RESULT:      -4.6      1.966      5.613
REMARK  Name = 26744196
REMARK  9 active torsions:
REMARK  status: ('A' for Active; 'I' for Inactive)
REMARK    1  A    between atoms: O_1  and  C_9
REMARK    2  A    between atoms: O_3  and  C_22
REMARK    3  A    between atoms: O_3  and  C_23
REMARK    4  A    between atoms: N_4  and  C_11
REMARK    5  A    between atoms: C_7  and  C_12
REMARK    6  A    between atoms: C_11  and  C_13
REMARK    7  A    between atoms: C_14  and  C_15
REMARK    8  A    between atoms: C_15  and  C_20
REMARK    9  A    between atoms: C_15  and  C_21
REMARK                            x       y       z     vdW  Elec       q    Type
REMARK                         _______ _______ _______ _____ _____    ______ ____
ROOT
ATOM      4  N   UNL     1      -5.075   1.889  25.279  0.00  0.00    -0.285 NA
ATOM      7  C   UNL     1      -4.539   2.677  24.150  0.00  0.00    +0.149 C 
ATOM      8  C   UNL     1      -4.878   4.139  24.495  0.00  0.00    +0.061 C 
ATOM      9  C   UNL     1      -5.643   4.067  25.811  0.00  0.00    +0.130 C 
ATOM     10  C   UNL     1      -6.195   2.654  25.824  0.00  0.00    +0.116 C 
ENDROOT
BRANCH   7  12
ATOM      2  O   UNL     1      -2.692   1.896  22.751  0.00  0.00    -0.336 OA
ATOM      5  N   UNL     1      -2.054   2.722  24.733  0.00  0.00    -0.194 NA
ATOM      6  N   UNL     1      -1.297   1.790  22.785  0.00  0.00    -0.061 NA
ATOM     12  C   UNL     1      -3.057   2.455  23.935  0.00  0.00    +0.245 A 
ATOM     14  C   UNL     1      -0.995   2.296  23.984  0.00  0.00    +0.174 A 
BRANCH  14  15
ATOM     15  C   UNL     1       0.389   2.388  24.463  0.00  0.00    +0.054 C 
ATOM     20  C   UNL     1       0.503   2.423  26.008  0.00  0.00    +0.015 C 
ATOM     21  C   UNL     1       1.301   1.257  23.919  0.00  0.00    +0.015 C 
ENDBRANCH  14  15
ENDBRANCH   7  12
BRANCH   9   1
ATOM      1  O   UNL     1      -6.674   5.034  25.847  0.00  0.00    -0.390 OA
ATOM     24  H   UNL     1      -6.947   5.203  24.929  0.00  0.00    +0.210 HD
ENDBRANCH   9   1
BRANCH   4  11
ATOM     11  C   UNL     1      -5.466   0.537  24.900  0.00  0.00    +0.120 C 
BRANCH  11  13
ATOM     13  C   UNL     1      -4.291  -0.403  24.886  0.00  0.00    -0.033 A 
ATOM     16  C   UNL     1      -3.206  -0.177  25.734  0.00  0.00    +0.008 A 
ATOM     17  C   UNL     1      -4.286  -1.501  24.027  0.00  0.00    +0.008 A 
ATOM     18  C   UNL     1      -2.117  -1.048  25.722  0.00  0.00    +0.046 A 
ATOM     19  C   UNL     1      -3.197  -2.373  24.014  0.00  0.00    +0.046 A 
ATOM     22  C   UNL     1      -2.113  -2.146  24.861  0.00  0.00    +0.120 A 
BRANCH  22   3
ATOM      3  O   UNL     1      -1.050  -2.997  24.850  0.00  0.00    -0.495 OA
ATOM     23  C   UNL     1       0.188  -2.494  25.350  0.00  0.00    +0.277 C 
ENDBRANCH  22   3
ENDBRANCH  11  13
ENDBRANCH   4  11
TORSDOF 6
ENDMDL
MODEL 4
REMARK VINA RESULT:      -3.4      2.594      4.767
REMARK  Name = 26744196
REMARK  9 active torsions:
REMARK  status: ('A' for Active; 'I' for Inactive)
REMARK    1  A    between atoms: O_1  and  C_9
REMARK    2  A    between atoms: O_3  and  C_22
REMARK    3  A    between atoms: O_3  and  C_23
REMARK    4  A    between atoms: N_4  and  C_11
REMARK    5  A    between atoms: C_7  and  C_12
REMARK    6  A    between atoms: C_11  and  C_13
REMARK    7  A    between atoms: C_14  and  C_15
REMARK    8  A    between atoms: C_15  and  C_20
REMARK    9  A    between atoms: C_15  and  C_21
REMARK                            x       y       z     vdW  Elec       q    Type
REMARK                         _______ _______ _______ _____ _____    ______ ____
ROOT
ATOM      4  N   UNL     1       0.357  -0.081  23.223  0.00  0.00    -0.285 NA
ATOM      7  C   UNL     1       1.039   0.724  24.257  0.00  0.00    +0.149 C 
ATOM      8  C   UNL     1       2.308   1.256  23.567  0.00  0.00    +0.061 C 
ATOM      9  C   UNL     1       2.275   0.660  22.165  0.00  0.00    +0.130 C 
ATOM     10  C   UNL     1       1.399  -0.569  22.322  0.00  0.00    +0.116 C 
ENDROOT
BRANCH   7  12
ATOM      2  O   UNL     1       0.127   1.961  26.158  0.00  0.00    -0.336 OA
ATOM      5  N   UNL     1      -0.580   2.696  24.164  0.00  0.00    -0.194 NA
ATOM      6  N   UNL     1      -0.736   3.031  26.422  0.00  0.00    -0.061 NA
ATOM     12  C   UNL     1       0.163   1.831  24.806  0.00  0.00    +0.245 A 
ATOM     14  C   UNL     1      -1.113   3.411  25.197  0.00  0.00    +0.174 A 
BRANCH  14  15
ATOM     15  C   UNL     1      -2.040   4.527  24.981  0.00  0.00    +0.054 C 
ATOM     20  C   UNL     1      -3.192   4.577  26.016  0.00  0.00    +0.015 C 
ATOM     21  C   UNL     1      -1.337   5.909  24.946  0.00  0.00    +0.015 C 
ENDBRANCH  14  15
ENDBRANCH   7  12
BRANCH   9   1
ATOM      1  O   UNL     1       3.579   0.324  21.731  0.00  0.00    -0.390 OA
ATOM     24  H   UNL     1       3.500  -0.443  21.138  0.00  0.00    +0.210 HD
ENDBRANCH   9   1
BRANCH   4  11
ATOM     11  C   UNL     1      -0.443  -1.167  23.776  0.00  0.00    +0.120 C 
BRANCH  11  13
ATOM     13  C   UNL     1      -1.789  -0.687  24.248  0.00  0.00    -0.033 A 
ATOM     16  C   UNL     1      -2.332  -1.188  25.431  0.00  0.00    +0.008 A 
ATOM     17  C   UNL     1      -2.494   0.258  23.504  0.00  0.00    +0.008 A 
ATOM     18  C   UNL     1      -3.580  -0.745  25.870  0.00  0.00    +0.046 A 
ATOM     19  C   UNL     1      -3.741   0.703  23.941  0.00  0.00    +0.046 A 
ATOM     22  C   UNL     1      -4.285   0.202  25.124  0.00  0.00    +0.120 A 
BRANCH  22   3
ATOM      3  O   UNL     1      -5.502   0.636  25.552  0.00  0.00    -0.495 OA
ATOM     23  C   UNL     1      -5.759   2.036  25.463  0.00  0.00    +0.277 C 
ENDBRANCH  22   3
ENDBRANCH  11  13
ENDBRANCH   4  11
TORSDOF 6
ENDMDL
MODEL 5
REMARK VINA RESULT:      -2.9      2.536      5.206
REMARK  Name = 26744196
REMARK  9 active torsions:
REMARK  status: ('A' for Active; 'I' for Inactive)
REMARK    1  A    between atoms: O_1  and  C_9
REMARK    2  A    between atoms: O_3  and  C_22
REMARK    3  A    between atoms: O_3  and  C_23
REMARK    4  A    between atoms: N_4  and  C_11
REMARK    5  A    between atoms: C_7  and  C_12
REMARK    6  A    between atoms: C_11  and  C_13
REMARK    7  A    between atoms: C_14  and  C_15
REMARK    8  A    between atoms: C_15  and  C_20
REMARK    9  A    between atoms: C_15  and  C_21
REMARK                            x       y       z     vdW  Elec       q    Type
REMARK                         _______ _______ _______ _____ _____    ______ ____
ROOT
ATOM      4  N   UNL     1      -2.498  -0.588  23.470  0.00  0.00    -0.285 NA
ATOM      7  C   UNL     1      -1.649  -0.100  24.575  0.00  0.00    +0.149 C 
ATOM      8  C   UNL     1      -1.661  -1.237  25.613  0.00  0.00    +0.061 C 
ATOM      9  C   UNL     1      -2.581  -2.299  25.023  0.00  0.00    +0.130 C 
ATOM     10  C   UNL     1      -3.458  -1.517  24.064  0.00  0.00    +0.116 C 
ENDROOT
BRANCH   7  12
ATOM      2  O   UNL     1       0.154   1.537  24.354  0.00  0.00    -0.336 OA
ATOM      5  N   UNL     1       0.645  -0.483  23.519  0.00  0.00    -0.194 NA
ATOM      6  N   UNL     1       1.457   1.630  23.851  0.00  0.00    -0.061 NA
ATOM     12  C   UNL     1      -0.251   0.261  24.119  0.00  0.00    +0.245 A 
ATOM     14  C   UNL     1       1.675   0.400  23.375  0.00  0.00    +0.174 A 
BRANCH  14  15
ATOM     15  C   UNL     1       2.943   0.027  22.739  0.00  0.00    +0.054 C 
ATOM     20  C   UNL     1       3.908   1.224  22.545  0.00  0.00    +0.015 C 
ATOM     21  C   UNL     1       3.693  -1.105  23.487  0.00  0.00    +0.015 C 
ENDBRANCH  14  15
ENDBRANCH   7  12
BRANCH   9   1
ATOM      1  O   UNL     1      -3.342  -2.925  26.039  0.00  0.00    -0.390 OA
ATOM     24  H   UNL     1      -2.794  -3.634  26.418  0.00  0.00    +0.210 HD
ENDBRANCH   9   1
BRANCH   4  11
ATOM     11  C   UNL     1      -3.157   0.485  22.735  0.00  0.00    +0.120 C 
BRANCH  11  13
ATOM     13  C   UNL     1      -3.810   1.478  23.658  0.00  0.00    -0.033 A 
ATOM     16  C   UNL     1      -4.845   1.071  24.501  0.00  0.00    +0.008 A 
ATOM     17  C   UNL     1      -3.381   2.805  23.672  0.00  0.00    +0.008 A 
ATOM     18  C   UNL     1      -5.451   1.991  25.357  0.00  0.00    +0.046 A 
ATOM     19  C   UNL     1      -3.987   3.725  24.527  0.00  0.00    +0.046 A 
ATOM     22  C   UNL     1      -5.021   3.318  25.370  0.00  0.00    +0.120 A 
BRANCH  22   3
ATOM      3  O   UNL     1      -5.611   4.216  26.206  0.00  0.00    -0.495 OA
ATOM     23  C   UNL     1      -6.288   5.317  25.601  0.00  0.00    +0.277 C 
ENDBRANCH  22   3
ENDBRANCH  11  13
ENDBRANCH   4  11
TORSDOF 6
ENDMDL
MODEL 6
REMARK VINA RESULT:      -2.9      2.670      6.759
REMARK  Name = 26744196
REMARK  9 active torsions:
REMARK  status: ('A' for Active; 'I' for Inactive)
REMARK    1  A    between atoms: O_1  and  C_9
REMARK    2  A    between atoms: O_3  and  C_22
REMARK    3  A    between atoms: O_3  and  C_23
REMARK    4  A    between atoms: N_4  and  C_11
REMARK    5  A    between atoms: C_7  and  C_12
REMARK    6  A    between atoms: C_11  and  C_13
REMARK    7  A    between atoms: C_14  and  C_15
REMARK    8  A    between atoms: C_15  and  C_20
REMARK    9  A    between atoms: C_15  and  C_21
REMARK                            x       y       z     vdW  Elec       q    Type
REMARK                         _______ _______ _______ _____ _____    ______ ____
ROOT
ATOM      4  N   UNL     1      -0.349   1.956  25.726  0.00  0.00    -0.285 NA
ATOM      7  C   UNL     1      -0.538   1.819  24.267  0.00  0.00    +0.149 C 
ATOM      8  C   UNL     1      -0.645   3.264  23.747  0.00  0.00    +0.061 C 
ATOM      9  C   UNL     1      -0.551   4.139  24.991  0.00  0.00    +0.130 C 
ATOM     10  C   UNL     1      -0.987   3.213  26.110  0.00  0.00    +0.116 C 
ENDROOT
BRANCH   7  12
ATOM      2  O   UNL     1       0.208   0.109  22.686  0.00  0.00    -0.336 OA
ATOM      5  N   UNL     1       1.872   1.125  23.789  0.00  0.00    -0.194 NA
ATOM      6  N   UNL     1       1.393  -0.473  22.222  0.00  0.00    -0.061 NA
ATOM     12  C   UNL     1       0.579   1.039  23.606  0.00  0.00    +0.245 A 
ATOM     14  C   UNL     1       2.330   0.178  22.919  0.00  0.00    +0.174 A 
BRANCH  14  15
ATOM     15  C   UNL     1       3.759  -0.110  22.757  0.00  0.00    +0.054 C 
ATOM     20  C   UNL     1       4.666   1.124  23.000  0.00  0.00    +0.015 C 
ATOM     21  C   UNL     1       4.254  -1.279  23.648  0.00  0.00    +0.015 C 
ENDBRANCH  14  15
ENDBRANCH   7  12
BRANCH   9   1
ATOM      1  O   UNL     1      -1.400   5.265  24.879  0.00  0.00    -0.390 OA
ATOM     24  H   UNL     1      -1.108   5.774  24.104  0.00  0.00    +0.210 HD
ENDBRANCH   9   1
BRANCH   4  11
ATOM     11  C   UNL     1      -0.870   0.823  26.481  0.00  0.00    +0.120 C 
BRANCH  11  13
ATOM     13  C   UNL     1      -1.865   0.026  25.681  0.00  0.00    -0.033 A 
ATOM     16  C   UNL     1      -1.585  -1.296  25.337  0.00  0.00    +0.008 A 
ATOM     17  C   UNL     1      -3.068   0.609  25.285  0.00  0.00    +0.008 A 
ATOM     18  C   UNL     1      -2.507  -2.035  24.595  0.00  0.00    +0.046 A 
ATOM     19  C   UNL     1      -3.991  -0.129  24.543  0.00  0.00    +0.046 A 
ATOM     22  C   UNL     1      -3.710  -1.451  24.199  0.00  0.00    +0.120 A 
BRANCH  22   3
ATOM      3  O   UNL     1      -4.611  -2.172  23.476  0.00  0.00    -0.495 OA
ATOM     23  C   UNL     1      -4.438  -3.589  23.453  0.00  0.00    +0.277 C 
ENDBRANCH  22   3
ENDBRANCH  11  13
ENDBRANCH   4  11
TORSDOF 6
ENDMDL
MODEL 7
REMARK VINA RESULT:      -2.7      2.020      4.812
REMARK  Name = 26744196
REMARK  9 active torsions:
REMARK  status: ('A' for Active; 'I' for Inactive)
REMARK    1  A    between atoms: O_1  and  C_9
REMARK    2  A    between atoms: O_3  and  C_22
REMARK    3  A    between atoms: O_3  and  C_23
REMARK    4  A    between atoms: N_4  and  C_11
REMARK    5  A    between atoms: C_7  and  C_12
REMARK    6  A    between atoms: C_11  and  C_13
REMARK    7  A    between atoms: C_14  and  C_15
REMARK    8  A    between atoms: C_15  and  C_20
REMARK    9  A    between atoms: C_15  and  C_21
REMARK                            x       y       z     vdW  Elec       q    Type
REMARK                         _______ _______ _______ _____ _____    ______ ____
ROOT
ATOM      4  N   UNL     1      -4.091   3.029  24.020  0.00  0.00    -0.285 NA
ATOM      7  C   UNL     1      -4.043   2.215  25.252  0.00  0.00    +0.149 C 
ATOM      8  C   UNL     1      -5.299   2.624  26.042  0.00  0.00    +0.061 C 
ATOM      9  C   UNL     1      -5.964   3.704  25.197  0.00  0.00    +0.130 C 
ATOM     10  C   UNL     1      -4.824   4.248  24.356  0.00  0.00    +0.116 C 
ENDROOT
BRANCH   7  12
ATOM      2  O   UNL     1      -5.013   0.212  24.240  0.00  0.00    -0.336 OA
ATOM      5  N   UNL     1      -3.087  -0.151  25.323  0.00  0.00    -0.194 NA
ATOM      6  N   UNL     1      -4.747  -1.156  24.111  0.00  0.00    -0.061 NA
ATOM     12  C   UNL     1      -3.988   0.729  24.967  0.00  0.00    +0.245 A 
ATOM     14  C   UNL     1      -3.595  -1.293  24.775  0.00  0.00    +0.174 A 
BRANCH  14  15
ATOM     15  C   UNL     1      -2.923  -2.590  24.906  0.00  0.00    +0.054 C 
ATOM     20  C   UNL     1      -3.578  -3.709  24.056  0.00  0.00    +0.015 C 
ATOM     21  C   UNL     1      -1.409  -2.531  24.575  0.00  0.00    +0.015 C 
ENDBRANCH  14  15
ENDBRANCH   7  12
BRANCH   9   1
ATOM      1  O   UNL     1      -6.535   4.704  26.018  0.00  0.00    -0.390 OA
ATOM     24  H   UNL     1      -6.398   4.436  26.942  0.00  0.00    +0.210 HD
ENDBRANCH   9   1
BRANCH   4  11
ATOM     11  C   UNL     1      -2.771   3.317  23.471  0.00  0.00    +0.120 C 
BRANCH  11  13
ATOM     13  C   UNL     1      -1.680   3.076  24.479  0.00  0.00    -0.033 A 
ATOM     16  C   UNL     1      -1.710   3.732  25.710  0.00  0.00    +0.008 A 
ATOM     17  C   UNL     1      -0.638   2.197  24.183  0.00  0.00    +0.008 A 
ATOM     18  C   UNL     1      -0.699   3.509  26.644  0.00  0.00    +0.046 A 
ATOM     19  C   UNL     1       0.373   1.974  25.117  0.00  0.00    +0.046 A 
ATOM     22  C   UNL     1       0.343   2.630  26.348  0.00  0.00    +0.120 A 
BRANCH  22   3
ATOM      3  O   UNL     1       1.330   2.412  27.260  0.00  0.00    -0.495 OA
ATOM     23  C   UNL     1       0.962   2.467  28.638  0.00  0.00    +0.277 C 
ENDBRANCH  22   3
ENDBRANCH  11  13
ENDBRANCH   4  11
TORSDOF 6
ENDMDL
MODEL 8
REMARK VINA RESULT:      -2.5      1.756      5.370
REMARK  Name = 26744196
REMARK  9 active torsions:
REMARK  status: ('A' for Active; 'I' for Inactive)
REMARK    1  A    between atoms: O_1  and  C_9
REMARK    2  A    between atoms: O_3  and  C_22
REMARK    3  A    between atoms: O_3  and  C_23
REMARK    4  A    between atoms: N_4  and  C_11
REMARK    5  A    between atoms: C_7  and  C_12
REMARK    6  A    between atoms: C_11  and  C_13
REMARK    7  A    between atoms: C_14  and  C_15
REMARK    8  A    between atoms: C_15  and  C_20
REMARK    9  A    between atoms: C_15  and  C_21
REMARK                            x       y       z     vdW  Elec       q    Type
REMARK                         _______ _______ _______ _____ _____    ______ ____
ROOT
ATOM      4  N   UNL     1      -0.828   2.443  24.758  0.00  0.00    -0.285 NA
ATOM      7  C   UNL     1      -1.355   3.614  25.488  0.00  0.00    +0.149 C 
ATOM      8  C   UNL     1      -0.997   4.823  24.604  0.00  0.00    +0.061 C 
ATOM      9  C   UNL     1      -0.230   4.236  23.425  0.00  0.00    +0.130 C 
ATOM     10  C   UNL     1       0.303   2.923  23.966  0.00  0.00    +0.116 C 
ENDROOT
BRANCH   7  12
ATOM      2  O   UNL     1      -3.356   4.391  26.659  0.00  0.00    -0.336 OA
ATOM      5  N   UNL     1      -3.721   2.682  25.258  0.00  0.00    -0.194 NA
ATOM      6  N   UNL     1      -4.723   4.103  26.746  0.00  0.00    -0.061 NA
ATOM     12  C   UNL     1      -2.841   3.510  25.762  0.00  0.00    +0.245 A 
ATOM     14  C   UNL     1      -4.861   3.084  25.892  0.00  0.00    +0.174 A 
BRANCH  14  15
ATOM     15  C   UNL     1      -6.158   2.441  25.653  0.00  0.00    +0.054 C 
ATOM     20  C   UNL     1      -6.148   1.469  24.446  0.00  0.00    +0.015 C 
ATOM     21  C   UNL     1      -6.708   1.692  26.895  0.00  0.00    +0.015 C 
ENDBRANCH  14  15
ENDBRANCH   7  12
BRANCH   9   1
ATOM      1  O   UNL     1       0.814   5.101  23.023  0.00  0.00    -0.390 OA
ATOM     24  H   UNL     1       0.466   5.670  22.316  0.00  0.00    +0.210 HD
ENDBRANCH   9   1
BRANCH   4  11
ATOM     11  C   UNL     1      -0.455   1.340  25.635  0.00  0.00    +0.120 C 
BRANCH  11  13
ATOM     13  C   UNL     1      -1.252   0.097  25.342  0.00  0.00    -0.033 A 
ATOM     16  C   UNL     1      -0.615  -1.036  24.836  0.00  0.00    +0.008 A 
ATOM     17  C   UNL     1      -2.626   0.078  25.576  0.00  0.00    +0.008 A 
ATOM     18  C   UNL     1      -1.352  -2.188  24.564  0.00  0.00    +0.046 A 
ATOM     19  C   UNL     1      -3.364  -1.074  25.303  0.00  0.00    +0.046 A 
ATOM     22  C   UNL     1      -2.727  -2.207  24.798  0.00  0.00    +0.120 A 
BRANCH  22   3
ATOM      3  O   UNL     1      -3.447  -3.332  24.533  0.00  0.00    -0.495 OA
ATOM     23  C   UNL     1      -4.552  -3.199  23.639  0.00  0.00    +0.277 C 
ENDBRANCH  22   3
ENDBRANCH  11  13
ENDBRANCH   4  11
TORSDOF 6
ENDMDL
MODEL 9
REMARK VINA RESULT:      -2.5      2.574      3.782
REMARK  Name = 26744196
REMARK  9 active torsions:
REMARK  status: ('A' for Active; 'I' for Inactive)
REMARK    1  A    between atoms: O_1  and  C_9
REMARK    2  A    between atoms: O_3  and  C_22
REMARK    3  A    between atoms: O_3  and  C_23
REMARK    4  A    between atoms: N_4  and  C_11
REMARK    5  A    between atoms: C_7  and  C_12
REMARK    6  A    between atoms: C_11  and  C_13
REMARK    7  A    between atoms: C_14  and  C_15
REMARK    8  A    between atoms: C_15  and  C_20
REMARK    9  A    between atoms: C_15  and  C_21
REMARK                            x       y       z     vdW  Elec       q    Type
REMARK                         _______ _______ _______ _____ _____    ______ ____
ROOT
ATOM      4  N   UNL     1      -1.730  -0.370  24.106  0.00  0.00    -0.285 NA
ATOM      7  C   UNL     1      -3.055   0.259  24.278  0.00  0.00    +0.149 C 
ATOM      8  C   UNL     1      -3.788  -0.639  25.291  0.00  0.00    +0.061 C 
ATOM      9  C   UNL     1      -2.813  -1.770  25.593  0.00  0.00    +0.130 C 
ATOM     10  C   UNL     1      -1.909  -1.795  24.375  0.00  0.00    +0.116 C 
ENDROOT
BRANCH   7  12
ATOM      2  O   UNL     1      -4.092   2.248  25.251  0.00  0.00    -0.336 OA
ATOM      5  N   UNL     1      -1.937   2.515  24.704  0.00  0.00    -0.194 NA
ATOM      6  N   UNL     1      -3.765   3.565  25.594  0.00  0.00    -0.061 NA
ATOM     12  C   UNL     1      -2.961   1.700  24.734  0.00  0.00    +0.245 A 
ATOM     14  C   UNL     1      -2.478   3.647  25.241  0.00  0.00    +0.174 A 
BRANCH  14  15
ATOM     15  C   UNL     1      -1.700   4.877  25.421  0.00  0.00    +0.054 C 
ATOM     20  C   UNL     1      -0.286   4.807  24.791  0.00  0.00    +0.015 C 
ATOM     21  C   UNL     1      -2.423   6.142  24.889  0.00  0.00    +0.015 C 
ENDBRANCH  14  15
ENDBRANCH   7  12
BRANCH   9   1
ATOM      1  O   UNL     1      -3.500  -2.995  25.763  0.00  0.00    -0.390 OA
ATOM     24  H   UNL     1      -4.452  -2.797  25.763  0.00  0.00    +0.210 HD
ENDBRANCH   9   1
BRANCH   4  11
ATOM     11  C   UNL     1      -1.147  -0.130  22.791  0.00  0.00    +0.120 C 
BRANCH  11  13
ATOM     13  C   UNL     1       0.319   0.202  22.881  0.00  0.00    -0.033 A 
ATOM     16  C   UNL     1       1.240  -0.490  22.093  0.00  0.00    +0.008 A 
ATOM     17  C   UNL     1       0.757   1.200  23.751  0.00  0.00    +0.008 A 
ATOM     18  C   UNL     1       2.598  -0.183  22.176  0.00  0.00    +0.046 A 
ATOM     19  C   UNL     1       2.115   1.507  23.834  0.00  0.00    +0.046 A 
ATOM     22  C   UNL     1       3.036   0.816  23.046  0.00  0.00    +0.120 A 
BRANCH  22   3
ATOM      3  O   UNL     1       4.361   1.116  23.126  0.00  0.00    -0.495 OA
ATOM     23  C   UNL     1       5.252   0.041  23.424  0.00  0.00    +0.277 C 
ENDBRANCH  22   3
ENDBRANCH  11  13
ENDBRANCH   4  11
TORSDOF 6
ENDMDL
MODEL 10
REMARK VINA RESULT:      -2.3      1.978      3.842
REMARK  Name = 26744196
REMARK  9 active torsions:
REMARK  status: ('A' for Active; 'I' for Inactive)
REMARK    1  A    between atoms: O_1  and  C_9
REMARK    2  A    between atoms: O_3  and  C_22
REMARK    3  A    between atoms: O_3  and  C_23
REMARK    4  A    between atoms: N_4  and  C_11
REMARK    5  A    between atoms: C_7  and  C_12
REMARK    6  A    between atoms: C_11  and  C_13
REMARK    7  A    between atoms: C_14  and  C_15
REMARK    8  A    between atoms: C_15  and  C_20
REMARK    9  A    between atoms: C_15  and  C_21
REMARK                            x       y       z     vdW  Elec       q    Type
REMARK                         _______ _______ _______ _____ _____    ______ ____
ROOT
ATOM      4  N   UNL     1      -2.095  -1.248  24.258  0.00  0.00    -0.285 NA
ATOM      7  C   UNL     1      -1.579  -0.560  25.458  0.00  0.00    +0.149 C 
ATOM      8  C   UNL     1      -0.360  -1.392  25.895  0.00  0.00    +0.061 C 
ATOM      9  C   UNL     1      -0.299  -2.551  24.907  0.00  0.00    +0.130 C 
ATOM     10  C   UNL     1      -1.722  -2.655  24.393  0.00  0.00    +0.116 C 
ENDROOT
BRANCH   7  12
ATOM      2  O   UNL     1      -0.493   1.147  24.086  0.00  0.00    -0.336 OA
ATOM      5  N   UNL     1      -1.545   1.956  25.891  0.00  0.00    -0.194 NA
ATOM      6  N   UNL     1      -0.303   2.534  24.058  0.00  0.00    -0.061 NA
ATOM     12  C   UNL     1      -1.234   0.890  25.196  0.00  0.00    +0.245 A 
ATOM     14  C   UNL     1      -0.951   2.939  25.154  0.00  0.00    +0.174 A 
BRANCH  14  15
ATOM     15  C   UNL     1      -1.019   4.354  25.537  0.00  0.00    +0.054 C 
ATOM     20  C   UNL     1      -0.624   5.320  24.391  0.00  0.00    +0.015 C 
ATOM     21  C   UNL     1      -2.406   4.773  26.090  0.00  0.00    +0.015 C 
ENDBRANCH  14  15
ENDBRANCH   7  12
BRANCH   9   1
ATOM      1  O   UNL     1       0.115  -3.740  25.552  0.00  0.00    -0.390 OA
ATOM     24  H   UNL     1       0.788  -3.497  26.210  0.00  0.00    +0.210 HD
ENDBRANCH   9   1
BRANCH   4  11
ATOM     11  C   UNL     1      -3.531  -1.077  24.070  0.00  0.00    +0.120 C 
BRANCH  11  13
ATOM     13  C   UNL     1      -3.946   0.364  24.206  0.00  0.00    -0.033 A 
ATOM     16  C   UNL     1      -3.549   1.297  23.248  0.00  0.00    +0.008 A 
ATOM     17  C   UNL     1      -4.728   0.766  25.288  0.00  0.00    +0.008 A 
ATOM     18  C   UNL     1      -3.933   2.632  23.373  0.00  0.00    +0.046 A 
ATOM     19  C   UNL     1      -5.112   2.101  25.414  0.00  0.00    +0.046 A 
ATOM     22  C   UNL     1      -4.715   3.034  24.456  0.00  0.00    +0.120 A 
BRANCH  22   3
ATOM      3  O   UNL     1      -5.091   4.337  24.578  0.00  0.00    -0.495 OA
ATOM     23  C   UNL     1      -6.064   4.640  25.577  0.00  0.00    +0.277 C 
ENDBRANCH  22   3
ENDBRANCH  11  13
ENDBRANCH   4  11
TORSDOF 6
ENDMDL
