MODEL 1
REMARK VINA RESULT:      -4.8      0.000      0.000
REMARK  Name = 40777891
REMARK  10 active torsions:
REMARK  status: ('A' for Active; 'I' for Inactive)
REMARK    1  A    between atoms: O_3  and  C_11
REMARK    2  A    between atoms: O_4  and  C_12
REMARK    3  A    between atoms: O_5  and  C_21
REMARK    4  A    between atoms: O_5  and  C_23
REMARK    5  A    between atoms: N_9  and  C_20
REMARK    6  A    between atoms: C_10  and  C_15
REMARK    7  A    between atoms: C_13  and  C_20
REMARK    8  A    between atoms: C_14  and  C_21
REMARK    9  A    between atoms: C_15  and  C_19
REMARK   10  A    between atoms: C_22  and  C_24
REMARK                            x       y       z     vdW  Elec       q    Type
REMARK                         _______ _______ _______ _____ _____    ______ ____
ROOT
ATOM      2  O   UNL     1      -3.180   3.746  26.683  0.00  0.00    -0.366 OA
ATOM     10  C   UNL     1      -1.835   3.860  26.166  0.00  0.00    +0.159 C 
ATOM     11  C   UNL     1      -1.951   4.562  24.817  0.00  0.00    +0.175 C 
ATOM     12  C   UNL     1      -3.336   4.147  24.365  0.00  0.00    +0.176 C 
ATOM     13  C   UNL     1      -4.107   4.182  25.673  0.00  0.00    +0.167 C 
ENDROOT
BRANCH  11   3
ATOM      3  O   UNL     1      -1.906   5.970  25.046  0.00  0.00    -0.387 OA
ATOM     30  H   UNL     1      -1.039   6.288  24.741  0.00  0.00    +0.210 HD
ENDBRANCH  11   3
BRANCH  12   4
ATOM      4  O   UNL     1      -3.891   5.013  23.398  0.00  0.00    -0.387 OA
ATOM     31  H   UNL     1      -3.975   5.891  23.806  0.00  0.00    +0.210 HD
ENDBRANCH  12   4
BRANCH  10  15
ATOM     15  C   UNL     1      -1.254   2.457  26.060  0.00  0.00    +0.130 C 
BRANCH  15  19
ATOM      6  O   UNL     1       0.175   3.402  24.406  0.00  0.00    -0.276 OA
ATOM      8  N   UNL     1      -0.072   1.101  24.398  0.00  0.00    -0.296 N 
ATOM     14  C   UNL     1       0.734   0.850  23.202  0.00  0.00    +0.102 C 
ATOM     16  C   UNL     1       0.372  -0.585  22.814  0.00  0.00    +0.026 C 
ATOM     17  C   UNL     1      -0.634  -0.139  24.928  0.00  0.00    +0.108 C 
ATOM     18  C   UNL     1       0.064  -1.246  24.152  0.00  0.00    +0.021 C 
ATOM     19  C   UNL     1      -0.319   2.376  24.879  0.00  0.00    +0.218 C 
BRANCH  14  21
ATOM     21  C   UNL     1       2.224   1.012  23.488  0.00  0.00    +0.181 C 
BRANCH  21   5
ATOM      5  O   UNL     1       2.952   0.364  22.462  0.00  0.00    -0.381 OA
ATOM     23  C   UNL     1       4.354   0.400  22.704  0.00  0.00    +0.194 C 
ENDBRANCH  21   5
ENDBRANCH  14  21
ENDBRANCH  15  19
ENDBRANCH  10  15
BRANCH  13  20
ATOM     20  C   UNL     1      -5.328   3.278  25.675  0.00  0.00    +0.138 C 
BRANCH  20   9
ATOM      7  O   UNL     1      -4.174   1.783  23.513  0.00  0.00    -0.270 OA
ATOM      9  N   UNL     1      -4.951   1.897  25.697  0.00  0.00    -0.309 N 
ATOM     22  C   UNL     1      -4.395   1.248  24.596  0.00  0.00    +0.244 C 
ATOM     32  H   UNL     1      -5.056   1.407  26.579  0.00  0.00    +0.149 HD
BRANCH  22  24
ATOM      1  F   UNL     1      -4.330  -3.319  22.927  0.00  0.00    -0.205 F 
ATOM     24  C   UNL     1      -4.083  -0.194  24.773  0.00  0.00    +0.039 A 
ATOM     25  C   UNL     1      -4.359  -1.098  23.747  0.00  0.00    +0.051 A 
ATOM     26  C   UNL     1      -3.515  -0.644  25.965  0.00  0.00    +0.013 A 
ATOM     27  C   UNL     1      -4.065  -2.451  23.913  0.00  0.00    +0.124 A 
ATOM     28  C   UNL     1      -3.222  -1.997  26.131  0.00  0.00    +0.004 A 
ATOM     29  C   UNL     1      -3.497  -2.901  25.105  0.00  0.00    +0.038 A 
ENDBRANCH  22  24
ENDBRANCH  20   9
ENDBRANCH  13  20
TORSDOF 9
ENDMDL
MODEL 2
REMARK VINA RESULT:      -4.1      2.794      6.869
REMARK  Name = 40777891
REMARK  10 active torsions:
REMARK  status: ('A' for Active; 'I' for Inactive)
REMARK    1  A    between atoms: O_3  and  C_11
REMARK    2  A    between atoms: O_4  and  C_12
REMARK    3  A    between atoms: O_5  and  C_21
REMARK    4  A    between atoms: O_5  and  C_23
REMARK    5  A    between atoms: N_9  and  C_20
REMARK    6  A    between atoms: C_10  and  C_15
REMARK    7  A    between atoms: C_13  and  C_20
REMARK    8  A    between atoms: C_14  and  C_21
REMARK    9  A    between atoms: C_15  and  C_19
REMARK   10  A    between atoms: C_22  and  C_24
REMARK                            x       y       z     vdW  Elec       q    Type
REMARK                         _______ _______ _______ _____ _____    ______ ____
ROOT
ATOM      2  O   UNL     1      -2.512  -0.071  25.453  0.00  0.00    -0.366 OA
ATOM     10  C   UNL     1      -3.660  -0.941  25.570  0.00  0.00    +0.159 C 
ATOM     11  C   UNL     1      -3.245  -2.282  24.973  0.00  0.00    +0.175 C 
ATOM     12  C   UNL     1      -2.205  -1.864  23.954  0.00  0.00    +0.176 C 
ATOM     13  C   UNL     1      -1.495  -0.740  24.687  0.00  0.00    +0.167 C 
ENDROOT
BRANCH  11   3
ATOM      3  O   UNL     1      -2.641  -3.059  26.007  0.00  0.00    -0.387 OA
ATOM     30  H   UNL     1      -1.713  -2.779  26.078  0.00  0.00    +0.210 HD
ENDBRANCH  11   3
BRANCH  12   4
ATOM      4  O   UNL     1      -1.322  -2.906  23.598  0.00  0.00    -0.387 OA
ATOM     31  H   UNL     1      -1.423  -3.614  24.257  0.00  0.00    +0.210 HD
ENDBRANCH  12   4
BRANCH  10  15
ATOM     15  C   UNL     1      -4.818  -0.291  24.826  0.00  0.00    +0.130 C 
BRANCH  15  19
ATOM      6  O   UNL     1      -5.586   1.440  26.269  0.00  0.00    -0.276 OA
ATOM      8  N   UNL     1      -4.338   2.077  24.427  0.00  0.00    -0.296 N 
ATOM     14  C   UNL     1      -4.454   3.521  24.639  0.00  0.00    +0.102 C 
ATOM     16  C   UNL     1      -4.013   4.121  23.301  0.00  0.00    +0.026 C 
ATOM     17  C   UNL     1      -3.584   1.778  23.212  0.00  0.00    +0.108 C 
ATOM     18  C   UNL     1      -2.995   3.113  22.781  0.00  0.00    +0.021 C 
ATOM     19  C   UNL     1      -4.957   1.150  25.249  0.00  0.00    +0.218 C 
BRANCH  14  21
ATOM     21  C   UNL     1      -3.577   3.989  25.797  0.00  0.00    +0.181 C 
BRANCH  21   5
ATOM      5  O   UNL     1      -2.292   4.298  25.292  0.00  0.00    -0.381 OA
ATOM     23  C   UNL     1      -1.294   3.432  25.821  0.00  0.00    +0.194 C 
ENDBRANCH  21   5
ENDBRANCH  14  21
ENDBRANCH  15  19
ENDBRANCH  10  15
BRANCH  13  20
ATOM     20  C   UNL     1      -0.820   0.253  23.757  0.00  0.00    +0.138 C 
BRANCH  20   9
ATOM      7  O   UNL     1       1.060  -0.265  21.650  0.00  0.00    -0.270 OA
ATOM      9  N   UNL     1       0.606   0.192  23.879  0.00  0.00    -0.309 N 
ATOM     22  C   UNL     1       1.446  -0.066  22.799  0.00  0.00    +0.244 C 
ATOM     32  H   UNL     1       0.996   0.401  24.792  0.00  0.00    +0.149 HD
BRANCH  22  24
ATOM      1  F   UNL     1       5.393  -2.505  24.258  0.00  0.00    -0.205 F 
ATOM     24  C   UNL     1       2.901  -0.123  23.097  0.00  0.00    +0.039 A 
ATOM     25  C   UNL     1       3.475  -1.311  23.547  0.00  0.00    +0.051 A 
ATOM     26  C   UNL     1       3.692   1.014  22.926  0.00  0.00    +0.013 A 
ATOM     27  C   UNL     1       4.841  -1.363  23.826  0.00  0.00    +0.124 A 
ATOM     28  C   UNL     1       5.057   0.962  23.205  0.00  0.00    +0.004 A 
ATOM     29  C   UNL     1       5.632  -0.227  23.655  0.00  0.00    +0.038 A 
ENDBRANCH  22  24
ENDBRANCH  20   9
ENDBRANCH  13  20
TORSDOF 9
ENDMDL
MODEL 3
REMARK VINA RESULT:      -3.6      2.536      5.952
REMARK  Name = 40777891
REMARK  10 active torsions:
REMARK  status: ('A' for Active; 'I' for Inactive)
REMARK    1  A    between atoms: O_3  and  C_11
REMARK    2  A    between atoms: O_4  and  C_12
REMARK    3  A    between atoms: O_5  and  C_21
REMARK    4  A    between atoms: O_5  and  C_23
REMARK    5  A    between atoms: N_9  and  C_20
REMARK    6  A    between atoms: C_10  and  C_15
REMARK    7  A    between atoms: C_13  and  C_20
REMARK    8  A    between atoms: C_14  and  C_21
REMARK    9  A    between atoms: C_15  and  C_19
REMARK   10  A    between atoms: C_22  and  C_24
REMARK                            x       y       z     vdW  Elec       q    Type
REMARK                         _______ _______ _______ _____ _____    ______ ____
ROOT
ATOM      2  O   UNL     1      -2.248   2.737  23.447  0.00  0.00    -0.366 OA
ATOM     10  C   UNL     1      -3.072   3.093  24.580  0.00  0.00    +0.159 C 
ATOM     11  C   UNL     1      -2.149   3.111  25.794  0.00  0.00    +0.175 C 
ATOM     12  C   UNL     1      -1.092   2.099  25.401  0.00  0.00    +0.176 C 
ATOM     13  C   UNL     1      -0.935   2.384  23.917  0.00  0.00    +0.167 C 
ENDROOT
BRANCH  11   3
ATOM      3  O   UNL     1      -1.574   4.414  25.894  0.00  0.00    -0.387 OA
ATOM     30  H   UNL     1      -1.639   4.829  25.017  0.00  0.00    +0.210 HD
ENDBRANCH  11   3
BRANCH  12   4
ATOM      4  O   UNL     1       0.122   2.258  26.103  0.00  0.00    -0.387 OA
ATOM     31  H   UNL     1       0.046   3.065  26.640  0.00  0.00    +0.210 HD
ENDBRANCH  12   4
BRANCH  10  15
ATOM     15  C   UNL     1      -4.184   2.060  24.693  0.00  0.00    +0.130 C 
BRANCH  15  19
ATOM      6  O   UNL     1      -3.659   0.835  22.720  0.00  0.00    -0.276 OA
ATOM      8  N   UNL     1      -3.628  -0.325  24.723  0.00  0.00    -0.296 N 
ATOM     14  C   UNL     1      -3.350  -1.642  24.148  0.00  0.00    +0.102 C 
ATOM     16  C   UNL     1      -3.674  -2.612  25.287  0.00  0.00    +0.026 C 
ATOM     17  C   UNL     1      -3.787  -0.402  26.173  0.00  0.00    +0.108 C 
ATOM     18  C   UNL     1      -3.340  -1.809  26.539  0.00  0.00    +0.021 C 
ATOM     19  C   UNL     1      -3.802   0.808  23.944  0.00  0.00    +0.218 C 
BRANCH  14  21
ATOM     21  C   UNL     1      -1.898  -1.757  23.689  0.00  0.00    +0.181 C 
BRANCH  21   5
ATOM      5  O   UNL     1      -1.181  -2.505  24.652  0.00  0.00    -0.381 OA
ATOM     23  C   UNL     1      -0.213  -1.709  25.326  0.00  0.00    +0.194 C 
ENDBRANCH  21   5
ENDBRANCH  14  21
ENDBRANCH  15  19
ENDBRANCH  10  15
BRANCH  13  20
ATOM     20  C   UNL     1      -0.412   1.196  23.129  0.00  0.00    +0.138 C 
BRANCH  20   9
ATOM      7  O   UNL     1       1.399  -0.386  21.561  0.00  0.00    -0.270 OA
ATOM      9  N   UNL     1       0.974   0.962  23.401  0.00  0.00    -0.309 N 
ATOM     22  C   UNL     1       1.783   0.177  22.582  0.00  0.00    +0.244 C 
ATOM     32  H   UNL     1       1.371   1.443  24.202  0.00  0.00    +0.149 HD
BRANCH  22  24
ATOM      1  F   UNL     1       5.403  -2.579  24.301  0.00  0.00    -0.205 F 
ATOM     24  C   UNL     1       3.194   0.011  23.018  0.00  0.00    +0.039 A 
ATOM     25  C   UNL     1       3.645  -1.231  23.464  0.00  0.00    +0.051 A 
ATOM     26  C   UNL     1       4.067   1.098  22.980  0.00  0.00    +0.013 A 
ATOM     27  C   UNL     1       4.970  -1.386  23.872  0.00  0.00    +0.124 A 
ATOM     28  C   UNL     1       5.392   0.943  23.388  0.00  0.00    +0.004 A 
ATOM     29  C   UNL     1       5.843  -0.299  23.834  0.00  0.00    +0.038 A 
ENDBRANCH  22  24
ENDBRANCH  20   9
ENDBRANCH  13  20
TORSDOF 9
ENDMDL
MODEL 4
REMARK VINA RESULT:      -3.4      2.760      6.595
REMARK  Name = 40777891
REMARK  10 active torsions:
REMARK  status: ('A' for Active; 'I' for Inactive)
REMARK    1  A    between atoms: O_3  and  C_11
REMARK    2  A    between atoms: O_4  and  C_12
REMARK    3  A    between atoms: O_5  and  C_21
REMARK    4  A    between atoms: O_5  and  C_23
REMARK    5  A    between atoms: N_9  and  C_20
REMARK    6  A    between atoms: C_10  and  C_15
REMARK    7  A    between atoms: C_13  and  C_20
REMARK    8  A    between atoms: C_14  and  C_21
REMARK    9  A    between atoms: C_15  and  C_19
REMARK   10  A    between atoms: C_22  and  C_24
REMARK                            x       y       z     vdW  Elec       q    Type
REMARK                         _______ _______ _______ _____ _____    ______ ____
ROOT
ATOM      2  O   UNL     1      -3.542  -0.632  25.673  0.00  0.00    -0.366 OA
ATOM     10  C   UNL     1      -4.295  -1.193  24.573  0.00  0.00    +0.159 C 
ATOM     11  C   UNL     1      -3.518  -2.418  24.102  0.00  0.00    +0.175 C 
ATOM     12  C   UNL     1      -2.095  -2.047  24.464  0.00  0.00    +0.176 C 
ATOM     13  C   UNL     1      -2.294  -1.336  25.792  0.00  0.00    +0.167 C 
ENDROOT
BRANCH  11   3
ATOM      3  O   UNL     1      -3.949  -3.539  24.874  0.00  0.00    -0.387 OA
ATOM     30  H   UNL     1      -4.901  -3.656  24.711  0.00  0.00    +0.210 HD
ENDBRANCH  11   3
BRANCH  12   4
ATOM      4  O   UNL     1      -1.240  -3.163  24.583  0.00  0.00    -0.387 OA
ATOM     31  H   UNL     1      -0.717  -3.047  25.394  0.00  0.00    +0.210 HD
ENDBRANCH  12   4
BRANCH  10  15
ATOM     15  C   UNL     1      -4.423  -0.121  23.500  0.00  0.00    +0.130 C 
BRANCH  15  19
ATOM      6  O   UNL     1      -2.391   1.117  23.433  0.00  0.00    -0.276 OA
ATOM      8  N   UNL     1      -4.147   2.035  24.629  0.00  0.00    -0.296 N 
ATOM     14  C   UNL     1      -3.415   3.198  25.134  0.00  0.00    +0.102 C 
ATOM     16  C   UNL     1      -4.305   3.725  26.262  0.00  0.00    +0.026 C 
ATOM     17  C   UNL     1      -5.516   2.008  25.138  0.00  0.00    +0.108 C 
ATOM     18  C   UNL     1      -5.711   3.363  25.801  0.00  0.00    +0.021 C 
ATOM     19  C   UNL     1      -3.551   1.060  23.845  0.00  0.00    +0.218 C 
BRANCH  14  21
ATOM     21  C   UNL     1      -3.195   4.238  24.039  0.00  0.00    +0.181 C 
BRANCH  21   5
ATOM      5  O   UNL     1      -2.473   5.324  24.589  0.00  0.00    -0.381 OA
ATOM     23  C   UNL     1      -1.157   4.943  24.972  0.00  0.00    +0.194 C 
ENDBRANCH  21   5
ENDBRANCH  14  21
ENDBRANCH  15  19
ENDBRANCH  10  15
BRANCH  13  20
ATOM     20  C   UNL     1      -1.183  -0.354  26.120  0.00  0.00    +0.138 C 
BRANCH  20   9
ATOM      7  O   UNL     1      -0.006   1.900  24.787  0.00  0.00    -0.270 OA
ATOM      9  N   UNL     1      -0.149  -0.390  25.130  0.00  0.00    -0.309 N 
ATOM     22  C   UNL     1       0.366   0.758  24.532  0.00  0.00    +0.244 C 
ATOM     32  H   UNL     1       0.243  -1.300  24.910  0.00  0.00    +0.149 HD
BRANCH  22  24
ATOM      1  F   UNL     1       4.914   1.365  22.920  0.00  0.00    -0.205 F 
ATOM     24  C   UNL     1       1.417   0.548  23.503  0.00  0.00    +0.039 A 
ATOM     25  C   UNL     1       2.697   1.066  23.698  0.00  0.00    +0.051 A 
ATOM     26  C   UNL     1       1.123  -0.166  22.342  0.00  0.00    +0.013 A 
ATOM     27  C   UNL     1       3.684   0.867  22.732  0.00  0.00    +0.124 A 
ATOM     28  C   UNL     1       2.109  -0.364  21.376  0.00  0.00    +0.004 A 
ATOM     29  C   UNL     1       3.390   0.153  21.571  0.00  0.00    +0.038 A 
ENDBRANCH  22  24
ENDBRANCH  20   9
ENDBRANCH  13  20
TORSDOF 9
ENDMDL
MODEL 5
REMARK VINA RESULT:      -3.1      2.442      5.288
REMARK  Name = 40777891
REMARK  10 active torsions:
REMARK  status: ('A' for Active; 'I' for Inactive)
REMARK    1  A    between atoms: O_3  and  C_11
REMARK    2  A    between atoms: O_4  and  C_12
REMARK    3  A    between atoms: O_5  and  C_21
REMARK    4  A    between atoms: O_5  and  C_23
REMARK    5  A    between atoms: N_9  and  C_20
REMARK    6  A    between atoms: C_10  and  C_15
REMARK    7  A    between atoms: C_13  and  C_20
REMARK    8  A    between atoms: C_14  and  C_21
REMARK    9  A    between atoms: C_15  and  C_19
REMARK   10  A    between atoms: C_22  and  C_24
REMARK                            x       y       z     vdW  Elec       q    Type
REMARK                         _______ _______ _______ _____ _____    ______ ____
ROOT
ATOM      2  O   UNL     1      -2.940   3.889  23.640  0.00  0.00    -0.366 OA
ATOM     10  C   UNL     1      -3.958   2.885  23.852  0.00  0.00    +0.159 C 
ATOM     11  C   UNL     1      -4.262   2.889  25.346  0.00  0.00    +0.175 C 
ATOM     12  C   UNL     1      -2.943   3.346  25.934  0.00  0.00    +0.176 C 
ATOM     13  C   UNL     1      -2.498   4.382  24.917  0.00  0.00    +0.167 C 
ENDROOT
BRANCH  11   3
ATOM      3  O   UNL     1      -5.276   3.864  25.588  0.00  0.00    -0.387 OA
ATOM     30  H   UNL     1      -5.203   4.540  24.893  0.00  0.00    +0.210 HD
ENDBRANCH  11   3
BRANCH  12   4
ATOM      4  O   UNL     1      -3.068   3.893  27.229  0.00  0.00    -0.387 OA
ATOM     31  H   UNL     1      -3.793   3.425  27.676  0.00  0.00    +0.210 HD
ENDBRANCH  12   4
BRANCH  10  15
ATOM     15  C   UNL     1      -3.409   1.552  23.360  0.00  0.00    +0.130 C 
BRANCH  15  19
ATOM      6  O   UNL     1      -5.170   0.103  24.042  0.00  0.00    -0.276 OA
ATOM      8  N   UNL     1      -3.108  -0.194  25.050  0.00  0.00    -0.296 N 
ATOM     14  C   UNL     1      -3.529  -1.241  25.984  0.00  0.00    +0.102 C 
ATOM     16  C   UNL     1      -2.388  -1.298  27.003  0.00  0.00    +0.026 C 
ATOM     17  C   UNL     1      -1.702   0.153  25.241  0.00  0.00    +0.108 C 
ATOM     18  C   UNL     1      -1.163  -0.912  26.183  0.00  0.00    +0.021 C 
ATOM     19  C   UNL     1      -3.988   0.425  24.176  0.00  0.00    +0.218 C 
BRANCH  14  21
ATOM     21  C   UNL     1      -3.733  -2.576  25.272  0.00  0.00    +0.181 C 
BRANCH  21   5
ATOM      5  O   UNL     1      -3.195  -2.476  23.967  0.00  0.00    -0.381 OA
ATOM     23  C   UNL     1      -1.973  -3.194  23.842  0.00  0.00    +0.194 C 
ENDBRANCH  21   5
ENDBRANCH  14  21
ENDBRANCH  15  19
ENDBRANCH  10  15
BRANCH  13  20
ATOM     20  C   UNL     1      -0.994   4.593  24.891  0.00  0.00    +0.138 C 
BRANCH  20   9
ATOM      7  O   UNL     1       0.580   2.442  25.958  0.00  0.00    -0.270 OA
ATOM      9  N   UNL     1      -0.339   3.561  24.144  0.00  0.00    -0.309 N 
ATOM     22  C   UNL     1       0.409   2.551  24.747  0.00  0.00    +0.244 C 
ATOM     32  H   UNL     1      -0.484   3.560  23.140  0.00  0.00    +0.149 HD
BRANCH  22  24
ATOM      1  F   UNL     1       4.328   0.805  22.457  0.00  0.00    -0.205 F 
ATOM     24  C   UNL     1       1.048   1.572  23.831  0.00  0.00    +0.039 A 
ATOM     25  C   UNL     1       2.415   1.651  23.569  0.00  0.00    +0.051 A 
ATOM     26  C   UNL     1       0.279   0.573  23.233  0.00  0.00    +0.013 A 
ATOM     27  C   UNL     1       3.014   0.729  22.709  0.00  0.00    +0.124 A 
ATOM     28  C   UNL     1       0.878  -0.347  22.373  0.00  0.00    +0.004 A 
ATOM     29  C   UNL     1       2.246  -0.270  22.111  0.00  0.00    +0.038 A 
ENDBRANCH  22  24
ENDBRANCH  20   9
ENDBRANCH  13  20
TORSDOF 9
ENDMDL
MODEL 6
REMARK VINA RESULT:      -2.3      2.738      6.698
REMARK  Name = 40777891
REMARK  10 active torsions:
REMARK  status: ('A' for Active; 'I' for Inactive)
REMARK    1  A    between atoms: O_3  and  C_11
REMARK    2  A    between atoms: O_4  and  C_12
REMARK    3  A    between atoms: O_5  and  C_21
REMARK    4  A    between atoms: O_5  and  C_23
REMARK    5  A    between atoms: N_9  and  C_20
REMARK    6  A    between atoms: C_10  and  C_15
REMARK    7  A    between atoms: C_13  and  C_20
REMARK    8  A    between atoms: C_14  and  C_21
REMARK    9  A    between atoms: C_15  and  C_19
REMARK   10  A    between atoms: C_22  and  C_24
REMARK                            x       y       z     vdW  Elec       q    Type
REMARK                         _______ _______ _______ _____ _____    ______ ____
ROOT
ATOM      2  O   UNL     1      -0.667   3.991  24.225  0.00  0.00    -0.366 OA
ATOM     10  C   UNL     1      -1.869   4.229  24.993  0.00  0.00    +0.159 C 
ATOM     11  C   UNL     1      -1.970   3.086  25.998  0.00  0.00    +0.175 C 
ATOM     12  C   UNL     1      -1.263   1.963  25.268  0.00  0.00    +0.176 C 
ATOM     13  C   UNL     1      -0.128   2.708  24.587  0.00  0.00    +0.167 C 
ENDROOT
BRANCH  11   3
ATOM      3  O   UNL     1      -1.236   3.457  27.165  0.00  0.00    -0.387 OA
ATOM     30  H   UNL     1      -0.623   4.167  26.911  0.00  0.00    +0.210 HD
ENDBRANCH  11   3
BRANCH  12   4
ATOM      4  O   UNL     1      -0.791   0.948  26.129  0.00  0.00    -0.387 OA
ATOM     31  H   UNL     1      -0.505   0.203  25.573  0.00  0.00    +0.210 HD
ENDBRANCH  12   4
BRANCH  10  15
ATOM     15  C   UNL     1      -3.042   4.275  24.024  0.00  0.00    +0.130 C 
BRANCH  15  19
ATOM      6  O   UNL     1      -3.064   2.194  22.868  0.00  0.00    -0.276 OA
ATOM      8  N   UNL     1      -4.574   2.454  24.602  0.00  0.00    -0.296 N 
ATOM     14  C   UNL     1      -5.249   1.166  24.430  0.00  0.00    +0.102 C 
ATOM     16  C   UNL     1      -6.536   1.319  25.245  0.00  0.00    +0.026 C 
ATOM     17  C   UNL     1      -5.182   3.232  25.679  0.00  0.00    +0.108 C 
ATOM     18  C   UNL     1      -6.131   2.264  26.369  0.00  0.00    +0.021 C 
ATOM     19  C   UNL     1      -3.553   2.880  23.768  0.00  0.00    +0.218 C 
BRANCH  14  21
ATOM     21  C   UNL     1      -4.384   0.011  24.928  0.00  0.00    +0.181 C 
BRANCH  21   5
ATOM      5  O   UNL     1      -4.266  -0.942  23.890  0.00  0.00    -0.381 OA
ATOM     23  C   UNL     1      -3.650  -2.143  24.342  0.00  0.00    +0.194 C 
ENDBRANCH  21   5
ENDBRANCH  14  21
ENDBRANCH  15  19
ENDBRANCH  10  15
BRANCH  13  20
ATOM     20  C   UNL     1       0.393   2.004  23.346  0.00  0.00    +0.138 C 
BRANCH  20   9
ATOM      7  O   UNL     1       1.563  -0.185  21.904  0.00  0.00    -0.270 OA
ATOM      9  N   UNL     1       1.673   1.407  23.588  0.00  0.00    -0.309 N 
ATOM     22  C   UNL     1       2.164   0.342  22.835  0.00  0.00    +0.244 C 
ATOM     32  H   UNL     1       2.246   1.830  24.310  0.00  0.00    +0.149 HD
BRANCH  22  24
ATOM      1  F   UNL     1       6.928   0.979  23.578  0.00  0.00    -0.205 F 
ATOM     24  C   UNL     1       3.497  -0.181  23.230  0.00  0.00    +0.039 A 
ATOM     25  C   UNL     1       4.609   0.661  23.218  0.00  0.00    +0.051 A 
ATOM     26  C   UNL     1       3.637  -1.515  23.613  0.00  0.00    +0.013 A 
ATOM     27  C   UNL     1       5.860   0.170  23.589  0.00  0.00    +0.124 A 
ATOM     28  C   UNL     1       4.888  -2.007  23.984  0.00  0.00    +0.004 A 
ATOM     29  C   UNL     1       6.000  -1.165  23.972  0.00  0.00    +0.038 A 
ENDBRANCH  22  24
ENDBRANCH  20   9
ENDBRANCH  13  20
TORSDOF 9
ENDMDL
MODEL 7
REMARK VINA RESULT:      -1.8      2.762      6.750
REMARK  Name = 40777891
REMARK  10 active torsions:
REMARK  status: ('A' for Active; 'I' for Inactive)
REMARK    1  A    between atoms: O_3  and  C_11
REMARK    2  A    between atoms: O_4  and  C_12
REMARK    3  A    between atoms: O_5  and  C_21
REMARK    4  A    between atoms: O_5  and  C_23
REMARK    5  A    between atoms: N_9  and  C_20
REMARK    6  A    between atoms: C_10  and  C_15
REMARK    7  A    between atoms: C_13  and  C_20
REMARK    8  A    between atoms: C_14  and  C_21
REMARK    9  A    between atoms: C_15  and  C_19
REMARK   10  A    between atoms: C_22  and  C_24
REMARK                            x       y       z     vdW  Elec       q    Type
REMARK                         _______ _______ _______ _____ _____    ______ ____
ROOT
ATOM      2  O   UNL     1      -2.728  -0.856  25.531  0.00  0.00    -0.366 OA
ATOM     10  C   UNL     1      -3.813  -1.595  24.925  0.00  0.00    +0.159 C 
ATOM     11  C   UNL     1      -3.241  -2.955  24.536  0.00  0.00    +0.175 C 
ATOM     12  C   UNL     1      -1.783  -2.625  24.292  0.00  0.00    +0.176 C 
ATOM     13  C   UNL     1      -1.512  -1.611  25.389  0.00  0.00    +0.167 C 
ENDROOT
BRANCH  11   3
ATOM      3  O   UNL     1      -3.371  -3.827  25.659  0.00  0.00    -0.387 OA
ATOM     30  H   UNL     1      -2.474  -4.021  25.982  0.00  0.00    +0.210 HD
ENDBRANCH  11   3
BRANCH  12   4
ATOM      4  O   UNL     1      -0.933  -3.748  24.386  0.00  0.00    -0.387 OA
ATOM     31  H   UNL     1      -1.060  -4.279  23.582  0.00  0.00    +0.210 HD
ENDBRANCH  12   4
BRANCH  10  15
ATOM     15  C   UNL     1      -4.313  -0.796  23.729  0.00  0.00    +0.130 C 
BRANCH  15  19
ATOM      6  O   UNL     1      -2.846   1.029  23.299  0.00  0.00    -0.276 OA
ATOM      8  N   UNL     1      -4.706   1.455  24.610  0.00  0.00    -0.296 N 
ATOM     14  C   UNL     1      -4.382   2.851  24.910  0.00  0.00    +0.102 C 
ATOM     16  C   UNL     1      -5.302   3.192  26.085  0.00  0.00    +0.026 C 
ATOM     17  C   UNL     1      -5.934   1.039  25.283  0.00  0.00    +0.108 C 
ATOM     18  C   UNL     1      -6.530   2.325  25.835  0.00  0.00    +0.021 C 
ATOM     19  C   UNL     1      -3.877   0.642  23.853  0.00  0.00    +0.218 C 
BRANCH  14  21
ATOM     21  C   UNL     1      -4.627   3.754  23.704  0.00  0.00    +0.181 C 
BRANCH  21   5
ATOM      5  O   UNL     1      -3.487   3.705  22.868  0.00  0.00    -0.381 OA
ATOM     23  C   UNL     1      -3.836   3.439  21.514  0.00  0.00    +0.194 C 
ENDBRANCH  21   5
ENDBRANCH  14  21
ENDBRANCH  15  19
ENDBRANCH  10  15
BRANCH  13  20
ATOM     20  C   UNL     1      -0.362  -0.672  25.070  0.00  0.00    +0.138 C 
BRANCH  20   9
ATOM      7  O   UNL     1       1.101   1.613  24.130  0.00  0.00    -0.270 OA
ATOM      9  N   UNL     1      -0.775   0.698  25.145  0.00  0.00    -0.309 N 
ATOM     22  C   UNL     1       0.002   1.749  24.661  0.00  0.00    +0.244 C 
ATOM     32  H   UNL     1      -1.699   0.878  25.524  0.00  0.00    +0.149 HD
BRANCH  22  24
ATOM      1  F   UNL     1      -2.966   4.863  26.929  0.00  0.00    -0.205 F 
ATOM     24  C   UNL     1      -0.556   3.114  24.839  0.00  0.00    +0.039 A 
ATOM     25  C   UNL     1      -1.519   3.352  25.819  0.00  0.00    +0.051 A 
ATOM     26  C   UNL     1      -0.117   4.158  24.024  0.00  0.00    +0.013 A 
ATOM     27  C   UNL     1      -2.041   4.635  25.986  0.00  0.00    +0.124 A 
ATOM     28  C   UNL     1      -0.640   5.440  24.191  0.00  0.00    +0.004 A 
ATOM     29  C   UNL     1      -1.602   5.679  25.172  0.00  0.00    +0.038 A 
ENDBRANCH  22  24
ENDBRANCH  20   9
ENDBRANCH  13  20
TORSDOF 9
ENDMDL
MODEL 8
REMARK VINA RESULT:      -1.7      2.734      6.727
REMARK  Name = 40777891
REMARK  10 active torsions:
REMARK  status: ('A' for Active; 'I' for Inactive)
REMARK    1  A    between atoms: O_3  and  C_11
REMARK    2  A    between atoms: O_4  and  C_12
REMARK    3  A    between atoms: O_5  and  C_21
REMARK    4  A    between atoms: O_5  and  C_23
REMARK    5  A    between atoms: N_9  and  C_20
REMARK    6  A    between atoms: C_10  and  C_15
REMARK    7  A    between atoms: C_13  and  C_20
REMARK    8  A    between atoms: C_14  and  C_21
REMARK    9  A    between atoms: C_15  and  C_19
REMARK   10  A    between atoms: C_22  and  C_24
REMARK                            x       y       z     vdW  Elec       q    Type
REMARK                         _______ _______ _______ _____ _____    ______ ____
ROOT
ATOM      2  O   UNL     1      -3.234  -0.373  25.481  0.00  0.00    -0.366 OA
ATOM     10  C   UNL     1      -3.979  -0.265  24.247  0.00  0.00    +0.159 C 
ATOM     11  C   UNL     1      -3.780  -1.586  23.509  0.00  0.00    +0.175 C 
ATOM     12  C   UNL     1      -2.418  -2.023  24.008  0.00  0.00    +0.176 C 
ATOM     13  C   UNL     1      -2.475  -1.595  25.464  0.00  0.00    +0.167 C 
ENDROOT
BRANCH  11   3
ATOM      3  O   UNL     1      -4.786  -2.496  23.953  0.00  0.00    -0.387 OA
ATOM     30  H   UNL     1      -5.528  -2.438  23.328  0.00  0.00    +0.210 HD
ENDBRANCH  11   3
BRANCH  12   4
ATOM      4  O   UNL     1      -2.192  -3.409  23.871  0.00  0.00    -0.387 OA
ATOM     31  H   UNL     1      -2.857  -3.755  23.252  0.00  0.00    +0.210 HD
ENDBRANCH  12   4
BRANCH  10  15
ATOM     15  C   UNL     1      -3.440   0.933  23.478  0.00  0.00    +0.130 C 
BRANCH  15  19
ATOM      6  O   UNL     1      -5.174   2.380  24.231  0.00  0.00    -0.276 OA
ATOM      8  N   UNL     1      -2.998   3.136  24.453  0.00  0.00    -0.296 N 
ATOM     14  C   UNL     1      -3.335   4.465  24.968  0.00  0.00    +0.102 C 
ATOM     16  C   UNL     1      -2.033   5.255  24.814  0.00  0.00    +0.026 C 
ATOM     17  C   UNL     1      -1.554   2.977  24.299  0.00  0.00    +0.108 C 
ATOM     18  C   UNL     1      -0.953   4.194  24.988  0.00  0.00    +0.021 C 
ATOM     19  C   UNL     1      -3.962   2.211  24.085  0.00  0.00    +0.218 C 
BRANCH  14  21
ATOM     21  C   UNL     1      -3.801   4.400  26.420  0.00  0.00    +0.181 C 
BRANCH  21   5
ATOM      5  O   UNL     1      -5.153   3.981  26.439  0.00  0.00    -0.381 OA
ATOM     23  C   UNL     1      -5.996   4.885  25.734  0.00  0.00    +0.194 C 
ENDBRANCH  21   5
ENDBRANCH  14  21
ENDBRANCH  15  19
ENDBRANCH  10  15
BRANCH  13  20
ATOM     20  C   UNL     1      -1.105  -1.354  26.074  0.00  0.00    +0.138 C 
BRANCH  20   9
ATOM      7  O   UNL     1      -0.267   1.153  24.955  0.00  0.00    -0.270 OA
ATOM      9  N   UNL     1      -0.113  -1.160  25.060  0.00  0.00    -0.309 N 
ATOM     22  C   UNL     1       0.233   0.099  24.573  0.00  0.00    +0.244 C 
ATOM     32  H   UNL     1       0.380  -1.986  24.737  0.00  0.00    +0.149 HD
BRANCH  22  24
ATOM      1  F   UNL     1       4.619   1.409  22.930  0.00  0.00    -0.205 F 
ATOM     24  C   UNL     1       1.262   0.129  23.502  0.00  0.00    +0.039 A 
ATOM     25  C   UNL     1       2.481   0.768  23.723  0.00  0.00    +0.051 A 
ATOM     26  C   UNL     1       1.008  -0.483  22.274  0.00  0.00    +0.013 A 
ATOM     27  C   UNL     1       3.448   0.795  22.717  0.00  0.00    +0.124 A 
ATOM     28  C   UNL     1       1.974  -0.456  21.268  0.00  0.00    +0.004 A 
ATOM     29  C   UNL     1       3.194   0.183  21.490  0.00  0.00    +0.038 A 
ENDBRANCH  22  24
ENDBRANCH  20   9
ENDBRANCH  13  20
TORSDOF 9
ENDMDL
MODEL 9
REMARK VINA RESULT:      -1.7      2.024      5.108
REMARK  Name = 40777891
REMARK  10 active torsions:
REMARK  status: ('A' for Active; 'I' for Inactive)
REMARK    1  A    between atoms: O_3  and  C_11
REMARK    2  A    between atoms: O_4  and  C_12
REMARK    3  A    between atoms: O_5  and  C_21
REMARK    4  A    between atoms: O_5  and  C_23
REMARK    5  A    between atoms: N_9  and  C_20
REMARK    6  A    between atoms: C_10  and  C_15
REMARK    7  A    between atoms: C_13  and  C_20
REMARK    8  A    between atoms: C_14  and  C_21
REMARK    9  A    between atoms: C_15  and  C_19
REMARK   10  A    between atoms: C_22  and  C_24
REMARK                            x       y       z     vdW  Elec       q    Type
REMARK                         _______ _______ _______ _____ _____    ______ ____
ROOT
ATOM      2  O   UNL     1       0.684   3.369  24.368  0.00  0.00    -0.366 OA
ATOM     10  C   UNL     1       0.133   4.049  25.519  0.00  0.00    +0.159 C 
ATOM     11  C   UNL     1      -0.195   2.967  26.542  0.00  0.00    +0.175 C 
ATOM     12  C   UNL     1      -0.477   1.771  25.656  0.00  0.00    +0.176 C 
ATOM     13  C   UNL     1       0.563   1.949  24.563  0.00  0.00    +0.167 C 
ENDROOT
BRANCH  11   3
ATOM      3  O   UNL     1       0.973   2.734  27.329  0.00  0.00    -0.387 OA
ATOM     30  H   UNL     1       0.733   2.885  28.259  0.00  0.00    +0.210 HD
ENDBRANCH  11   3
BRANCH  12   4
ATOM      4  O   UNL     1      -0.339   0.536  26.324  0.00  0.00    -0.387 OA
ATOM     31  H   UNL     1       0.611   0.373  26.445  0.00  0.00    +0.210 HD
ENDBRANCH  12   4
BRANCH  10  15
ATOM     15  C   UNL     1      -1.094   4.825  25.060  0.00  0.00    +0.130 C 
BRANCH  15  19
ATOM      6  O   UNL     1      -2.620   4.340  26.821  0.00  0.00    -0.276 OA
ATOM      8  N   UNL     1      -3.116   3.483  24.729  0.00  0.00    -0.296 N 
ATOM     14  C   UNL     1      -4.306   2.733  25.134  0.00  0.00    +0.102 C 
ATOM     16  C   UNL     1      -4.556   1.787  23.957  0.00  0.00    +0.026 C 
ATOM     17  C   UNL     1      -2.824   3.291  23.311  0.00  0.00    +0.108 C 
ATOM     18  C   UNL     1      -4.046   2.573  22.756  0.00  0.00    +0.021 C 
ATOM     19  C   UNL     1      -2.342   4.198  25.629  0.00  0.00    +0.218 C 
BRANCH  14  21
ATOM     21  C   UNL     1      -5.491   3.661  25.389  0.00  0.00    +0.181 C 
BRANCH  21   5
ATOM      5  O   UNL     1      -6.211   3.174  26.506  0.00  0.00    -0.381 OA
ATOM     23  C   UNL     1      -6.286   1.753  26.507  0.00  0.00    +0.194 C 
ENDBRANCH  21   5
ENDBRANCH  14  21
ENDBRANCH  15  19
ENDBRANCH  10  15
BRANCH  13  20
ATOM     20  C   UNL     1       0.178   1.284  23.253  0.00  0.00    +0.138 C 
BRANCH  20   9
ATOM      7  O   UNL     1       0.232  -1.362  24.364  0.00  0.00    -0.270 OA
ATOM      9  N   UNL     1      -0.941   0.407  23.425  0.00  0.00    -0.309 N 
ATOM     22  C   UNL     1      -0.823  -0.868  23.976  0.00  0.00    +0.244 C 
ATOM     32  H   UNL     1      -1.853   0.773  23.175  0.00  0.00    +0.149 HD
BRANCH  22  24
ATOM      1  F   UNL     1      -5.676  -1.177  23.900  0.00  0.00    -0.205 F 
ATOM     24  C   UNL     1      -2.074  -1.664  24.062  0.00  0.00    +0.039 A 
ATOM     25  C   UNL     1      -3.312  -1.034  23.939  0.00  0.00    +0.051 A 
ATOM     26  C   UNL     1      -2.010  -3.043  24.267  0.00  0.00    +0.013 A 
ATOM     27  C   UNL     1      -4.486  -1.783  24.018  0.00  0.00    +0.124 A 
ATOM     28  C   UNL     1      -3.184  -3.791  24.347  0.00  0.00    +0.004 A 
ATOM     29  C   UNL     1      -4.423  -3.161  24.223  0.00  0.00    +0.038 A 
ENDBRANCH  22  24
ENDBRANCH  20   9
ENDBRANCH  13  20
TORSDOF 9
ENDMDL
MODEL 10
REMARK VINA RESULT:      -1.5      2.784      6.805
REMARK  Name = 40777891
REMARK  10 active torsions:
REMARK  status: ('A' for Active; 'I' for Inactive)
REMARK    1  A    between atoms: O_3  and  C_11
REMARK    2  A    between atoms: O_4  and  C_12
REMARK    3  A    between atoms: O_5  and  C_21
REMARK    4  A    between atoms: O_5  and  C_23
REMARK    5  A    between atoms: N_9  and  C_20
REMARK    6  A    between atoms: C_10  and  C_15
REMARK    7  A    between atoms: C_13  and  C_20
REMARK    8  A    between atoms: C_14  and  C_21
REMARK    9  A    between atoms: C_15  and  C_19
REMARK   10  A    between atoms: C_22  and  C_24
REMARK                            x       y       z     vdW  Elec       q    Type
REMARK                         _______ _______ _______ _____ _____    ______ ____
ROOT
ATOM      2  O   UNL     1      -1.448  -0.124  24.616  0.00  0.00    -0.366 OA
ATOM     10  C   UNL     1      -2.770   0.445  24.752  0.00  0.00    +0.159 C 
ATOM     11  C   UNL     1      -3.714  -0.722  25.026  0.00  0.00    +0.175 C 
ATOM     12  C   UNL     1      -3.010  -1.867  24.328  0.00  0.00    +0.176 C 
ATOM     13  C   UNL     1      -1.554  -1.558  24.629  0.00  0.00    +0.167 C 
ENDROOT
BRANCH  11   3
ATOM      3  O   UNL     1      -3.744  -0.945  26.435  0.00  0.00    -0.387 OA
ATOM     30  H   UNL     1      -2.904  -1.369  26.682  0.00  0.00    +0.210 HD
ENDBRANCH  11   3
BRANCH  12   4
ATOM      4  O   UNL     1      -3.395  -3.136  24.810  0.00  0.00    -0.387 OA
ATOM     31  H   UNL     1      -2.627  -3.521  25.265  0.00  0.00    +0.210 HD
ENDBRANCH  12   4
BRANCH  10  15
ATOM     15  C   UNL     1      -3.096   1.184  23.461  0.00  0.00    +0.130 C 
BRANCH  15  19
ATOM      6  O   UNL     1      -4.264   3.258  23.433  0.00  0.00    -0.276 OA
ATOM      8  N   UNL     1      -2.130   3.260  24.330  0.00  0.00    -0.296 N 
ATOM     14  C   UNL     1      -2.054   4.701  24.575  0.00  0.00    +0.102 C 
ATOM     16  C   UNL     1      -0.563   4.950  24.813  0.00  0.00    +0.026 C 
ATOM     17  C   UNL     1      -0.886   2.592  24.702  0.00  0.00    +0.108 C 
ATOM     18  C   UNL     1      -0.084   3.649  25.445  0.00  0.00    +0.021 C 
ATOM     19  C   UNL     1      -3.228   2.661  23.733  0.00  0.00    +0.218 C 
BRANCH  14  21
ATOM     21  C   UNL     1      -2.906   5.110  25.774  0.00  0.00    +0.181 C 
BRANCH  21   5
ATOM      5  O   UNL     1      -3.295   3.940  26.468  0.00  0.00    -0.381 OA
ATOM     23  C   UNL     1      -4.707   3.766  26.460  0.00  0.00    +0.194 C 
ENDBRANCH  21   5
ENDBRANCH  14  21
ENDBRANCH  15  19
ENDBRANCH  10  15
BRANCH  13  20
ATOM     20  C   UNL     1      -0.591  -2.151  23.615  0.00  0.00    +0.138 C 
BRANCH  20   9
ATOM      7  O   UNL     1       0.768  -0.523  21.680  0.00  0.00    -0.270 OA
ATOM      9  N   UNL     1       0.716  -1.580  23.745  0.00  0.00    -0.309 N 
ATOM     22  C   UNL     1       1.302  -0.798  22.751  0.00  0.00    +0.244 C 
ATOM     32  H   UNL     1       1.192  -1.723  24.629  0.00  0.00    +0.149 HD
BRANCH  22  24
ATOM      1  F   UNL     1       5.791  -1.472  24.496  0.00  0.00    -0.205 F 
ATOM     24  C   UNL     1       2.674  -0.302  23.029  0.00  0.00    +0.039 A 
ATOM     25  C   UNL     1       3.606  -1.136  23.645  0.00  0.00    +0.051 A 
ATOM     26  C   UNL     1       3.030   0.999  22.674  0.00  0.00    +0.013 A 
ATOM     27  C   UNL     1       4.895  -0.670  23.905  0.00  0.00    +0.124 A 
ATOM     28  C   UNL     1       4.318   1.466  22.934  0.00  0.00    +0.004 A 
ATOM     29  C   UNL     1       5.251   0.632  23.549  0.00  0.00    +0.038 A 
ENDBRANCH  22  24
ENDBRANCH  20   9
ENDBRANCH  13  20
TORSDOF 9
ENDMDL
