MODEL 1
REMARK VINA RESULT:      -4.2      0.000      0.000
REMARK  Name = 51137619
REMARK  5 active torsions:
REMARK  status: ('A' for Active; 'I' for Inactive)
REMARK    1  A    between atoms: N_2  and  C_8
REMARK    2  A    between atoms: N_5  and  C_23
REMARK    3  A    between atoms: C_7  and  C_8
REMARK    4  A    between atoms: C_9  and  C_18
REMARK    5  A    between atoms: C_19  and  C_20
REMARK                            x       y       z     vdW  Elec       q    Type
REMARK                         _______ _______ _______ _____ _____    ______ ____
ROOT
ATOM      2  N   UNL     1      15.511  -7.538  28.854  0.00  0.00    -0.301 NA
ATOM      9  C   UNL     1      17.390  -7.124  27.461  0.00  0.00    +0.092 C 
ATOM     12  C   UNL     1      16.247  -8.120  27.728  0.00  0.00    +0.097 C 
ATOM     13  C   UNL     1      16.518  -6.893  29.695  0.00  0.00    +0.085 C 
ATOM     14  C   UNL     1      17.370  -6.172  28.666  0.00  0.00    +0.029 C 
ENDROOT
BRANCH   9  18
ATOM      1  O   UNL     1      17.150  -5.043  26.191  0.00  0.00    -0.419 OA
ATOM      3  N   UNL     1      17.337  -6.872  24.916  0.00  0.00    -0.112 NA
ATOM      4  N   UNL     1      17.209  -5.779  24.079  0.00  0.00    -0.106 NA
ATOM     18  C   UNL     1      17.298  -6.395  26.139  0.00  0.00    +0.222 A 
ATOM     19  C   UNL     1      17.103  -4.734  24.866  0.00  0.00    +0.266 A 
BRANCH  19  20
ATOM      5  N   UNL     1      17.086  -2.283  25.145  0.00  0.00    -0.329 N 
ATOM      6  N   UNL     1      16.603  -1.580  23.095  0.00  0.00    -0.243 NA
ATOM     20  C   UNL     1      16.952  -3.410  24.385  0.00  0.00    +0.125 A 
ATOM     21  C   UNL     1      16.653  -2.951  23.123  0.00  0.00    +0.143 A 
ATOM     22  C   UNL     1      16.868  -1.209  24.328  0.00  0.00    +0.199 A 
ATOM     23  C   UNL     1      17.401  -2.211  26.553  0.00  0.00    +0.150 C 
ENDBRANCH  19  20
ENDBRANCH   9  18
BRANCH   2   8
ATOM      8  C   UNL     1      14.726  -8.526  29.580  0.00  0.00    +0.088 C 
BRANCH   8   7
ATOM      7  C   UNL     1      13.950  -7.872  30.721  0.00  0.00    +0.003 C 
ATOM     10  C   UNL     1      12.853  -8.812  31.240  0.00  0.00    +0.005 C 
ATOM     11  C   UNL     1      13.353  -6.531  30.273  0.00  0.00    +0.005 C 
ATOM     15  C   UNL     1      12.029  -8.159  32.347  0.00  0.00    +0.000 C 
ATOM     16  C   UNL     1      12.527  -5.883  31.381  0.00  0.00    +0.000 C 
ATOM     17  C   UNL     1      11.444  -6.823  31.901  0.00  0.00    +0.000 C 
ENDBRANCH   8   7
ENDBRANCH   2   8
TORSDOF 4
ENDMDL
MODEL 2
REMARK VINA RESULT:      -3.0     17.341     19.376
REMARK  Name = 51137619
REMARK  5 active torsions:
REMARK  status: ('A' for Active; 'I' for Inactive)
REMARK    1  A    between atoms: N_2  and  C_8
REMARK    2  A    between atoms: N_5  and  C_23
REMARK    3  A    between atoms: C_7  and  C_8
REMARK    4  A    between atoms: C_9  and  C_18
REMARK    5  A    between atoms: C_19  and  C_20
REMARK                            x       y       z     vdW  Elec       q    Type
REMARK                         _______ _______ _______ _____ _____    ______ ____
ROOT
ATOM      2  N   UNL     1       0.668   0.189  23.157  0.00  0.00    -0.301 NA
ATOM      9  C   UNL     1      -0.149   1.220  25.136  0.00  0.00    +0.092 C 
ATOM     12  C   UNL     1       0.958   1.300  24.070  0.00  0.00    +0.097 C 
ATOM     13  C   UNL     1       0.136  -0.884  23.996  0.00  0.00    +0.085 C 
ATOM     14  C   UNL     1      -0.836  -0.132  24.888  0.00  0.00    +0.029 C 
ENDROOT
BRANCH   9  18
ATOM      1  O   UNL     1      -2.431   2.085  25.349  0.00  0.00    -0.419 OA
ATOM      3  N   UNL     1      -0.895   3.658  24.933  0.00  0.00    -0.112 NA
ATOM      4  N   UNL     1      -2.127   4.278  25.028  0.00  0.00    -0.106 NA
ATOM     18  C   UNL     1      -1.120   2.379  25.127  0.00  0.00    +0.222 A 
ATOM     19  C   UNL     1      -2.993   3.322  25.272  0.00  0.00    +0.266 A 
BRANCH  19  20
ATOM      5  N   UNL     1      -5.344   2.586  25.400  0.00  0.00    -0.329 N 
ATOM      6  N   UNL     1      -6.415   4.496  25.763  0.00  0.00    -0.243 NA
ATOM     20  C   UNL     1      -4.381   3.554  25.438  0.00  0.00    +0.125 A 
ATOM     21  C   UNL     1      -5.066   4.725  25.663  0.00  0.00    +0.143 A 
ATOM     22  C   UNL     1      -6.549   3.199  25.600  0.00  0.00    +0.199 A 
ATOM     23  C   UNL     1      -5.152   1.170  25.189  0.00  0.00    +0.150 C 
ENDBRANCH  19  20
ENDBRANCH   9  18
BRANCH   2   8
ATOM      8  C   UNL     1       1.834  -0.225  22.392  0.00  0.00    +0.088 C 
BRANCH   8   7
ATOM      7  C   UNL     1       3.107  -0.093  23.225  0.00  0.00    +0.003 C 
ATOM     10  C   UNL     1       4.062   0.931  22.598  0.00  0.00    +0.005 C 
ATOM     11  C   UNL     1       3.795  -1.456  23.385  0.00  0.00    +0.005 C 
ATOM     15  C   UNL     1       5.366   1.042  23.385  0.00  0.00    +0.000 C 
ATOM     16  C   UNL     1       5.099  -1.341  24.170  0.00  0.00    +0.000 C 
ATOM     17  C   UNL     1       6.042  -0.316  23.549  0.00  0.00    +0.000 C 
ENDBRANCH   8   7
ENDBRANCH   2   8
TORSDOF 4
ENDMDL
MODEL 3
REMARK VINA RESULT:      -2.5     16.567     18.228
REMARK  Name = 51137619
REMARK  5 active torsions:
REMARK  status: ('A' for Active; 'I' for Inactive)
REMARK    1  A    between atoms: N_2  and  C_8
REMARK    2  A    between atoms: N_5  and  C_23
REMARK    3  A    between atoms: C_7  and  C_8
REMARK    4  A    between atoms: C_9  and  C_18
REMARK    5  A    between atoms: C_19  and  C_20
REMARK                            x       y       z     vdW  Elec       q    Type
REMARK                         _______ _______ _______ _____ _____    ______ ____
ROOT
ATOM      2  N   UNL     1      -3.011  -0.153  24.855  0.00  0.00    -0.301 NA
ATOM      9  C   UNL     1      -1.092  -1.466  24.365  0.00  0.00    +0.092 C 
ATOM     12  C   UNL     1      -2.447  -1.002  23.801  0.00  0.00    +0.097 C 
ATOM     13  C   UNL     1      -2.585  -0.753  26.118  0.00  0.00    +0.085 C 
ATOM     14  C   UNL     1      -1.121  -1.053  25.844  0.00  0.00    +0.029 C 
ENDROOT
BRANCH   9  18
ATOM      1  O   UNL     1       1.334  -1.178  24.185  0.00  0.00    -0.419 OA
ATOM      3  N   UNL     1       0.179  -0.237  22.516  0.00  0.00    -0.112 NA
ATOM      4  N   UNL     1       1.522  -0.001  22.292  0.00  0.00    -0.106 NA
ATOM     18  C   UNL     1       0.116  -0.928  23.631  0.00  0.00    +0.222 A 
ATOM     19  C   UNL     1       2.159  -0.569  23.290  0.00  0.00    +0.266 A 
BRANCH  19  20
ATOM      5  N   UNL     1       4.371   0.500  23.074  0.00  0.00    -0.329 N 
ATOM      6  N   UNL     1       5.730  -1.070  23.861  0.00  0.00    -0.243 NA
ATOM     20  C   UNL     1       3.568  -0.548  23.425  0.00  0.00    +0.125 A 
ATOM     21  C   UNL     1       4.429  -1.506  23.909  0.00  0.00    +0.143 A 
ATOM     22  C   UNL     1       5.660   0.141  23.355  0.00  0.00    +0.199 A 
ATOM     23  C   UNL     1       3.961   1.765  22.511  0.00  0.00    +0.150 C 
ENDBRANCH  19  20
ENDBRANCH   9  18
BRANCH   2   8
ATOM      8  C   UNL     1      -4.457  -0.025  24.756  0.00  0.00    +0.088 C 
BRANCH   8   7
ATOM      7  C   UNL     1      -4.863   1.436  24.577  0.00  0.00    +0.003 C 
ATOM     10  C   UNL     1      -3.637   2.305  24.261  0.00  0.00    +0.005 C 
ATOM     11  C   UNL     1      -5.592   1.954  25.825  0.00  0.00    +0.005 C 
ATOM     15  C   UNL     1      -4.010   3.780  24.130  0.00  0.00    +0.000 C 
ATOM     16  C   UNL     1      -5.961   3.429  25.691  0.00  0.00    +0.000 C 
ATOM     17  C   UNL     1      -4.742   4.288  25.368  0.00  0.00    +0.000 C 
ENDBRANCH   8   7
ENDBRANCH   2   8
TORSDOF 4
ENDMDL
MODEL 4
REMARK VINA RESULT:      -2.4      1.694      2.288
REMARK  Name = 51137619
REMARK  5 active torsions:
REMARK  status: ('A' for Active; 'I' for Inactive)
REMARK    1  A    between atoms: N_2  and  C_8
REMARK    2  A    between atoms: N_5  and  C_23
REMARK    3  A    between atoms: C_7  and  C_8
REMARK    4  A    between atoms: C_9  and  C_18
REMARK    5  A    between atoms: C_19  and  C_20
REMARK                            x       y       z     vdW  Elec       q    Type
REMARK                         _______ _______ _______ _____ _____    ______ ____
ROOT
ATOM      2  N   UNL     1      15.642  -7.973  27.411  0.00  0.00    -0.301 NA
ATOM      9  C   UNL     1      17.382  -7.140  26.024  0.00  0.00    +0.092 C 
ATOM     12  C   UNL     1      16.319  -8.247  26.140  0.00  0.00    +0.097 C 
ATOM     13  C   UNL     1      16.675  -7.455  28.307  0.00  0.00    +0.085 C 
ATOM     14  C   UNL     1      17.404  -6.472  27.407  0.00  0.00    +0.029 C 
ENDROOT
BRANCH   9  18
ATOM      1  O   UNL     1      17.405  -4.844  25.171  0.00  0.00    -0.419 OA
ATOM      3  N   UNL     1      16.721  -6.364  23.678  0.00  0.00    -0.112 NA
ATOM      4  N   UNL     1      16.686  -5.123  23.071  0.00  0.00    -0.106 NA
ATOM     18  C   UNL     1      17.147  -6.153  24.902  0.00  0.00    +0.222 A 
ATOM     19  C   UNL     1      17.094  -4.266  23.978  0.00  0.00    +0.266 A 
BRANCH  19  20
ATOM      5  N   UNL     1      17.202  -1.914  24.715  0.00  0.00    -0.329 N 
ATOM      6  N   UNL     1      17.389  -0.827  22.788  0.00  0.00    -0.243 NA
ATOM     20  C   UNL     1      17.199  -2.873  23.742  0.00  0.00    +0.125 A 
ATOM     21  C   UNL     1      17.315  -2.179  22.561  0.00  0.00    +0.143 A 
ATOM     22  C   UNL     1      17.319  -0.702  24.095  0.00  0.00    +0.199 A 
ATOM     23  C   UNL     1      17.103  -2.117  26.142  0.00  0.00    +0.150 C 
ENDBRANCH  19  20
ENDBRANCH   9  18
BRANCH   2   8
ATOM      8  C   UNL     1      14.971  -9.146  27.952  0.00  0.00    +0.088 C 
BRANCH   8   7
ATOM      7  C   UNL     1      15.132  -9.213  29.469  0.00  0.00    +0.003 C 
ATOM     10  C   UNL     1      16.120 -10.320  29.862  0.00  0.00    +0.005 C 
ATOM     11  C   UNL     1      13.773  -9.427  30.150  0.00  0.00    +0.005 C 
ATOM     15  C   UNL     1      16.257 -10.442  31.378  0.00  0.00    +0.000 C 
ATOM     16  C   UNL     1      13.915  -9.551  31.665  0.00  0.00    +0.000 C 
ATOM     17  C   UNL     1      14.904 -10.646  32.051  0.00  0.00    +0.000 C 
ENDBRANCH   8   7
ENDBRANCH   2   8
TORSDOF 4
ENDMDL
MODEL 5
REMARK VINA RESULT:      -2.1     17.533     19.394
REMARK  Name = 51137619
REMARK  5 active torsions:
REMARK  status: ('A' for Active; 'I' for Inactive)
REMARK    1  A    between atoms: N_2  and  C_8
REMARK    2  A    between atoms: N_5  and  C_23
REMARK    3  A    between atoms: C_7  and  C_8
REMARK    4  A    between atoms: C_9  and  C_18
REMARK    5  A    between atoms: C_19  and  C_20
REMARK                            x       y       z     vdW  Elec       q    Type
REMARK                         _______ _______ _______ _____ _____    ______ ____
ROOT
ATOM      2  N   UNL     1      -4.294   1.700  24.855  0.00  0.00    -0.301 NA
ATOM      9  C   UNL     1      -2.635   3.351  25.264  0.00  0.00    +0.092 C 
ATOM     12  C   UNL     1      -3.187   2.004  25.766  0.00  0.00    +0.097 C 
ATOM     13  C   UNL     1      -4.900   2.988  24.522  0.00  0.00    +0.085 C 
ATOM     14  C   UNL     1      -3.677   3.847  24.249  0.00  0.00    +0.029 C 
ENDROOT
BRANCH   9  18
ATOM      1  O   UNL     1      -0.755   2.049  24.385  0.00  0.00    -0.419 OA
ATOM      3  N   UNL     1      -0.398   4.257  24.416  0.00  0.00    -0.112 NA
ATOM      4  N   UNL     1       0.731   3.649  23.903  0.00  0.00    -0.106 NA
ATOM     18  C   UNL     1      -1.240   3.285  24.684  0.00  0.00    +0.222 A 
ATOM     19  C   UNL     1       0.478   2.361  23.903  0.00  0.00    +0.266 A 
BRANCH  19  20
ATOM      5  N   UNL     1       1.136   0.051  23.338  0.00  0.00    -0.329 N 
ATOM      6  N   UNL     1       3.236   0.312  22.665  0.00  0.00    -0.243 NA
ATOM     20  C   UNL     1       1.400   1.387  23.446  0.00  0.00    +0.125 A 
ATOM     21  C   UNL     1       2.702   1.524  23.025  0.00  0.00    +0.143 A 
ATOM     22  C   UNL     1       2.267  -0.554  22.865  0.00  0.00    +0.199 A 
ATOM     23  C   UNL     1      -0.101  -0.623  23.656  0.00  0.00    +0.150 C 
ENDBRANCH  19  20
ENDBRANCH   9  18
BRANCH   2   8
ATOM      8  C   UNL     1      -5.251   0.765  25.429  0.00  0.00    +0.088 C 
BRANCH   8   7
ATOM      7  C   UNL     1      -4.800  -0.678  25.210  0.00  0.00    +0.003 C 
ATOM     10  C   UNL     1      -3.595  -1.011  26.100  0.00  0.00    +0.005 C 
ATOM     11  C   UNL     1      -4.472  -0.924  23.731  0.00  0.00    +0.005 C 
ATOM     15  C   UNL     1      -3.092  -2.433  25.859  0.00  0.00    +0.000 C 
ATOM     16  C   UNL     1      -3.967  -2.345  23.495  0.00  0.00    +0.000 C 
ATOM     17  C   UNL     1      -2.775  -2.676  24.387  0.00  0.00    +0.000 C 
ENDBRANCH   8   7
ENDBRANCH   2   8
TORSDOF 4
ENDMDL
MODEL 6
REMARK VINA RESULT:      -1.9     17.787     19.526
REMARK  Name = 51137619
REMARK  5 active torsions:
REMARK  status: ('A' for Active; 'I' for Inactive)
REMARK    1  A    between atoms: N_2  and  C_8
REMARK    2  A    between atoms: N_5  and  C_23
REMARK    3  A    between atoms: C_7  and  C_8
REMARK    4  A    between atoms: C_9  and  C_18
REMARK    5  A    between atoms: C_19  and  C_20
REMARK                            x       y       z     vdW  Elec       q    Type
REMARK                         _______ _______ _______ _____ _____    ______ ____
ROOT
ATOM      2  N   UNL     1      -4.344   1.119  25.105  0.00  0.00    -0.301 NA
ATOM      9  C   UNL     1      -3.348  -0.876  24.284  0.00  0.00    +0.092 C 
ATOM     12  C   UNL     1      -3.768   0.549  23.883  0.00  0.00    +0.097 C 
ATOM     13  C   UNL     1      -5.017   0.010  25.780  0.00  0.00    +0.085 C 
ATOM     14  C   UNL     1      -3.987  -1.099  25.663  0.00  0.00    +0.029 C 
ENDROOT
BRANCH   9  18
ATOM      1  O   UNL     1      -1.078  -0.172  23.691  0.00  0.00    -0.419 OA
ATOM      3  N   UNL     1      -1.171  -2.125  24.779  0.00  0.00    -0.112 NA
ATOM      4  N   UNL     1       0.155  -1.850  24.508  0.00  0.00    -0.106 NA
ATOM     18  C   UNL     1      -1.856  -1.119  24.285  0.00  0.00    +0.222 A 
ATOM     19  C   UNL     1       0.163  -0.702  23.872  0.00  0.00    +0.266 A 
BRANCH  19  20
ATOM      5  N   UNL     1       1.624   1.259  23.547  0.00  0.00    -0.329 N 
ATOM      6  N   UNL     1       3.375   0.373  22.508  0.00  0.00    -0.243 NA
ATOM     20  C   UNL     1       1.347  -0.072  23.416  0.00  0.00    +0.125 A 
ATOM     21  C   UNL     1       2.442  -0.599  22.772  0.00  0.00    +0.143 A 
ATOM     22  C   UNL     1       2.852   1.479  22.988  0.00  0.00    +0.199 A 
ATOM     23  C   UNL     1       0.792   2.268  24.160  0.00  0.00    +0.150 C 
ENDBRANCH  19  20
ENDBRANCH   9  18
BRANCH   2   8
ATOM      8  C   UNL     1      -5.238   2.235  24.836  0.00  0.00    +0.088 C 
BRANCH   8   7
ATOM      7  C   UNL     1      -4.511   3.567  25.003  0.00  0.00    +0.003 C 
ATOM     10  C   UNL     1      -3.696   3.903  23.746  0.00  0.00    +0.005 C 
ATOM     11  C   UNL     1      -3.611   3.542  26.246  0.00  0.00    +0.005 C 
ATOM     15  C   UNL     1      -2.917   5.206  23.910  0.00  0.00    +0.000 C 
ATOM     16  C   UNL     1      -2.832   4.845  26.405  0.00  0.00    +0.000 C 
ATOM     17  C   UNL     1      -2.031   5.179  25.151  0.00  0.00    +0.000 C 
ENDBRANCH   8   7
ENDBRANCH   2   8
TORSDOF 4
ENDMDL
MODEL 7
REMARK VINA RESULT:      -1.5     17.378     19.295
REMARK  Name = 51137619
REMARK  5 active torsions:
REMARK  status: ('A' for Active; 'I' for Inactive)
REMARK    1  A    between atoms: N_2  and  C_8
REMARK    2  A    between atoms: N_5  and  C_23
REMARK    3  A    between atoms: C_7  and  C_8
REMARK    4  A    between atoms: C_9  and  C_18
REMARK    5  A    between atoms: C_19  and  C_20
REMARK                            x       y       z     vdW  Elec       q    Type
REMARK                         _______ _______ _______ _____ _____    ______ ____
ROOT
ATOM      2  N   UNL     1       0.426  -0.295  23.061  0.00  0.00    -0.301 NA
ATOM      9  C   UNL     1      -0.754  -0.160  25.119  0.00  0.00    +0.092 C 
ATOM     12  C   UNL     1       0.087   0.658  24.122  0.00  0.00    +0.097 C 
ATOM     13  C   UNL     1       0.605  -1.584  23.727  0.00  0.00    +0.085 C 
ATOM     14  C   UNL     1      -0.588  -1.619  24.666  0.00  0.00    +0.029 C 
ENDROOT
BRANCH   9  18
ATOM      1  O   UNL     1      -2.451   1.597  25.299  0.00  0.00    -0.419 OA
ATOM      3  N   UNL     1      -3.289  -0.477  25.240  0.00  0.00    -0.112 NA
ATOM      4  N   UNL     1      -4.346   0.408  25.342  0.00  0.00    -0.106 NA
ATOM     18  C   UNL     1      -2.203   0.261  25.218  0.00  0.00    +0.222 A 
ATOM     19  C   UNL     1      -3.810   1.606  25.373  0.00  0.00    +0.266 A 
BRANCH  19  20
ATOM      5  N   UNL     1      -4.047   4.053  25.576  0.00  0.00    -0.329 N 
ATOM      6  N   UNL     1      -6.253   4.310  25.610  0.00  0.00    -0.243 NA
ATOM     20  C   UNL     1      -4.572   2.796  25.475  0.00  0.00    +0.125 A 
ATOM     21  C   UNL     1      -5.935   2.979  25.498  0.00  0.00    +0.143 A 
ATOM     22  C   UNL     1      -5.094   4.929  25.653  0.00  0.00    +0.199 A 
ATOM     23  C   UNL     1      -2.649   4.417  25.597  0.00  0.00    +0.150 C 
ENDBRANCH  19  20
ENDBRANCH   9  18
BRANCH   2   8
ATOM      8  C   UNL     1       1.599   0.109  22.300  0.00  0.00    +0.088 C 
BRANCH   8   7
ATOM      7  C   UNL     1       2.848   0.096  23.179  0.00  0.00    +0.003 C 
ATOM     10  C   UNL     1       3.860   1.145  22.698  0.00  0.00    +0.005 C 
ATOM     11  C   UNL     1       3.480  -1.302  23.205  0.00  0.00    +0.005 C 
ATOM     15  C   UNL     1       5.141   1.115  23.530  0.00  0.00    +0.000 C 
ATOM     16  C   UNL     1       4.760  -1.327  24.035  0.00  0.00    +0.000 C 
ATOM     17  C   UNL     1       5.761  -0.278  23.560  0.00  0.00    +0.000 C 
ENDBRANCH   8   7
ENDBRANCH   2   8
TORSDOF 4
ENDMDL
MODEL 8
REMARK VINA RESULT:      -1.5     18.553     20.705
REMARK  Name = 51137619
REMARK  5 active torsions:
REMARK  status: ('A' for Active; 'I' for Inactive)
REMARK    1  A    between atoms: N_2  and  C_8
REMARK    2  A    between atoms: N_5  and  C_23
REMARK    3  A    between atoms: C_7  and  C_8
REMARK    4  A    between atoms: C_9  and  C_18
REMARK    5  A    between atoms: C_19  and  C_20
REMARK                            x       y       z     vdW  Elec       q    Type
REMARK                         _______ _______ _______ _____ _____    ______ ____
ROOT
ATOM      2  N   UNL     1      -4.569   2.992  25.827  0.00  0.00    -0.301 NA
ATOM      9  C   UNL     1      -5.164   1.196  24.390  0.00  0.00    +0.092 C 
ATOM     12  C   UNL     1      -4.282   2.453  24.494  0.00  0.00    +0.097 C 
ATOM     13  C   UNL     1      -5.985   2.718  26.069  0.00  0.00    +0.085 C 
ATOM     14  C   UNL     1      -6.110   1.279  25.598  0.00  0.00    +0.029 C 
ENDROOT
BRANCH   9  18
ATOM      1  O   UNL     1      -3.096  -0.075  24.719  0.00  0.00    -0.419 OA
ATOM      3  N   UNL     1      -4.808  -1.300  23.960  0.00  0.00    -0.112 NA
ATOM      4  N   UNL     1      -3.714  -2.133  24.099  0.00  0.00    -0.106 NA
ATOM     18  C   UNL     1      -4.401  -0.108  24.333  0.00  0.00    +0.222 A 
ATOM     19  C   UNL     1      -2.739  -1.376  24.545  0.00  0.00    +0.266 A 
BRANCH  19  20
ATOM      5  N   UNL     1      -0.279  -1.196  24.542  0.00  0.00    -0.329 N 
ATOM      6  N   UNL     1       0.334  -3.120  25.466  0.00  0.00    -0.243 NA
ATOM     20  C   UNL     1      -1.437  -1.865  24.818  0.00  0.00    +0.125 A 
ATOM     21  C   UNL     1      -1.034  -3.050  25.388  0.00  0.00    +0.143 A 
ATOM     22  C   UNL     1       0.759  -1.988  24.949  0.00  0.00    +0.199 A 
ATOM     23  C   UNL     1      -0.145   0.108  23.935  0.00  0.00    +0.150 C 
ENDBRANCH  19  20
ENDBRANCH   9  18
BRANCH   2   8
ATOM      8  C   UNL     1      -4.247   4.407  25.941  0.00  0.00    +0.088 C 
BRANCH   8   7
ATOM      7  C   UNL     1      -2.735   4.623  25.927  0.00  0.00    +0.003 C 
ATOM     10  C   UNL     1      -2.315   5.441  24.698  0.00  0.00    +0.005 C 
ATOM     11  C   UNL     1      -1.995   3.279  25.967  0.00  0.00    +0.005 C 
ATOM     15  C   UNL     1      -0.801   5.625  24.635  0.00  0.00    +0.000 C 
ATOM     16  C   UNL     1      -0.482   3.467  25.901  0.00  0.00    +0.000 C 
ATOM     17  C   UNL     1      -0.068   4.288  24.683  0.00  0.00    +0.000 C 
ENDBRANCH   8   7
ENDBRANCH   2   8
TORSDOF 4
ENDMDL
MODEL 9
REMARK VINA RESULT:      -1.2     16.457     18.058
REMARK  Name = 51137619
REMARK  5 active torsions:
REMARK  status: ('A' for Active; 'I' for Inactive)
REMARK    1  A    between atoms: N_2  and  C_8
REMARK    2  A    between atoms: N_5  and  C_23
REMARK    3  A    between atoms: C_7  and  C_8
REMARK    4  A    between atoms: C_9  and  C_18
REMARK    5  A    between atoms: C_19  and  C_20
REMARK                            x       y       z     vdW  Elec       q    Type
REMARK                         _______ _______ _______ _____ _____    ______ ____
ROOT
ATOM      2  N   UNL     1      -1.412   2.263  24.583  0.00  0.00    -0.301 NA
ATOM      9  C   UNL     1      -0.704   0.248  23.541  0.00  0.00    +0.092 C 
ATOM     12  C   UNL     1      -1.377   1.606  23.273  0.00  0.00    +0.097 C 
ATOM     13  C   UNL     1      -1.628   1.194  25.556  0.00  0.00    +0.085 C 
ATOM     14  C   UNL     1      -0.659   0.129  25.072  0.00  0.00    +0.029 C 
ENDROOT
BRANCH   9  18
ATOM      1  O   UNL     1       1.740   0.230  23.711  0.00  0.00    -0.419 OA
ATOM      3  N   UNL     1       0.966  -0.196  21.655  0.00  0.00    -0.112 NA
ATOM      4  N   UNL     1       2.347  -0.237  21.609  0.00  0.00    -0.106 NA
ATOM     18  C   UNL     1       0.656   0.079  22.901  0.00  0.00    +0.222 A 
ATOM     19  C   UNL     1       2.756   0.017  22.831  0.00  0.00    +0.266 A 
BRANCH  19  20
ATOM      5  N   UNL     1       4.826  -0.977  23.731  0.00  0.00    -0.329 N 
ATOM      6  N   UNL     1       6.258   0.714  23.592  0.00  0.00    -0.243 NA
ATOM     20  C   UNL     1       4.122   0.066  23.199  0.00  0.00    +0.125 A 
ATOM     21  C   UNL     1       5.027   1.099  23.123  0.00  0.00    +0.143 A 
ATOM     22  C   UNL     1       6.103  -0.541  23.950  0.00  0.00    +0.199 A 
ATOM     23  C   UNL     1       4.336  -2.305  24.018  0.00  0.00    +0.150 C 
ENDBRANCH  19  20
ENDBRANCH   9  18
BRANCH   2   8
ATOM      8  C   UNL     1      -2.427   3.303  24.661  0.00  0.00    +0.088 C 
BRANCH   8   7
ATOM      7  C   UNL     1      -3.728   2.750  25.238  0.00  0.00    +0.003 C 
ATOM     10  C   UNL     1      -4.207   1.536  24.430  0.00  0.00    +0.005 C 
ATOM     11  C   UNL     1      -4.809   3.839  25.279  0.00  0.00    +0.005 C 
ATOM     15  C   UNL     1      -5.536   0.998  24.956  0.00  0.00    +0.000 C 
ATOM     16  C   UNL     1      -6.136   3.297  25.803  0.00  0.00    +0.000 C 
ATOM     17  C   UNL     1      -6.605   2.085  25.004  0.00  0.00    +0.000 C 
ENDBRANCH   8   7
ENDBRANCH   2   8
TORSDOF 4
ENDMDL
MODEL 10
REMARK VINA RESULT:      -1.2     16.256     17.875
REMARK  Name = 51137619
REMARK  5 active torsions:
REMARK  status: ('A' for Active; 'I' for Inactive)
REMARK    1  A    between atoms: N_2  and  C_8
REMARK    2  A    between atoms: N_5  and  C_23
REMARK    3  A    between atoms: C_7  and  C_8
REMARK    4  A    between atoms: C_9  and  C_18
REMARK    5  A    between atoms: C_19  and  C_20
REMARK                            x       y       z     vdW  Elec       q    Type
REMARK                         _______ _______ _______ _____ _____    ______ ____
ROOT
ATOM      2  N   UNL     1      -2.386   0.322  25.004  0.00  0.00    -0.301 NA
ATOM      9  C   UNL     1      -1.053  -1.191  23.747  0.00  0.00    +0.092 C 
ATOM     12  C   UNL     1      -2.214  -0.186  23.639  0.00  0.00    +0.097 C 
ATOM     13  C   UNL     1      -2.094  -0.806  25.887  0.00  0.00    +0.085 C 
ATOM     14  C   UNL     1      -0.837  -1.380  25.257  0.00  0.00    +0.029 C 
ENDROOT
BRANCH   9  18
ATOM      1  O   UNL     1       1.316  -0.570  23.787  0.00  0.00    -0.419 OA
ATOM      3  N   UNL     1       0.412  -0.586  21.740  0.00  0.00    -0.112 NA
ATOM      4  N   UNL     1       1.740  -0.222  21.618  0.00  0.00    -0.106 NA
ATOM     18  C   UNL     1       0.209  -0.780  23.023  0.00  0.00    +0.222 A 
ATOM     19  C   UNL     1       2.228  -0.226  22.837  0.00  0.00    +0.266 A 
BRANCH  19  20
ATOM      5  N   UNL     1       4.493  -0.778  23.642  0.00  0.00    -0.329 N 
ATOM      6  N   UNL     1       5.556   1.159  23.419  0.00  0.00    -0.243 NA
ATOM     20  C   UNL     1       3.574   0.097  23.137  0.00  0.00    +0.125 A 
ATOM     21  C   UNL     1       4.253   1.286  23.008  0.00  0.00    +0.143 A 
ATOM     22  C   UNL     1       5.668  -0.096  23.794  0.00  0.00    +0.199 A 
ATOM     23  C   UNL     1       4.289  -2.172  23.964  0.00  0.00    +0.150 C 
ENDBRANCH  19  20
ENDBRANCH   9  18
BRANCH   2   8
ATOM      8  C   UNL     1      -3.711   0.880  25.230  0.00  0.00    +0.088 C 
BRANCH   8   7
ATOM      7  C   UNL     1      -3.652   2.404  25.315  0.00  0.00    +0.003 C 
ATOM     10  C   UNL     1      -3.982   3.036  23.955  0.00  0.00    +0.005 C 
ATOM     11  C   UNL     1      -2.276   2.867  25.813  0.00  0.00    +0.005 C 
ATOM     15  C   UNL     1      -3.877   4.559  24.002  0.00  0.00    +0.000 C 
ATOM     16  C   UNL     1      -2.174   4.389  25.855  0.00  0.00    +0.000 C 
ATOM     17  C   UNL     1      -2.511   5.014  24.505  0.00  0.00    +0.000 C 
ENDBRANCH   8   7
ENDBRANCH   2   8
TORSDOF 4
ENDMDL
