MODEL 1
REMARK VINA RESULT:      -4.5      0.000      0.000
REMARK  Name = 25389078
REMARK  7 active torsions:
REMARK  status: ('A' for Active; 'I' for Inactive)
REMARK    1  A    between atoms: S_1  and  N_6
REMARK    2  A    between atoms: S_1  and  C_25
REMARK    3  A    between atoms: N_5  and  C_24
REMARK    4  A    between atoms: N_6  and  C_16
REMARK    5  A    between atoms: C_9  and  C_15
REMARK    6  A    between atoms: C_10  and  C_16
REMARK    7  A    between atoms: C_18  and  C_19
REMARK                            x       y       z     vdW  Elec       q    Type
REMARK                         _______ _______ _______ _____ _____    ______ ____
ROOT
ATOM      4  N   UNL     1      -5.840 -10.110   9.241  0.00  0.00    -0.297 NA
ATOM      8  C   UNL     1      -4.364  -9.215  11.190  0.00  0.00    +0.002 C 
ATOM      9  C   UNL     1      -5.248 -10.396  11.676  0.00  0.00    +0.055 C 
ATOM     10  C   UNL     1      -5.969  -8.632   9.337  0.00  0.00    +0.072 C 
ATOM     11  C   UNL     1      -5.268  -8.107  10.609  0.00  0.00    +0.024 C 
ATOM     12  C   UNL     1      -6.236 -10.740  10.524  0.00  0.00    +0.094 C 
ATOM     13  C   UNL     1      -3.501  -9.752  10.028  0.00  0.00    +0.019 C 
ATOM     14  C   UNL     1      -4.414 -10.427   8.990  0.00  0.00    +0.085 C 
ENDROOT
BRANCH   9  15
ATOM      5  N   UNL     1      -5.295 -10.354  14.213  0.00  0.00    -0.271 N 
ATOM      7  N   UNL     1      -6.096 -10.210  15.283  0.00  0.00    -0.176 NA
ATOM     15  C   UNL     1      -5.950 -10.264  13.019  0.00  0.00    +0.044 A 
ATOM     17  C   UNL     1      -7.270 -10.046  13.331  0.00  0.00    +0.048 A 
ATOM     19  C   UNL     1      -7.301 -10.022  14.738  0.00  0.00    +0.066 A 
ATOM     24  C   UNL     1      -3.883 -10.583  14.414  0.00  0.00    +0.172 C 
BRANCH  19  18
ATOM     18  C   UNL     1      -8.504  -9.813  15.630  0.00  0.00    +0.040 C 
ATOM     20  C   UNL     1      -8.160  -9.029  16.909  0.00  0.00    +0.010 C 
ATOM     21  C   UNL     1      -9.665  -9.043  14.967  0.00  0.00    +0.010 C 
ATOM     22  C   UNL     1      -9.390  -8.175  17.181  0.00  0.00    +0.001 C 
ATOM     23  C   UNL     1      -9.840  -7.770  15.788  0.00  0.00    +0.001 C 
ENDBRANCH  19  18
ENDBRANCH   9  15
BRANCH  10  16
ATOM     16  C   UNL     1      -7.424  -8.166   9.253  0.00  0.00    +0.124 C 
BRANCH  16   6
ATOM      6  N   UNL     1      -8.218  -9.185   8.548  0.00  0.00    -0.193 NA
ATOM     26  H   UNL     1      -7.649  -9.938   8.139  0.00  0.00    +0.148 HD
BRANCH   6   1
ATOM      1  S   UNL     1      -9.738  -9.643   9.178  0.00  0.00    +0.027 S 
ATOM      2  O   UNL     1      -9.570 -10.204  10.505  0.00  0.00    -0.158 OA
ATOM      3  O   UNL     1     -10.462 -10.369   8.153  0.00  0.00    -0.158 OA
ATOM     25  C   UNL     1     -10.512  -8.051   9.351  0.00  0.00    +0.214 C 
ENDBRANCH   6   1
ENDBRANCH  16   6
ENDBRANCH  10  16
TORSDOF 5
ENDMDL
MODEL 2
REMARK VINA RESULT:      -3.2     16.223     18.109
REMARK  Name = 25389078
REMARK  7 active torsions:
REMARK  status: ('A' for Active; 'I' for Inactive)
REMARK    1  A    between atoms: S_1  and  N_6
REMARK    2  A    between atoms: S_1  and  C_25
REMARK    3  A    between atoms: N_5  and  C_24
REMARK    4  A    between atoms: N_6  and  C_16
REMARK    5  A    between atoms: C_9  and  C_15
REMARK    6  A    between atoms: C_10  and  C_16
REMARK    7  A    between atoms: C_18  and  C_19
REMARK                            x       y       z     vdW  Elec       q    Type
REMARK                         _______ _______ _______ _____ _____    ______ ____
ROOT
ATOM      4  N   UNL     1      -3.623   0.249  25.569  0.00  0.00    -0.297 NA
ATOM      8  C   UNL     1      -2.512  -1.432  23.919  0.00  0.00    +0.002 C 
ATOM      9  C   UNL     1      -1.446  -0.812  24.864  0.00  0.00    +0.055 C 
ATOM     10  C   UNL     1      -4.050   0.547  24.177  0.00  0.00    +0.072 C 
ATOM     11  C   UNL     1      -3.247  -0.301  23.168  0.00  0.00    +0.024 C 
ATOM     12  C   UNL     1      -2.145   0.318  25.673  0.00  0.00    +0.094 C 
ATOM     13  C   UNL     1      -3.554  -2.129  24.821  0.00  0.00    +0.019 C 
ATOM     14  C   UNL     1      -4.046  -1.136  25.888  0.00  0.00    +0.085 C 
ENDROOT
BRANCH   9  15
ATOM      5  N   UNL     1       0.151   0.948  23.973  0.00  0.00    -0.271 N 
ATOM      7  N   UNL     1       1.371   1.139  23.442  0.00  0.00    -0.176 NA
ATOM     15  C   UNL     1      -0.126  -0.357  24.258  0.00  0.00    +0.044 A 
ATOM     17  C   UNL     1       0.989  -1.068  23.888  0.00  0.00    +0.048 A 
ATOM     19  C   UNL     1       1.879  -0.095  23.393  0.00  0.00    +0.066 A 
ATOM     24  C   UNL     1      -0.714   2.085  24.181  0.00  0.00    +0.172 C 
BRANCH  19  18
ATOM     18  C   UNL     1       3.271  -0.313  22.845  0.00  0.00    +0.040 C 
ATOM     20  C   UNL     1       4.122   0.969  22.872  0.00  0.00    +0.010 C 
ATOM     21  C   UNL     1       4.095  -1.377  23.600  0.00  0.00    +0.010 C 
ATOM     22  C   UNL     1       5.533   0.490  23.181  0.00  0.00    +0.001 C 
ATOM     23  C   UNL     1       5.302  -0.640  24.169  0.00  0.00    +0.001 C 
ENDBRANCH  19  18
ENDBRANCH   9  15
BRANCH  10  16
ATOM     16  C   UNL     1      -3.979   2.040  23.852  0.00  0.00    +0.124 C 
BRANCH  16   6
ATOM      6  N   UNL     1      -5.251   2.679  24.229  0.00  0.00    -0.193 NA
ATOM     26  H   UNL     1      -6.080   2.165  23.903  0.00  0.00    +0.148 HD
BRANCH   6   1
ATOM      1  S   UNL     1      -5.384   3.440  25.752  0.00  0.00    +0.027 S 
ATOM      2  O   UNL     1      -5.822   2.479  26.744  0.00  0.00    -0.158 OA
ATOM      3  O   UNL     1      -6.083   4.699  25.579  0.00  0.00    -0.158 OA
ATOM     25  C   UNL     1      -3.676   3.820  26.075  0.00  0.00    +0.214 C 
ENDBRANCH   6   1
ENDBRANCH  16   6
ENDBRANCH  10  16
TORSDOF 5
ENDMDL
MODEL 3
REMARK VINA RESULT:      -2.2     15.483     18.018
REMARK  Name = 25389078
REMARK  7 active torsions:
REMARK  status: ('A' for Active; 'I' for Inactive)
REMARK    1  A    between atoms: S_1  and  N_6
REMARK    2  A    between atoms: S_1  and  C_25
REMARK    3  A    between atoms: N_5  and  C_24
REMARK    4  A    between atoms: N_6  and  C_16
REMARK    5  A    between atoms: C_9  and  C_15
REMARK    6  A    between atoms: C_10  and  C_16
REMARK    7  A    between atoms: C_18  and  C_19
REMARK                            x       y       z     vdW  Elec       q    Type
REMARK                         _______ _______ _______ _____ _____    ______ ____
ROOT
ATOM      4  N   UNL     1      -2.932   4.524  24.556  0.00  0.00    -0.297 NA
ATOM      8  C   UNL     1      -0.594   3.679  25.330  0.00  0.00    +0.002 C 
ATOM      9  C   UNL     1      -1.121   2.816  24.150  0.00  0.00    +0.055 C 
ATOM     10  C   UNL     1      -2.922   4.338  26.032  0.00  0.00    +0.072 C 
ATOM     11  C   UNL     1      -1.619   3.645  26.484  0.00  0.00    +0.024 C 
ATOM     12  C   UNL     1      -2.591   3.248  23.881  0.00  0.00    +0.094 C 
ATOM     13  C   UNL     1      -0.530   5.136  24.823  0.00  0.00    +0.019 C 
ATOM     14  C   UNL     1      -1.890   5.521  24.216  0.00  0.00    +0.085 C 
ENDROOT
BRANCH   9  15
ATOM      5  N   UNL     1       0.191   0.654  23.939  0.00  0.00    -0.271 N 
ATOM      7  N   UNL     1       0.118  -0.680  24.083  0.00  0.00    -0.176 NA
ATOM     15  C   UNL     1      -0.969   1.305  24.241  0.00  0.00    +0.044 A 
ATOM     17  C   UNL     1      -1.863   0.329  24.607  0.00  0.00    +0.048 A 
ATOM     19  C   UNL     1      -1.139  -0.873  24.492  0.00  0.00    +0.066 A 
ATOM     24  C   UNL     1       1.431   1.249  23.497  0.00  0.00    +0.172 C 
BRANCH  19  18
ATOM     18  C   UNL     1      -1.630  -2.276  24.774  0.00  0.00    +0.040 C 
ATOM     20  C   UNL     1      -2.771  -2.304  25.807  0.00  0.00    +0.010 C 
ATOM     21  C   UNL     1      -2.168  -3.025  23.537  0.00  0.00    +0.010 C 
ATOM     22  C   UNL     1      -3.682  -3.432  25.347  0.00  0.00    +0.001 C 
ATOM     23  C   UNL     1      -3.636  -3.313  23.833  0.00  0.00    +0.001 C 
ENDBRANCH  19  18
ENDBRANCH   9  15
BRANCH  10  16
ATOM     16  C   UNL     1      -4.165   3.602  26.536  0.00  0.00    +0.124 C 
BRANCH  16   6
ATOM      6  N   UNL     1      -5.036   3.284  25.392  0.00  0.00    -0.193 NA
ATOM     26  H   UNL     1      -4.610   3.495  24.481  0.00  0.00    +0.148 HD
BRANCH   6   1
ATOM      1  S   UNL     1      -6.027   1.895  25.459  0.00  0.00    +0.027 S 
ATOM      2  O   UNL     1      -6.973   1.914  24.361  0.00  0.00    -0.158 OA
ATOM      3  O   UNL     1      -6.480   1.717  26.825  0.00  0.00    -0.158 OA
ATOM     25  C   UNL     1      -4.828   0.623  25.127  0.00  0.00    +0.214 C 
ENDBRANCH   6   1
ENDBRANCH  16   6
ENDBRANCH  10  16
TORSDOF 5
ENDMDL
MODEL 4
REMARK VINA RESULT:      -1.7     15.647     18.051
REMARK  Name = 25389078
REMARK  7 active torsions:
REMARK  status: ('A' for Active; 'I' for Inactive)
REMARK    1  A    between atoms: S_1  and  N_6
REMARK    2  A    between atoms: S_1  and  C_25
REMARK    3  A    between atoms: N_5  and  C_24
REMARK    4  A    between atoms: N_6  and  C_16
REMARK    5  A    between atoms: C_9  and  C_15
REMARK    6  A    between atoms: C_10  and  C_16
REMARK    7  A    between atoms: C_18  and  C_19
REMARK                            x       y       z     vdW  Elec       q    Type
REMARK                         _______ _______ _______ _____ _____    ______ ____
ROOT
ATOM      4  N   UNL     1      -4.581   2.002  23.773  0.00  0.00    -0.297 NA
ATOM      8  C   UNL     1      -2.902   2.517  25.695  0.00  0.00    +0.002 C 
ATOM      9  C   UNL     1      -2.213   2.681  24.312  0.00  0.00    +0.055 C 
ATOM     10  C   UNL     1      -4.607   0.906  24.778  0.00  0.00    +0.072 C 
ATOM     11  C   UNL     1      -3.476   1.090  25.812  0.00  0.00    +0.024 C 
ATOM     12  C   UNL     1      -3.209   2.165  23.234  0.00  0.00    +0.094 C 
ATOM     13  C   UNL     1      -4.099   3.491  25.714  0.00  0.00    +0.019 C 
ATOM     14  C   UNL     1      -4.962   3.258  24.462  0.00  0.00    +0.085 C 
ENDROOT
BRANCH   9  15
ATOM      5  N   UNL     1       0.139   2.150  25.105  0.00  0.00    -0.271 N 
ATOM      7  N   UNL     1       1.305   1.585  24.747  0.00  0.00    -0.176 NA
ATOM     15  C   UNL     1      -0.817   2.104  24.132  0.00  0.00    +0.044 A 
ATOM     17  C   UNL     1      -0.235   1.466  23.064  0.00  0.00    +0.048 A 
ATOM     19  C   UNL     1       1.071   1.168  23.500  0.00  0.00    +0.066 A 
ATOM     24  C   UNL     1       0.010   2.728  26.422  0.00  0.00    +0.172 C 
BRANCH  19  18
ATOM     18  C   UNL     1       2.162   0.462  22.726  0.00  0.00    +0.040 C 
ATOM     20  C   UNL     1       3.486   1.248  22.725  0.00  0.00    +0.010 C 
ATOM     21  C   UNL     1       2.511  -0.945  23.254  0.00  0.00    +0.010 C 
ATOM     22  C   UNL     1       4.569   0.180  22.771  0.00  0.00    +0.001 C 
ATOM     23  C   UNL     1       3.971  -0.874  23.688  0.00  0.00    +0.001 C 
ENDBRANCH  19  18
ENDBRANCH   9  15
BRANCH  10  16
ATOM     16  C   UNL     1      -4.569  -0.480  24.131  0.00  0.00    +0.124 C 
BRANCH  16   6
ATOM      6  N   UNL     1      -3.169  -0.853  23.868  0.00  0.00    -0.193 NA
ATOM     26  H   UNL     1      -2.549  -0.045  23.728  0.00  0.00    +0.148 HD
BRANCH   6   1
ATOM      1  S   UNL     1      -2.494  -2.191  24.688  0.00  0.00    +0.027 S 
ATOM      2  O   UNL     1      -2.021  -3.168  23.726  0.00  0.00    -0.158 OA
ATOM      3  O   UNL     1      -3.393  -2.578  25.757  0.00  0.00    -0.158 OA
ATOM     25  C   UNL     1      -1.072  -1.429  25.438  0.00  0.00    +0.214 C 
ENDBRANCH   6   1
ENDBRANCH  16   6
ENDBRANCH  10  16
TORSDOF 5
ENDMDL
MODEL 5
REMARK VINA RESULT:      -1.6     15.614     18.143
REMARK  Name = 25389078
REMARK  7 active torsions:
REMARK  status: ('A' for Active; 'I' for Inactive)
REMARK    1  A    between atoms: S_1  and  N_6
REMARK    2  A    between atoms: S_1  and  C_25
REMARK    3  A    between atoms: N_5  and  C_24
REMARK    4  A    between atoms: N_6  and  C_16
REMARK    5  A    between atoms: C_9  and  C_15
REMARK    6  A    between atoms: C_10  and  C_16
REMARK    7  A    between atoms: C_18  and  C_19
REMARK                            x       y       z     vdW  Elec       q    Type
REMARK                         _______ _______ _______ _____ _____    ______ ____
ROOT
ATOM      4  N   UNL     1      -3.045   2.797  24.313  0.00  0.00    -0.297 NA
ATOM      8  C   UNL     1      -0.879   2.467  25.720  0.00  0.00    +0.002 C 
ATOM      9  C   UNL     1      -0.537   2.551  24.207  0.00  0.00    +0.055 C 
ATOM     10  C   UNL     1      -3.222   1.663  25.259  0.00  0.00    +0.072 C 
ATOM     11  C   UNL     1      -1.886   1.321  25.952  0.00  0.00    +0.024 C 
ATOM     12  C   UNL     1      -1.882   2.544  23.427  0.00  0.00    +0.094 C 
ATOM     13  C   UNL     1      -1.598   3.783  26.088  0.00  0.00    +0.019 C 
ATOM     14  C   UNL     1      -2.763   4.014  25.111  0.00  0.00    +0.085 C 
ENDROOT
BRANCH   9  15
ATOM      5  N   UNL     1       0.096   0.447  22.938  0.00  0.00    -0.271 N 
ATOM      7  N   UNL     1       1.132  -0.304  22.525  0.00  0.00    -0.176 NA
ATOM     15  C   UNL     1       0.465   1.556  23.641  0.00  0.00    +0.044 A 
ATOM     17  C   UNL     1       1.838   1.529  23.691  0.00  0.00    +0.048 A 
ATOM     19  C   UNL     1       2.193   0.363  22.988  0.00  0.00    +0.066 A 
ATOM     24  C   UNL     1      -1.249   0.029  22.617  0.00  0.00    +0.172 C 
BRANCH  19  18
ATOM     18  C   UNL     1       3.586  -0.167  22.726  0.00  0.00    +0.040 C 
ATOM     20  C   UNL     1       4.665   0.923  22.855  0.00  0.00    +0.010 C 
ATOM     21  C   UNL     1       4.025  -1.304  23.673  0.00  0.00    +0.010 C 
ATOM     22  C   UNL     1       5.869   0.207  23.449  0.00  0.00    +0.001 C 
ATOM     23  C   UNL     1       5.237  -0.770  24.427  0.00  0.00    +0.001 C 
ENDBRANCH  19  18
ENDBRANCH   9  15
BRANCH  10  16
ATOM     16  C   UNL     1      -3.848   0.438  24.590  0.00  0.00    +0.124 C 
BRANCH  16   6
ATOM      6  N   UNL     1      -3.638  -0.741  25.446  0.00  0.00    -0.193 NA
ATOM     26  H   UNL     1      -4.198  -0.727  26.308  0.00  0.00    +0.148 HD
BRANCH   6   1
ATOM      1  S   UNL     1      -3.406  -2.269  24.720  0.00  0.00    +0.027 S 
ATOM      2  O   UNL     1      -4.078  -2.310  23.436  0.00  0.00    -0.158 OA
ATOM      3  O   UNL     1      -3.649  -3.295  25.716  0.00  0.00    -0.158 OA
ATOM     25  C   UNL     1      -1.653  -2.225  24.419  0.00  0.00    +0.214 C 
ENDBRANCH   6   1
ENDBRANCH  16   6
ENDBRANCH  10  16
TORSDOF 5
ENDMDL
MODEL 6
REMARK VINA RESULT:      -1.6     15.282     17.996
REMARK  Name = 25389078
REMARK  7 active torsions:
REMARK  status: ('A' for Active; 'I' for Inactive)
REMARK    1  A    between atoms: S_1  and  N_6
REMARK    2  A    between atoms: S_1  and  C_25
REMARK    3  A    between atoms: N_5  and  C_24
REMARK    4  A    between atoms: N_6  and  C_16
REMARK    5  A    between atoms: C_9  and  C_15
REMARK    6  A    between atoms: C_10  and  C_16
REMARK    7  A    between atoms: C_18  and  C_19
REMARK                            x       y       z     vdW  Elec       q    Type
REMARK                         _______ _______ _______ _____ _____    ______ ____
ROOT
ATOM      4  N   UNL     1      -2.432  -2.257  23.764  0.00  0.00    -0.297 NA
ATOM      8  C   UNL     1      -3.456  -1.416  26.006  0.00  0.00    +0.002 C 
ATOM      9  C   UNL     1      -3.834  -0.458  24.842  0.00  0.00    +0.055 C 
ATOM     10  C   UNL     1      -1.384  -2.219  24.818  0.00  0.00    +0.072 C 
ATOM     11  C   UNL     1      -1.919  -1.531  26.092  0.00  0.00    +0.024 C 
ATOM     12  C   UNL     1      -3.028  -0.909  23.591  0.00  0.00    +0.094 C 
ATOM     13  C   UNL     1      -3.994  -2.812  25.627  0.00  0.00    +0.019 C 
ATOM     14  C   UNL     1      -3.500  -3.180  24.218  0.00  0.00    +0.085 C 
ENDROOT
BRANCH   9  15
ATOM      5  N   UNL     1      -4.825   1.859  25.141  0.00  0.00    -0.271 N 
ATOM      7  N   UNL     1      -4.523   3.150  25.363  0.00  0.00    -0.176 NA
ATOM     15  C   UNL     1      -3.735   1.041  25.084  0.00  0.00    +0.044 A 
ATOM     17  C   UNL     1      -2.645   1.853  25.281  0.00  0.00    +0.048 A 
ATOM     19  C   UNL     1      -3.190   3.140  25.448  0.00  0.00    +0.066 A 
ATOM     24  C   UNL     1      -6.209   1.474  24.989  0.00  0.00    +0.172 C 
BRANCH  19  18
ATOM     18  C   UNL     1      -2.445   4.432  25.700  0.00  0.00    +0.040 C 
ATOM     20  C   UNL     1      -0.933   4.300  25.440  0.00  0.00    +0.010 C 
ATOM     21  C   UNL     1      -2.915   5.621  24.836  0.00  0.00    +0.010 C 
ATOM     22  C   UNL     1      -0.521   5.646  24.863  0.00  0.00    +0.001 C 
ATOM     23  C   UNL     1      -1.710   6.024  23.995  0.00  0.00    +0.001 C 
ENDBRANCH  19  18
ENDBRANCH   9  15
BRANCH  10  16
ATOM     16  C   UNL     1      -0.085  -1.578  24.326  0.00  0.00    +0.124 C 
BRANCH  16   6
ATOM      6  N   UNL     1      -0.048  -0.169  24.752  0.00  0.00    -0.193 NA
ATOM     26  H   UNL     1       0.289  -0.040  25.714  0.00  0.00    +0.148 HD
BRANCH   6   1
ATOM      1  S   UNL     1       0.404   1.032  23.625  0.00  0.00    +0.027 S 
ATOM      2  O   UNL     1       1.203   2.047  24.283  0.00  0.00    -0.158 OA
ATOM      3  O   UNL     1      -0.764   1.397  22.847  0.00  0.00    -0.158 OA
ATOM     25  C   UNL     1       1.478   0.094  22.562  0.00  0.00    +0.214 C 
ENDBRANCH   6   1
ENDBRANCH  16   6
ENDBRANCH  10  16
TORSDOF 5
ENDMDL
MODEL 7
REMARK VINA RESULT:      -1.2     15.251     17.737
REMARK  Name = 25389078
REMARK  7 active torsions:
REMARK  status: ('A' for Active; 'I' for Inactive)
REMARK    1  A    between atoms: S_1  and  N_6
REMARK    2  A    between atoms: S_1  and  C_25
REMARK    3  A    between atoms: N_5  and  C_24
REMARK    4  A    between atoms: N_6  and  C_16
REMARK    5  A    between atoms: C_9  and  C_15
REMARK    6  A    between atoms: C_10  and  C_16
REMARK    7  A    between atoms: C_18  and  C_19
REMARK                            x       y       z     vdW  Elec       q    Type
REMARK                         _______ _______ _______ _____ _____    ______ ____
ROOT
ATOM      4  N   UNL     1      -3.687  -2.178  25.513  0.00  0.00    -0.297 NA
ATOM      8  C   UNL     1      -2.041  -1.682  23.557  0.00  0.00    +0.002 C 
ATOM      9  C   UNL     1      -1.505  -1.079  24.885  0.00  0.00    +0.055 C 
ATOM     10  C   UNL     1      -4.429  -1.605  24.358  0.00  0.00    +0.072 C 
ATOM     11  C   UNL     1      -3.448  -1.115  23.272  0.00  0.00    +0.024 C 
ATOM     12  C   UNL     1      -2.626  -1.238  25.952  0.00  0.00    +0.094 C 
ATOM     13  C   UNL     1      -2.202  -3.199  23.790  0.00  0.00    +0.019 C 
ATOM     14  C   UNL     1      -3.038  -3.431  25.061  0.00  0.00    +0.085 C 
ENDROOT
BRANCH   9  15
ATOM      5  N   UNL     1       0.186   0.663  24.147  0.00  0.00    -0.271 N 
ATOM      7  N   UNL     1       0.528   1.959  24.252  0.00  0.00    -0.176 NA
ATOM     15  C   UNL     1      -0.932   0.330  24.855  0.00  0.00    +0.044 A 
ATOM     17  C   UNL     1      -1.348   1.487  25.466  0.00  0.00    +0.048 A 
ATOM     19  C   UNL     1      -0.413   2.457  25.058  0.00  0.00    +0.066 A 
ATOM     24  C   UNL     1       0.994  -0.216  23.335  0.00  0.00    +0.172 C 
BRANCH  19  18
ATOM     18  C   UNL     1      -0.383   3.923  25.431  0.00  0.00    +0.040 C 
ATOM     20  C   UNL     1      -0.180   4.837  24.209  0.00  0.00    +0.010 C 
ATOM     21  C   UNL     1      -1.663   4.432  26.125  0.00  0.00    +0.010 C 
ATOM     22  C   UNL     1      -1.014   6.074  24.510  0.00  0.00    +0.001 C 
ATOM     23  C   UNL     1      -2.238   5.502  25.204  0.00  0.00    +0.001 C 
ENDBRANCH  19  18
ENDBRANCH   9  15
BRANCH  10  16
ATOM     16  C   UNL     1      -5.409  -0.509  24.779  0.00  0.00    +0.124 C 
BRANCH  16   6
ATOM      6  N   UNL     1      -4.652   0.691  25.173  0.00  0.00    -0.193 NA
ATOM     26  H   UNL     1      -3.663   0.662  24.894  0.00  0.00    +0.148 HD
BRANCH   6   1
ATOM      1  S   UNL     1      -5.414   2.219  25.101  0.00  0.00    +0.027 S 
ATOM      2  O   UNL     1      -5.243   2.912  26.362  0.00  0.00    -0.158 OA
ATOM      3  O   UNL     1      -6.732   2.050  24.520  0.00  0.00    -0.158 OA
ATOM     25  C   UNL     1      -4.398   3.032  23.887  0.00  0.00    +0.214 C 
ENDBRANCH   6   1
ENDBRANCH  16   6
ENDBRANCH  10  16
TORSDOF 5
ENDMDL
MODEL 8
REMARK VINA RESULT:      -0.6     16.604     18.585
REMARK  Name = 25389078
REMARK  7 active torsions:
REMARK  status: ('A' for Active; 'I' for Inactive)
REMARK    1  A    between atoms: S_1  and  N_6
REMARK    2  A    between atoms: S_1  and  C_25
REMARK    3  A    between atoms: N_5  and  C_24
REMARK    4  A    between atoms: N_6  and  C_16
REMARK    5  A    between atoms: C_9  and  C_15
REMARK    6  A    between atoms: C_10  and  C_16
REMARK    7  A    between atoms: C_18  and  C_19
REMARK                            x       y       z     vdW  Elec       q    Type
REMARK                         _______ _______ _______ _____ _____    ______ ____
ROOT
ATOM      4  N   UNL     1      -2.898   3.117  23.912  0.00  0.00    -0.297 NA
ATOM      8  C   UNL     1      -0.775   3.007  25.415  0.00  0.00    +0.002 C 
ATOM      9  C   UNL     1      -0.405   2.736  23.931  0.00  0.00    +0.055 C 
ATOM     10  C   UNL     1      -3.148   2.231  25.080  0.00  0.00    +0.072 C 
ATOM     11  C   UNL     1      -1.843   1.989  25.868  0.00  0.00    +0.024 C 
ATOM     12  C   UNL     1      -1.737   2.619  23.136  0.00  0.00    +0.094 C 
ATOM     13  C   UNL     1      -1.430   4.404  25.463  0.00  0.00    +0.019 C 
ATOM     14  C   UNL     1      -2.566   4.467  24.429  0.00  0.00    +0.085 C 
ENDROOT
BRANCH   9  15
ATOM      5  N   UNL     1       0.165   0.287  23.588  0.00  0.00    -0.271 N 
ATOM      7  N   UNL     1       1.162  -0.567  23.301  0.00  0.00    -0.176 NA
ATOM     15  C   UNL     1       0.553   1.595  23.625  0.00  0.00    +0.044 A 
ATOM     17  C   UNL     1       1.898   1.595  23.344  0.00  0.00    +0.048 A 
ATOM     19  C   UNL     1       2.218   0.238  23.152  0.00  0.00    +0.066 A 
ATOM     24  C   UNL     1      -1.163  -0.232  23.821  0.00  0.00    +0.172 C 
BRANCH  19  18
ATOM     18  C   UNL     1       3.570  -0.351  22.814  0.00  0.00    +0.040 C 
ATOM     20  C   UNL     1       4.674   0.718  22.732  0.00  0.00    +0.010 C 
ATOM     21  C   UNL     1       4.079  -1.403  23.822  0.00  0.00    +0.010 C 
ATOM     22  C   UNL     1       5.918   0.031  23.278  0.00  0.00    +0.001 C 
ATOM     23  C   UNL     1       5.368  -0.830  24.402  0.00  0.00    +0.001 C 
ENDBRANCH  19  18
ENDBRANCH   9  15
BRANCH  10  16
ATOM     16  C   UNL     1      -3.827   0.919  24.683  0.00  0.00    +0.124 C 
BRANCH  16   6
ATOM      6  N   UNL     1      -4.892   0.612  25.651  0.00  0.00    -0.193 NA
ATOM     26  H   UNL     1      -4.543   0.213  26.532  0.00  0.00    +0.148 HD
BRANCH   6   1
ATOM      1  S   UNL     1      -6.234   1.661  25.775  0.00  0.00    +0.027 S 
ATOM      2  O   UNL     1      -6.975   1.369  26.987  0.00  0.00    -0.158 OA
ATOM      3  O   UNL     1      -6.904   1.707  24.490  0.00  0.00    -0.158 OA
ATOM     25  C   UNL     1      -5.409   3.221  26.000  0.00  0.00    +0.214 C 
ENDBRANCH   6   1
ENDBRANCH  16   6
ENDBRANCH  10  16
TORSDOF 5
ENDMDL
