MODEL 1
REMARK VINA RESULT:      20.2      0.000      0.000
REMARK  Name = 7143032
REMARK  9 active torsions:
REMARK  status: ('A' for Active; 'I' for Inactive)
REMARK    1  A    between atoms: O_4  and  C_29
REMARK    2  A    between atoms: O_4  and  C_33
REMARK    3  A    between atoms: O_5  and  C_34
REMARK    4  A    between atoms: O_5  and  C_37
REMARK    5  A    between atoms: O_6  and  C_35
REMARK    6  A    between atoms: O_6  and  C_38
REMARK    7  A    between atoms: N_9  and  C_21
REMARK    8  A    between atoms: N_10  and  C_30
REMARK    9  A    between atoms: C_20  and  C_23
REMARK                            x       y       z     vdW  Elec       q    Type
REMARK                         _______ _______ _______ _____ _____    ______ ____
ROOT
ATOM      1  O   UNL     1      -0.553   3.484  25.571  0.00  0.00    -0.266 OA
ATOM      2  O   UNL     1      -3.802  -0.121  27.357  0.00  0.00    -0.270 OA
ATOM      7  N   UNL     1      -4.906   1.049  25.658  0.00  0.00    -0.297 N 
ATOM      8  N   UNL     1      -2.652   3.038  24.647  0.00  0.00    -0.310 N 
ATOM     11  C   UNL     1      -4.843   3.526  25.883  0.00  0.00    +0.027 C 
ATOM     12  C   UNL     1      -4.901   2.502  23.644  0.00  0.00    +0.054 C 
ATOM     13  C   UNL     1      -5.435   3.661  24.485  0.00  0.00    +0.018 C 
ATOM     14  C   UNL     1      -5.253   2.183  26.513  0.00  0.00    +0.113 C 
ATOM     15  C   UNL     1      -3.319   3.678  25.790  0.00  0.00    +0.130 C 
ATOM     16  C   UNL     1      -5.355   1.164  24.261  0.00  0.00    +0.117 C 
ATOM     17  C   UNL     1      -3.386   2.540  23.565  0.00  0.00    +0.027 A 
ATOM     18  C   UNL     1      -2.753   2.064  22.479  0.00  0.00    +0.024 A 
ATOM     19  C   UNL     1      -1.243   3.043  24.651  0.00  0.00    +0.273 A 
ATOM     20  C   UNL     1      -4.180  -0.019  26.191  0.00  0.00    +0.247 C 
ATOM     21  C   UNL     1      -0.575   2.479  23.434  0.00  0.00    +0.100 A 
ATOM     22  C   UNL     1      -1.319   2.034  22.416  0.00  0.00    +0.030 A 
ENDROOT
BRANCH  21   9
ATOM      3  O   UNL     1       1.054   0.157  23.625  0.00  0.00    -0.252 OA
ATOM      9  N   UNL     1       0.787   2.450  23.408  0.00  0.00    -0.265 N 
ATOM     10  N   UNL     1       2.911   1.580  23.447  0.00  0.00    -0.269 N 
ATOM     26  C   UNL     1       1.547   1.276  23.506  0.00  0.00    +0.308 C 
ATOM     39  H   UNL     1       1.271   3.330  23.571  0.00  0.00    +0.157 HD
ATOM     40  H   UNL     1       3.154   2.563  23.343  0.00  0.00    +0.156 HD
BRANCH  10  30
ATOM     30  C   UNL     1       4.005   0.685  23.511  0.00  0.00    +0.042 A 
ATOM     31  C   UNL     1       3.779  -0.682  23.672  0.00  0.00    +0.069 A 
ATOM     32  C   UNL     1       5.309   1.170  23.413  0.00  0.00    +0.069 A 
ATOM     34  C   UNL     1       6.387   0.288  23.476  0.00  0.00    +0.125 A 
ATOM     35  C   UNL     1       4.857  -1.564  23.735  0.00  0.00    +0.125 A 
ATOM     36  C   UNL     1       6.161  -1.080  23.637  0.00  0.00    +0.091 A 
BRANCH  34   5
ATOM      5  O   UNL     1       7.659   0.761  23.382  0.00  0.00    -0.495 OA
ATOM     37  C   UNL     1       8.683  -0.182  23.067  0.00  0.00    +0.277 C 
ENDBRANCH  34   5
BRANCH  35   6
ATOM      6  O   UNL     1       4.637  -2.898  23.893  0.00  0.00    -0.495 OA
ATOM     38  C   UNL     1       3.472  -3.282  24.620  0.00  0.00    +0.277 C 
ENDBRANCH  35   6
ENDBRANCH  10  30
ENDBRANCH  21   9
BRANCH  20  23
ATOM     23  C   UNL     1      -3.809  -1.117  25.292  0.00  0.00    +0.037 A 
ATOM     24  C   UNL     1      -2.581  -1.759  25.445  0.00  0.00    +0.016 A 
ATOM     25  C   UNL     1      -4.686  -1.518  24.285  0.00  0.00    +0.016 A 
ATOM     27  C   UNL     1      -2.229  -2.804  24.590  0.00  0.00    +0.046 A 
ATOM     28  C   UNL     1      -4.335  -2.562  23.429  0.00  0.00    +0.046 A 
ATOM     29  C   UNL     1      -3.107  -3.205  23.582  0.00  0.00    +0.120 A 
BRANCH  29   4
ATOM      4  O   UNL     1      -2.762  -4.223  22.746  0.00  0.00    -0.495 OA
ATOM     33  C   UNL     1      -1.368  -4.426  22.511  0.00  0.00    +0.277 C 
ENDBRANCH  29   4
ENDBRANCH  20  23
TORSDOF 6
ENDMDL
MODEL 2
REMARK VINA RESULT:      20.3      0.029      1.968
REMARK  Name = 7143032
REMARK  9 active torsions:
REMARK  status: ('A' for Active; 'I' for Inactive)
REMARK    1  A    between atoms: O_4  and  C_29
REMARK    2  A    between atoms: O_4  and  C_33
REMARK    3  A    between atoms: O_5  and  C_34
REMARK    4  A    between atoms: O_5  and  C_37
REMARK    5  A    between atoms: O_6  and  C_35
REMARK    6  A    between atoms: O_6  and  C_38
REMARK    7  A    between atoms: N_9  and  C_21
REMARK    8  A    between atoms: N_10  and  C_30
REMARK    9  A    between atoms: C_20  and  C_23
REMARK                            x       y       z     vdW  Elec       q    Type
REMARK                         _______ _______ _______ _____ _____    ______ ____
ROOT
ATOM      1  O   UNL     1      -0.563   3.491  25.578  0.00  0.00    -0.266 OA
ATOM      2  O   UNL     1      -3.796  -0.125  27.374  0.00  0.00    -0.270 OA
ATOM      7  N   UNL     1      -4.907   1.041  25.678  0.00  0.00    -0.297 N 
ATOM      8  N   UNL     1      -2.663   3.037  24.660  0.00  0.00    -0.310 N 
ATOM     11  C   UNL     1      -4.851   3.519  25.903  0.00  0.00    +0.027 C 
ATOM     12  C   UNL     1      -4.913   2.495  23.665  0.00  0.00    +0.054 C 
ATOM     13  C   UNL     1      -5.449   3.652  24.507  0.00  0.00    +0.018 C 
ATOM     14  C   UNL     1      -5.255   2.174  26.534  0.00  0.00    +0.113 C 
ATOM     15  C   UNL     1      -3.328   3.676  25.806  0.00  0.00    +0.130 C 
ATOM     16  C   UNL     1      -5.361   1.156  24.282  0.00  0.00    +0.117 C 
ATOM     17  C   UNL     1      -3.399   2.538  23.581  0.00  0.00    +0.027 A 
ATOM     18  C   UNL     1      -2.768   2.064  22.493  0.00  0.00    +0.024 A 
ATOM     19  C   UNL     1      -1.254   3.047  24.660  0.00  0.00    +0.273 A 
ATOM     20  C   UNL     1      -4.177  -0.024  26.209  0.00  0.00    +0.247 C 
ATOM     21  C   UNL     1      -0.588   2.486  23.442  0.00  0.00    +0.100 A 
ATOM     22  C   UNL     1      -1.334   2.038  22.426  0.00  0.00    +0.030 A 
ENDROOT
BRANCH  21   9
ATOM      3  O   UNL     1       1.050   0.170  23.649  0.00  0.00    -0.252 OA
ATOM      9  N   UNL     1       0.775   2.461  23.411  0.00  0.00    -0.265 N 
ATOM     10  N   UNL     1       2.901   1.598  23.452  0.00  0.00    -0.269 N 
ATOM     26  C   UNL     1       1.539   1.290  23.518  0.00  0.00    +0.308 C 
ATOM     39  H   UNL     1       1.255   3.343  23.565  0.00  0.00    +0.157 HD
ATOM     40  H   UNL     1       3.141   2.580  23.337  0.00  0.00    +0.156 HD
BRANCH  10  30
ATOM     30  C   UNL     1       3.998   0.707  23.520  0.00  0.00    +0.042 A 
ATOM     31  C   UNL     1       5.301   1.197  23.430  0.00  0.00    +0.069 A 
ATOM     32  C   UNL     1       3.776  -0.661  23.676  0.00  0.00    +0.069 A 
ATOM     34  C   UNL     1       4.858  -1.539  23.742  0.00  0.00    +0.125 A 
ATOM     35  C   UNL     1       6.382   0.319  23.496  0.00  0.00    +0.125 A 
ATOM     36  C   UNL     1       6.161  -1.049  23.652  0.00  0.00    +0.091 A 
BRANCH  34   5
ATOM      5  O   UNL     1       4.641  -2.874  23.893  0.00  0.00    -0.495 OA
ATOM     37  C   UNL     1       3.478  -3.266  24.621  0.00  0.00    +0.277 C 
ENDBRANCH  34   5
BRANCH  35   6
ATOM      6  O   UNL     1       7.654   0.796  23.407  0.00  0.00    -0.495 OA
ATOM     38  C   UNL     1       8.680  -0.145  23.097  0.00  0.00    +0.277 C 
ENDBRANCH  35   6
ENDBRANCH  10  30
ENDBRANCH  21   9
BRANCH  20  23
ATOM     23  C   UNL     1      -3.806  -1.121  25.309  0.00  0.00    +0.037 A 
ATOM     24  C   UNL     1      -2.599  -1.795  25.492  0.00  0.00    +0.016 A 
ATOM     25  C   UNL     1      -4.660  -1.489  24.270  0.00  0.00    +0.016 A 
ATOM     27  C   UNL     1      -2.246  -2.838  24.635  0.00  0.00    +0.046 A 
ATOM     28  C   UNL     1      -4.308  -2.532  23.413  0.00  0.00    +0.046 A 
ATOM     29  C   UNL     1      -3.102  -3.206  23.596  0.00  0.00    +0.120 A 
BRANCH  29   4
ATOM      4  O   UNL     1      -2.756  -4.223  22.759  0.00  0.00    -0.495 OA
ATOM     33  C   UNL     1      -1.365  -4.394  22.485  0.00  0.00    +0.277 C 
ENDBRANCH  29   4
ENDBRANCH  20  23
TORSDOF 6
ENDMDL
MODEL 3
REMARK VINA RESULT:      24.1      1.319      2.416
REMARK  Name = 7143032
REMARK  9 active torsions:
REMARK  status: ('A' for Active; 'I' for Inactive)
REMARK    1  A    between atoms: O_4  and  C_29
REMARK    2  A    between atoms: O_4  and  C_33
REMARK    3  A    between atoms: O_5  and  C_34
REMARK    4  A    between atoms: O_5  and  C_37
REMARK    5  A    between atoms: O_6  and  C_35
REMARK    6  A    between atoms: O_6  and  C_38
REMARK    7  A    between atoms: N_9  and  C_21
REMARK    8  A    between atoms: N_10  and  C_30
REMARK    9  A    between atoms: C_20  and  C_23
REMARK                            x       y       z     vdW  Elec       q    Type
REMARK                         _______ _______ _______ _____ _____    ______ ____
ROOT
ATOM      1  O   UNL     1       0.139   3.209  25.812  0.00  0.00    -0.266 OA
ATOM      2  O   UNL     1      -4.448   1.124  26.977  0.00  0.00    -0.270 OA
ATOM      7  N   UNL     1      -4.611   2.042  24.831  0.00  0.00    -0.297 N 
ATOM      8  N   UNL     1      -1.654   3.071  24.321  0.00  0.00    -0.310 N 
ATOM     11  C   UNL     1      -3.825   4.395  24.639  0.00  0.00    +0.027 C 
ATOM     12  C   UNL     1      -3.591   2.867  22.722  0.00  0.00    +0.054 C 
ATOM     13  C   UNL     1      -3.937   4.301  23.121  0.00  0.00    +0.018 C 
ATOM     14  C   UNL     1      -4.798   3.410  25.311  0.00  0.00    +0.113 C 
ATOM     15  C   UNL     1      -2.368   4.134  25.044  0.00  0.00    +0.130 C 
ATOM     16  C   UNL     1      -4.599   1.894  23.367  0.00  0.00    +0.117 C 
ATOM     17  C   UNL     1      -2.183   2.505  23.157  0.00  0.00    +0.027 A 
ATOM     18  C   UNL     1      -1.463   1.619  22.448  0.00  0.00    +0.024 A 
ATOM     19  C   UNL     1      -0.375   2.727  24.803  0.00  0.00    +0.273 A 
ATOM     20  C   UNL     1      -4.439   1.006  25.753  0.00  0.00    +0.247 C 
ATOM     21  C   UNL     1       0.384   1.716  24.000  0.00  0.00    +0.100 A 
ATOM     22  C   UNL     1      -0.154   1.218  22.881  0.00  0.00    +0.030 A 
ENDROOT
BRANCH  21   9
ATOM      3  O   UNL     1       2.540   0.808  22.383  0.00  0.00    -0.252 OA
ATOM      9  N   UNL     1       1.618   1.343  24.442  0.00  0.00    -0.265 N 
ATOM     10  N   UNL     1       3.786   0.595  24.359  0.00  0.00    -0.269 N 
ATOM     26  C   UNL     1       2.650   0.901  23.603  0.00  0.00    +0.308 C 
ATOM     39  H   UNL     1       1.711   1.144  25.435  0.00  0.00    +0.157 HD
ATOM     40  H   UNL     1       3.714   0.732  25.365  0.00  0.00    +0.156 HD
BRANCH  10  30
ATOM     30  C   UNL     1       5.036   0.120  23.897  0.00  0.00    +0.042 A 
ATOM     31  C   UNL     1       6.175   0.916  24.024  0.00  0.00    +0.069 A 
ATOM     32  C   UNL     1       5.129  -1.143  23.313  0.00  0.00    +0.069 A 
ATOM     34  C   UNL     1       6.361  -1.611  22.856  0.00  0.00    +0.125 A 
ATOM     35  C   UNL     1       7.407   0.448  23.568  0.00  0.00    +0.125 A 
ATOM     36  C   UNL     1       7.500  -0.815  22.983  0.00  0.00    +0.091 A 
BRANCH  34   5
ATOM      5  O   UNL     1       6.451  -2.843  22.285  0.00  0.00    -0.495 OA
ATOM     37  C   UNL     1       7.576  -3.088  21.442  0.00  0.00    +0.277 C 
ENDBRANCH  34   5
BRANCH  35   6
ATOM      6  O   UNL     1       8.518   1.224  23.691  0.00  0.00    -0.495 OA
ATOM     38  C   UNL     1       9.770   0.619  23.371  0.00  0.00    +0.277 C 
ENDBRANCH  35   6
ENDBRANCH  10  30
ENDBRANCH  21   9
BRANCH  20  23
ATOM     23  C   UNL     1      -4.207  -0.345  25.234  0.00  0.00    +0.037 A 
ATOM     24  C   UNL     1      -4.737  -0.719  23.999  0.00  0.00    +0.016 A 
ATOM     25  C   UNL     1      -3.455  -1.257  25.975  0.00  0.00    +0.016 A 
ATOM     27  C   UNL     1      -4.516  -2.005  23.506  0.00  0.00    +0.046 A 
ATOM     28  C   UNL     1      -3.234  -2.543  25.482  0.00  0.00    +0.046 A 
ATOM     29  C   UNL     1      -3.764  -2.916  24.248  0.00  0.00    +0.120 A 
BRANCH  29   4
ATOM      4  O   UNL     1      -3.550  -4.173  23.767  0.00  0.00    -0.495 OA
ATOM     33  C   UNL     1      -2.339  -4.393  23.044  0.00  0.00    +0.277 C 
ENDBRANCH  29   4
ENDBRANCH  20  23
TORSDOF 6
ENDMDL
MODEL 4
REMARK VINA RESULT:      24.2      1.368      1.870
REMARK  Name = 7143032
REMARK  9 active torsions:
REMARK  status: ('A' for Active; 'I' for Inactive)
REMARK    1  A    between atoms: O_4  and  C_29
REMARK    2  A    between atoms: O_4  and  C_33
REMARK    3  A    between atoms: O_5  and  C_34
REMARK    4  A    between atoms: O_5  and  C_37
REMARK    5  A    between atoms: O_6  and  C_35
REMARK    6  A    between atoms: O_6  and  C_38
REMARK    7  A    between atoms: N_9  and  C_21
REMARK    8  A    between atoms: N_10  and  C_30
REMARK    9  A    between atoms: C_20  and  C_23
REMARK                            x       y       z     vdW  Elec       q    Type
REMARK                         _______ _______ _______ _____ _____    ______ ____
ROOT
ATOM      1  O   UNL     1       0.283   3.087  25.822  0.00  0.00    -0.266 OA
ATOM      2  O   UNL     1      -4.355   1.125  26.999  0.00  0.00    -0.270 OA
ATOM      7  N   UNL     1      -4.501   2.057  24.858  0.00  0.00    -0.297 N 
ATOM      8  N   UNL     1      -1.520   3.005  24.339  0.00  0.00    -0.310 N 
ATOM     11  C   UNL     1      -3.652   4.388  24.673  0.00  0.00    +0.027 C 
ATOM     12  C   UNL     1      -3.469   2.863  22.748  0.00  0.00    +0.054 C 
ATOM     13  C   UNL     1      -3.773   4.304  23.155  0.00  0.00    +0.018 C 
ATOM     14  C   UNL     1      -4.649   3.427  25.345  0.00  0.00    +0.113 C 
ATOM     15  C   UNL     1      -2.201   4.085  25.070  0.00  0.00    +0.130 C 
ATOM     16  C   UNL     1      -4.501   1.915  23.393  0.00  0.00    +0.117 C 
ATOM     17  C   UNL     1      -2.070   2.461  23.174  0.00  0.00    +0.027 A 
ATOM     18  C   UNL     1      -1.378   1.558  22.458  0.00  0.00    +0.024 A 
ATOM     19  C   UNL     1      -0.249   2.624  24.813  0.00  0.00    +0.273 A 
ATOM     20  C   UNL     1      -4.354   1.012  25.774  0.00  0.00    +0.247 C 
ATOM     21  C   UNL     1       0.478   1.596  24.002  0.00  0.00    +0.100 A 
ATOM     22  C   UNL     1      -0.079   1.118  22.884  0.00  0.00    +0.030 A 
ENDROOT
BRANCH  21   9
ATOM      3  O   UNL     1       2.683   0.870  22.359  0.00  0.00    -0.252 OA
ATOM      9  N   UNL     1       1.704   1.187  24.437  0.00  0.00    -0.265 N 
ATOM     10  N   UNL     1       3.880   0.464  24.336  0.00  0.00    -0.269 N 
ATOM     26  C   UNL     1       2.761   0.839  23.585  0.00  0.00    +0.308 C 
ATOM     39  H   UNL     1       1.772   0.888  25.406  0.00  0.00    +0.157 HD
ATOM     40  H   UNL     1       3.780   0.497  25.348  0.00  0.00    +0.156 HD
BRANCH  10  30
ATOM     30  C   UNL     1       5.145   0.046  23.861  0.00  0.00    +0.042 A 
ATOM     31  C   UNL     1       5.278  -1.188  23.223  0.00  0.00    +0.069 A 
ATOM     32  C   UNL     1       6.259   0.867  24.032  0.00  0.00    +0.069 A 
ATOM     34  C   UNL     1       7.507   0.454  23.565  0.00  0.00    +0.125 A 
ATOM     35  C   UNL     1       6.525  -1.600  22.756  0.00  0.00    +0.125 A 
ATOM     36  C   UNL     1       7.640  -0.780  22.927  0.00  0.00    +0.091 A 
BRANCH  34   5
ATOM      5  O   UNL     1       8.595   1.254  23.733  0.00  0.00    -0.495 OA
ATOM     37  C   UNL     1       9.851   0.746  23.286  0.00  0.00    +0.277 C 
ENDBRANCH  34   5
BRANCH  35   6
ATOM      6  O   UNL     1       6.656  -2.804  22.134  0.00  0.00    -0.495 OA
ATOM     38  C   UNL     1       7.864  -3.033  21.412  0.00  0.00    +0.277 C 
ENDBRANCH  35   6
ENDBRANCH  10  30
ENDBRANCH  21   9
BRANCH  20  23
ATOM     23  C   UNL     1      -4.162  -0.343  25.248  0.00  0.00    +0.037 A 
ATOM     24  C   UNL     1      -4.744  -0.709  24.034  0.00  0.00    +0.016 A 
ATOM     25  C   UNL     1      -3.397  -1.266  25.961  0.00  0.00    +0.016 A 
ATOM     27  C   UNL     1      -4.561  -1.998  23.534  0.00  0.00    +0.046 A 
ATOM     28  C   UNL     1      -3.214  -2.555  25.461  0.00  0.00    +0.046 A 
ATOM     29  C   UNL     1      -3.796  -2.920  24.248  0.00  0.00    +0.120 A 
BRANCH  29   4
ATOM      4  O   UNL     1      -3.619  -4.180  23.760  0.00  0.00    -0.495 OA
ATOM     33  C   UNL     1      -2.405  -4.438  23.054  0.00  0.00    +0.277 C 
ENDBRANCH  29   4
ENDBRANCH  20  23
TORSDOF 6
ENDMDL
