MODEL 1
REMARK VINA RESULT:       6.7      0.000      0.000
REMARK  Name = 7155536
REMARK  4 active torsions:
REMARK  status: ('A' for Active; 'I' for Inactive)
REMARK    1  A    between atoms: N_6  and  C_19
REMARK    2  A    between atoms: N_7  and  C_23
REMARK    3  A    between atoms: C_18  and  C_21
REMARK    4  A    between atoms: C_26  and  C_29
REMARK                            x       y       z     vdW  Elec       q    Type
REMARK                         _______ _______ _______ _____ _____    ______ ____
ROOT
ATOM      1  O   UNL     1      -0.246   2.664  25.885  0.00  0.00    -0.266 OA
ATOM      2  O   UNL     1      -3.676  -0.838  26.175  0.00  0.00    -0.276 OA
ATOM      4  N   UNL     1      -4.884   0.870  25.164  0.00  0.00    -0.301 N 
ATOM      5  N   UNL     1      -2.352   2.802  24.880  0.00  0.00    -0.310 N 
ATOM      9  C   UNL     1      -4.511   3.101  26.223  0.00  0.00    +0.027 C 
ATOM     10  C   UNL     1      -4.613   2.916  23.772  0.00  0.00    +0.054 C 
ATOM     11  C   UNL     1      -5.037   3.776  24.962  0.00  0.00    +0.018 C 
ATOM     12  C   UNL     1      -5.096   1.685  26.360  0.00  0.00    +0.113 C 
ATOM     13  C   UNL     1      -2.979   3.090  26.177  0.00  0.00    +0.130 C 
ATOM     14  C   UNL     1      -5.248   1.517  23.894  0.00  0.00    +0.117 C 
ATOM     15  C   UNL     1      -3.102   2.790  23.700  0.00  0.00    +0.027 A 
ATOM     16  C   UNL     1      -2.492   2.641  22.512  0.00  0.00    +0.024 A 
ATOM     17  C   UNL     1      -0.952   2.644  24.875  0.00  0.00    +0.273 A 
ATOM     18  C   UNL     1      -4.449  -0.449  25.296  0.00  0.00    +0.212 C 
ATOM     19  C   UNL     1      -0.313   2.455  23.533  0.00  0.00    +0.100 A 
ATOM     20  C   UNL     1      -1.070   2.469  22.431  0.00  0.00    +0.030 A 
ATOM     21  C   UNL     1      -4.966  -1.437  24.282  0.00  0.00    +0.109 C 
ENDROOT
BRANCH  19   6
ATOM      3  O   UNL     1       1.067  -0.029  23.648  0.00  0.00    -0.252 OA
ATOM      6  N   UNL     1       1.040   2.284  23.487  0.00  0.00    -0.265 N 
ATOM      7  N   UNL     1       3.061   1.198  23.476  0.00  0.00    -0.269 N 
ATOM     22  C   UNL     1       1.674   1.036  23.547  0.00  0.00    +0.308 C 
ATOM     30  H   UNL     1       1.613   3.103  23.663  0.00  0.00    +0.157 HD
ATOM     31  H   UNL     1       3.404   2.151  23.391  0.00  0.00    +0.156 HD
BRANCH   7  23
ATOM     23  C   UNL     1       4.055   0.191  23.504  0.00  0.00    +0.036 A 
ATOM     24  C   UNL     1       5.382   0.543  23.313  0.00  0.00    +0.042 A 
ATOM     25  C   UNL     1       3.682  -1.124  23.720  0.00  0.00    +0.023 A 
ATOM     26  C   UNL     1       6.361  -0.449  23.339  0.00  0.00    +0.054 A 
ATOM     27  C   UNL     1       4.662  -2.117  23.746  0.00  0.00    +0.003 A 
ATOM     28  C   UNL     1       6.002  -1.779  23.556  0.00  0.00    +0.019 A 
BRANCH  26  29
ATOM      8  N   UNL     1       8.851   0.177  22.987  0.00  0.00    -0.191 NA
ATOM     29  C   UNL     1       7.734  -0.104  23.145  0.00  0.00    +0.099 C 
ENDBRANCH  26  29
ENDBRANCH   7  23
ENDBRANCH  19   6
TORSDOF 3
ENDMDL
MODEL 2
REMARK VINA RESULT:       7.2      1.998      3.340
REMARK  Name = 7155536
REMARK  4 active torsions:
REMARK  status: ('A' for Active; 'I' for Inactive)
REMARK    1  A    between atoms: N_6  and  C_19
REMARK    2  A    between atoms: N_7  and  C_23
REMARK    3  A    between atoms: C_18  and  C_21
REMARK    4  A    between atoms: C_26  and  C_29
REMARK                            x       y       z     vdW  Elec       q    Type
REMARK                         _______ _______ _______ _____ _____    ______ ____
ROOT
ATOM      1  O   UNL     1      -2.092   1.588  22.611  0.00  0.00    -0.266 OA
ATOM      2  O   UNL     1      -2.803   4.720  26.325  0.00  0.00    -0.276 OA
ATOM      4  N   UNL     1      -4.793   3.520  26.382  0.00  0.00    -0.301 N 
ATOM      5  N   UNL     1      -3.883   1.465  24.107  0.00  0.00    -0.310 N 
ATOM      9  C   UNL     1      -5.795   3.167  24.122  0.00  0.00    +0.027 C 
ATOM     10  C   UNL     1      -5.787   1.327  25.753  0.00  0.00    +0.054 C 
ATOM     11  C   UNL     1      -6.627   2.020  24.681  0.00  0.00    +0.018 C 
ATOM     12  C   UNL     1      -5.434   4.165  25.236  0.00  0.00    +0.113 C 
ATOM     13  C   UNL     1      -4.550   2.591  23.439  0.00  0.00    +0.130 C 
ATOM     14  C   UNL     1      -5.477   2.321  26.889  0.00  0.00    +0.117 C 
ATOM     15  C   UNL     1      -4.492   0.792  25.171  0.00  0.00    +0.027 A 
ATOM     16  C   UNL     1      -3.919  -0.307  25.692  0.00  0.00    +0.024 A 
ATOM     17  C   UNL     1      -2.658   1.039  23.558  0.00  0.00    +0.273 A 
ATOM     18  C   UNL     1      -3.664   4.103  26.958  0.00  0.00    +0.212 C 
ATOM     19  C   UNL     1      -2.040  -0.175  24.183  0.00  0.00    +0.100 A 
ATOM     20  C   UNL     1      -2.668  -0.796  25.186  0.00  0.00    +0.030 A 
ATOM     21  C   UNL     1      -3.509   3.948  28.450  0.00  0.00    +0.109 C 
ENDROOT
BRANCH  19   6
ATOM      3  O   UNL     1       0.452   1.181  24.381  0.00  0.00    -0.252 OA
ATOM      6  N   UNL     1      -0.846  -0.611  23.688  0.00  0.00    -0.265 N 
ATOM      7  N   UNL     1       1.397  -0.615  23.203  0.00  0.00    -0.269 N 
ATOM     22  C   UNL     1       0.358   0.095  23.812  0.00  0.00    +0.308 C 
ATOM     30  H   UNL     1      -0.879  -1.352  22.994  0.00  0.00    +0.157 HD
ATOM     31  H   UNL     1       1.150  -1.505  22.776  0.00  0.00    +0.156 HD
BRANCH   7  23
ATOM     23  C   UNL     1       2.760  -0.249  23.107  0.00  0.00    +0.036 A 
ATOM     24  C   UNL     1       3.705  -0.958  23.832  0.00  0.00    +0.042 A 
ATOM     25  C   UNL     1       3.122   0.810  22.292  0.00  0.00    +0.023 A 
ATOM     26  C   UNL     1       5.048  -0.596  23.738  0.00  0.00    +0.054 A 
ATOM     27  C   UNL     1       4.465   1.172  22.198  0.00  0.00    +0.003 A 
ATOM     28  C   UNL     1       5.429   0.468  22.921  0.00  0.00    +0.019 A 
BRANCH  26  29
ATOM      8  N   UNL     1       6.839  -1.902  25.081  0.00  0.00    -0.191 NA
ATOM     29  C   UNL     1       6.036  -1.316  24.479  0.00  0.00    +0.099 C 
ENDBRANCH  26  29
ENDBRANCH   7  23
ENDBRANCH  19   6
TORSDOF 3
ENDMDL
