MODEL 1
REMARK VINA RESULT:      -1.9      0.000      0.000
REMARK  Name = 75537006
REMARK  4 active torsions:
REMARK  status: ('A' for Active; 'I' for Inactive)
REMARK    1  A    between atoms: O_3  and  C_19
REMARK    2  A    between atoms: O_3  and  C_22
REMARK    3  A    between atoms: N_6  and  C_14
REMARK    4  A    between atoms: N_7  and  C_16
REMARK                            x       y       z     vdW  Elec       q    Type
REMARK                         _______ _______ _______ _____ _____    ______ ____
ROOT
ATOM      1  O   UNL     1      17.310  -3.976  22.999  0.00  0.00    -0.252 OA
ATOM      2  O   UNL     1      16.634  -9.522  27.068  0.00  0.00    -0.252 OA
ATOM      4  N   UNL     1      17.248  -5.268  24.960  0.00  0.00    -0.278 N 
ATOM      5  N   UNL     1      16.401  -7.250  26.715  0.00  0.00    -0.282 N 
ATOM      6  N   UNL     1      17.373  -3.033  25.159  0.00  0.00    -0.287 N 
ATOM      7  N   UNL     1      16.884  -8.080  28.868  0.00  0.00    -0.269 N 
ATOM      8  C   UNL     1      17.390  -5.033  26.388  0.00  0.00    +0.112 C 
ATOM      9  C   UNL     1      16.350  -5.841  27.157  0.00  0.00    +0.133 C 
ATOM     10  C   UNL     1      17.251  -3.519  26.523  0.00  0.00    +0.133 C 
ATOM     11  C   UNL     1      17.161  -6.627  24.454  0.00  0.00    +0.128 C 
ATOM     12  C   UNL     1      16.153  -7.432  25.276  0.00  0.00    +0.128 C 
ATOM     13  C   UNL     1      17.313  -4.081  24.218  0.00  0.00    +0.305 C 
ATOM     14  C   UNL     1      17.405  -1.620  24.850  0.00  0.00    +0.133 C 
ATOM     15  C   UNL     1      16.633  -8.378  27.529  0.00  0.00    +0.307 C 
ATOM     23  H   UNL     1      17.309  -7.186  29.087  0.00  0.00    +0.156 HD
ENDROOT
BRANCH   7  16
ATOM     16  C   UNL     1      16.583  -8.882  29.998  0.00  0.00    +0.038 A 
ATOM     17  C   UNL     1      15.466  -8.591  30.781  0.00  0.00    +0.069 A 
ATOM     18  C   UNL     1      17.404  -9.960  30.326  0.00  0.00    +0.023 A 
ATOM     19  C   UNL     1      15.170  -9.379  31.893  0.00  0.00    +0.122 A 
ATOM     20  C   UNL     1      17.108 -10.748  31.440  0.00  0.00    +0.005 A 
ATOM     21  C   UNL     1      15.991 -10.458  32.222  0.00  0.00    +0.046 A 
BRANCH  19   3
ATOM      3  O   UNL     1      14.081  -9.094  32.659  0.00  0.00    -0.495 OA
ATOM     22  C   UNL     1      13.492  -7.805  32.496  0.00  0.00    +0.277 C 
ENDBRANCH  19   3
ENDBRANCH   7  16
TORSDOF 2
ENDMDL
MODEL 2
REMARK VINA RESULT:      -1.0     19.041     20.682
REMARK  Name = 75537006
REMARK  4 active torsions:
REMARK  status: ('A' for Active; 'I' for Inactive)
REMARK    1  A    between atoms: O_3  and  C_19
REMARK    2  A    between atoms: O_3  and  C_22
REMARK    3  A    between atoms: N_6  and  C_14
REMARK    4  A    between atoms: N_7  and  C_16
REMARK                            x       y       z     vdW  Elec       q    Type
REMARK                         _______ _______ _______ _____ _____    ______ ____
ROOT
ATOM      1  O   UNL     1      -6.519   1.700  26.370  0.00  0.00    -0.252 OA
ATOM      2  O   UNL     1      -0.802  -1.454  24.103  0.00  0.00    -0.252 OA
ATOM      4  N   UNL     1      -4.476   1.392  25.252  0.00  0.00    -0.278 N 
ATOM      5  N   UNL     1      -1.897   0.455  24.807  0.00  0.00    -0.282 N 
ATOM      6  N   UNL     1      -5.326   3.469  25.368  0.00  0.00    -0.287 N 
ATOM      7  N   UNL     1      -0.183   0.588  23.195  0.00  0.00    -0.269 N 
ATOM      8  C   UNL     1      -3.576   2.203  24.448  0.00  0.00    +0.112 C 
ATOM      9  C   UNL     1      -2.128   1.915  24.832  0.00  0.00    +0.133 C 
ATOM     10  C   UNL     1      -4.037   3.633  24.717  0.00  0.00    +0.133 C 
ATOM     11  C   UNL     1      -4.243  -0.036  25.384  0.00  0.00    +0.128 C 
ATOM     12  C   UNL     1      -2.774  -0.302  25.714  0.00  0.00    +0.128 C 
ATOM     13  C   UNL     1      -5.563   2.131  25.740  0.00  0.00    +0.305 C 
ATOM     14  C   UNL     1      -6.165   4.600  25.700  0.00  0.00    +0.133 C 
ATOM     15  C   UNL     1      -0.934  -0.229  24.038  0.00  0.00    +0.307 C 
ATOM     23  H   UNL     1      -0.610   1.442  22.851  0.00  0.00    +0.156 HD
ENDROOT
BRANCH   7  16
ATOM     16  C   UNL     1       1.155   0.386  22.769  0.00  0.00    +0.038 A 
ATOM     17  C   UNL     1       2.213   0.832  23.561  0.00  0.00    +0.069 A 
ATOM     18  C   UNL     1       1.411  -0.255  21.558  0.00  0.00    +0.023 A 
ATOM     19  C   UNL     1       3.529   0.634  23.142  0.00  0.00    +0.122 A 
ATOM     20  C   UNL     1       2.727  -0.452  21.138  0.00  0.00    +0.005 A 
ATOM     21  C   UNL     1       3.786  -0.008  21.931  0.00  0.00    +0.046 A 
BRANCH  19   3
ATOM      3  O   UNL     1       4.562   1.070  23.914  0.00  0.00    -0.495 OA
ATOM     22  C   UNL     1       5.691   0.207  24.035  0.00  0.00    +0.277 C 
ENDBRANCH  19   3
ENDBRANCH   7  16
TORSDOF 2
ENDMDL
MODEL 3
REMARK VINA RESULT:       0.8     19.096     20.875
REMARK  Name = 75537006
REMARK  4 active torsions:
REMARK  status: ('A' for Active; 'I' for Inactive)
REMARK    1  A    between atoms: O_3  and  C_19
REMARK    2  A    between atoms: O_3  and  C_22
REMARK    3  A    between atoms: N_6  and  C_14
REMARK    4  A    between atoms: N_7  and  C_16
REMARK                            x       y       z     vdW  Elec       q    Type
REMARK                         _______ _______ _______ _____ _____    ______ ____
ROOT
ATOM      1  O   UNL     1      -5.880   4.149  26.202  0.00  0.00    -0.252 OA
ATOM      2  O   UNL     1       0.822   3.179  24.819  0.00  0.00    -0.252 OA
ATOM      4  N   UNL     1      -3.921   3.085  25.461  0.00  0.00    -0.278 N 
ATOM      5  N   UNL     1      -1.404   2.830  24.308  0.00  0.00    -0.282 N 
ATOM      6  N   UNL     1      -5.899   2.128  24.989  0.00  0.00    -0.287 N 
ATOM      7  N   UNL     1       0.202   1.173  23.833  0.00  0.00    -0.269 N 
ATOM      8  C   UNL     1      -3.577   1.823  24.826  0.00  0.00    +0.112 C 
ATOM      9  C   UNL     1      -2.526   2.051  23.744  0.00  0.00    +0.133 C 
ATOM     10  C   UNL     1      -4.915   1.295  24.317  0.00  0.00    +0.133 C 
ATOM     11  C   UNL     1      -2.870   3.972  25.929  0.00  0.00    +0.128 C 
ATOM     12  C   UNL     1      -1.802   4.141  24.848  0.00  0.00    +0.128 C 
ATOM     13  C   UNL     1      -5.305   3.235  25.627  0.00  0.00    +0.305 C 
ATOM     14  C   UNL     1      -7.319   1.886  24.864  0.00  0.00    +0.133 C 
ATOM     15  C   UNL     1      -0.049   2.445  24.345  0.00  0.00    +0.307 C 
ATOM     23  H   UNL     1      -0.536   0.479  23.891  0.00  0.00    +0.156 HD
ENDROOT
BRANCH   7  16
ATOM     16  C   UNL     1       1.385   0.722  23.194  0.00  0.00    +0.038 A 
ATOM     17  C   UNL     1       2.633   1.099  23.691  0.00  0.00    +0.069 A 
ATOM     18  C   UNL     1       1.300  -0.096  22.067  0.00  0.00    +0.023 A 
ATOM     19  C   UNL     1       3.797   0.656  23.062  0.00  0.00    +0.122 A 
ATOM     20  C   UNL     1       2.465  -0.538  21.438  0.00  0.00    +0.005 A 
ATOM     21  C   UNL     1       3.712  -0.163  21.936  0.00  0.00    +0.046 A 
BRANCH  19   3
ATOM      3  O   UNL     1       5.014   1.024  23.546  0.00  0.00    -0.495 OA
ATOM     22  C   UNL     1       5.801   0.008  24.166  0.00  0.00    +0.277 C 
ENDBRANCH  19   3
ENDBRANCH   7  16
TORSDOF 2
ENDMDL
