MODEL 1
REMARK VINA RESULT:      -4.7      0.000      0.000
REMARK  Name = 40779453
REMARK  7 active torsions:
REMARK  status: ('A' for Active; 'I' for Inactive)
REMARK    1  A    between atoms: N_3  and  C_17
REMARK    2  A    between atoms: N_4  and  C_14
REMARK    3  A    between atoms: C_7  and  C_13
REMARK    4  A    between atoms: C_8  and  C_14
REMARK    5  A    between atoms: C_16  and  C_19
REMARK    6  A    between atoms: C_18  and  C_20
REMARK    7  A    between atoms: C_31  and  C_35
REMARK                            x       y       z     vdW  Elec       q    Type
REMARK                         _______ _______ _______ _____ _____    ______ ____
ROOT
ATOM      2  N   UNL     1      16.330  -9.561  32.110  0.00  0.00    -0.297 NA
ATOM      6  C   UNL     1      16.255  -9.370  29.514  0.00  0.00    +0.002 C 
ATOM      7  C   UNL     1      17.279  -8.362  30.104  0.00  0.00    +0.055 C 
ATOM      8  C   UNL     1      14.922  -9.435  31.650  0.00  0.00    +0.074 C 
ATOM      9  C   UNL     1      14.868  -9.115  30.141  0.00  0.00    +0.024 C 
ATOM     10  C   UNL     1      16.705 -10.776  29.964  0.00  0.00    +0.019 C 
ATOM     11  C   UNL     1      17.121  -8.393  31.651  0.00  0.00    +0.094 C 
ATOM     12  C   UNL     1      16.903 -10.781  31.491  0.00  0.00    +0.085 C 
ENDROOT
BRANCH   7  13
ATOM      3  N   UNL     1      17.275  -5.836  30.348  0.00  0.00    -0.270 N 
ATOM      5  N   UNL     1      17.289  -4.678  29.665  0.00  0.00    -0.171 NA
ATOM     13  C   UNL     1      17.291  -6.944  29.552  0.00  0.00    +0.044 A 
ATOM     15  C   UNL     1      17.316  -6.478  28.260  0.00  0.00    +0.053 A 
ATOM     16  C   UNL     1      17.313  -5.077  28.391  0.00  0.00    +0.093 A 
ATOM     17  C   UNL     1      17.244  -5.804  31.791  0.00  0.00    +0.172 C 
BRANCH  16  19
ATOM     19  C   UNL     1      17.333  -4.112  27.323  0.00  0.00    +0.003 A 
ATOM     21  C   UNL     1      17.349  -4.542  25.995  0.00  0.00    +0.018 A 
ATOM     22  C   UNL     1      17.336  -2.750  27.614  0.00  0.00    +0.011 A 
ATOM     23  C   UNL     1      17.367  -3.613  24.942  0.00  0.00    -0.017 A 
ATOM     26  C   UNL     1      17.354  -1.814  26.580  0.00  0.00    +0.009 A 
ATOM     27  C   UNL     1      17.370  -2.230  25.238  0.00  0.00    -0.018 A 
ATOM     30  C   UNL     1      17.384  -4.029  23.600  0.00  0.00    +0.008 A 
ATOM     32  C   UNL     1      17.389  -1.301  24.185  0.00  0.00    +0.008 A 
ATOM     33  C   UNL     1      17.402  -3.092  22.566  0.00  0.00    +0.001 A 
ATOM     34  C   UNL     1      17.405  -1.732  22.858  0.00  0.00    +0.001 A 
ENDBRANCH  16  19
ENDBRANCH   7  13
BRANCH   8  14
ATOM     14  C   UNL     1      14.128  -8.423  32.477  0.00  0.00    +0.123 C 
BRANCH  14   4
ATOM      1  O   UNL     1      11.888  -6.911  31.506  0.00  0.00    -0.270 OA
ATOM      4  N   UNL     1      12.749  -8.795  32.553  0.00  0.00    -0.310 N 
ATOM     18  C   UNL     1      11.720  -7.998  32.053  0.00  0.00    +0.244 C 
ATOM     36  H   UNL     1      12.532  -9.640  33.069  0.00  0.00    +0.149 HD
BRANCH  18  20
ATOM     20  C   UNL     1      10.339  -8.513  32.233  0.00  0.00    +0.037 A 
ATOM     24  C   UNL     1      10.065  -9.865  32.028  0.00  0.00    +0.013 A 
ATOM     25  C   UNL     1       9.314  -7.643  32.606  0.00  0.00    +0.013 A 
ATOM     28  C   UNL     1       8.767 -10.348  32.197  0.00  0.00    +0.004 A 
ATOM     29  C   UNL     1       8.016  -8.125  32.774  0.00  0.00    +0.004 A 
ATOM     31  C   UNL     1       7.742  -9.477  32.570  0.00  0.00    -0.050 A 
ATOM     35  C   UNL     1       6.356  -9.995  32.750  0.00  0.00    +0.044 C 
ENDBRANCH  18  20
ENDBRANCH  14   4
ENDBRANCH   8  14
TORSDOF 5
ENDMDL
