MODEL 1
REMARK VINA RESULT:      -2.2      0.000      0.000
REMARK  Name = 7143813
REMARK  3 active torsions:
REMARK  status: ('A' for Active; 'I' for Inactive)
REMARK    1  A    between atoms: N_6  and  C_21
REMARK    2  A    between atoms: C_18  and  C_20
REMARK    3  A    between atoms: C_27  and  C_30
REMARK                            x       y       z     vdW  Elec       q    Type
REMARK                         _______ _______ _______ _____ _____    ______ ____
ROOT
ATOM      1  O   UNL     1      15.350  -5.956  27.901  0.00  0.00    -0.267 OA
ATOM      2  O   UNL     1      12.317  -8.539  30.263  0.00  0.00    -0.252 OA
ATOM      4  N   UNL     1      14.149  -9.949  30.421  0.00  0.00    -0.284 N 
ATOM      5  N   UNL     1      15.995  -7.943  28.935  0.00  0.00    -0.311 N 
ATOM      6  N   UNL     1      13.855  -8.179  31.956  0.00  0.00    -0.269 N 
ATOM      8  C   UNL     1      15.135 -10.230  28.163  0.00  0.00    +0.027 C 
ATOM      9  C   UNL     1      16.602 -10.073  30.139  0.00  0.00    +0.054 C 
ATOM     10  C   UNL     1      16.418 -10.770  28.790  0.00  0.00    +0.018 C 
ATOM     11  C   UNL     1      13.930 -10.509  29.086  0.00  0.00    +0.114 C 
ATOM     12  C   UNL     1      15.323  -8.732  27.889  0.00  0.00    +0.130 C 
ATOM     13  C   UNL     1      15.401 -10.406  31.053  0.00  0.00    +0.119 C 
ATOM     14  C   UNL     1      16.701  -8.568  29.968  0.00  0.00    +0.027 A 
ATOM     15  C   UNL     1      17.399  -7.832  30.848  0.00  0.00    +0.022 A 
ATOM     16  C   UNL     1      15.959  -6.541  28.798  0.00  0.00    +0.262 A 
ATOM     17  C   UNL     1      13.355  -8.861  30.849  0.00  0.00    +0.306 C 
ATOM     18  C   UNL     1      16.713  -5.743  29.826  0.00  0.00    +0.082 A 
ATOM     19  C   UNL     1      17.405  -6.400  30.771  0.00  0.00    +0.018 A 
ATOM     31  H   UNL     1      14.430  -8.679  32.622  0.00  0.00    +0.156 HD
ENDROOT
BRANCH   6  21
ATOM     21  C   UNL     1      13.656  -6.812  32.266  0.00  0.00    +0.036 A 
ATOM     24  C   UNL     1      12.363  -6.306  32.370  0.00  0.00    +0.042 A 
ATOM     25  C   UNL     1      14.756  -5.980  32.463  0.00  0.00    +0.023 A 
ATOM     27  C   UNL     1      12.168  -4.959  32.675  0.00  0.00    +0.054 A 
ATOM     28  C   UNL     1      14.561  -4.633  32.768  0.00  0.00    +0.003 A 
ATOM     29  C   UNL     1      13.267  -4.123  32.873  0.00  0.00    +0.019 A 
BRANCH  27  30
ATOM      7  N   UNL     1       9.766  -4.009  32.873  0.00  0.00    -0.191 NA
ATOM     30  C   UNL     1      10.843  -4.436  32.784  0.00  0.00    +0.099 C 
ENDBRANCH  27  30
ENDBRANCH   6  21
BRANCH  18  20
ATOM      3  O   UNL     1      17.373  -3.556  28.841  0.00  0.00    -0.463 OA
ATOM     20  C   UNL     1      16.718  -4.270  29.800  0.00  0.00    +0.140 A 
ATOM     22  C   UNL     1      16.096  -3.409  30.685  0.00  0.00    +0.050 A 
ATOM     23  C   UNL     1      16.389  -2.098  30.241  0.00  0.00    +0.042 A 
ATOM     26  C   UNL     1      17.169  -2.240  29.117  0.00  0.00    +0.196 A 
ENDBRANCH  18  20
TORSDOF 3
ENDMDL
MODEL 2
REMARK VINA RESULT:      -0.4     26.244     28.119
REMARK  Name = 7143813
REMARK  3 active torsions:
REMARK  status: ('A' for Active; 'I' for Inactive)
REMARK    1  A    between atoms: N_6  and  C_21
REMARK    2  A    between atoms: C_18  and  C_20
REMARK    3  A    between atoms: C_27  and  C_30
REMARK                            x       y       z     vdW  Elec       q    Type
REMARK                         _______ _______ _______ _____ _____    ______ ____
ROOT
ATOM      1  O   UNL     1      -4.473  -7.074  10.677  0.00  0.00    -0.267 OA
ATOM      2  O   UNL     1      -8.101  -8.765  13.008  0.00  0.00    -0.252 OA
ATOM      4  N   UNL     1      -8.557  -9.717  10.946  0.00  0.00    -0.284 N 
ATOM      5  N   UNL     1      -5.960  -8.571   9.687  0.00  0.00    -0.311 N 
ATOM      6  N   UNL     1      -7.080 -10.768  12.459  0.00  0.00    -0.269 N 
ATOM      8  C   UNL     1      -8.401  -7.959   9.204  0.00  0.00    +0.027 C 
ATOM      9  C   UNL     1      -7.590 -10.240   8.731  0.00  0.00    +0.054 C 
ATOM     10  C   UNL     1      -8.313  -9.036   8.125  0.00  0.00    +0.018 C 
ATOM     11  C   UNL     1      -9.173  -8.493  10.430  0.00  0.00    +0.114 C 
ATOM     12  C   UNL     1      -6.977  -7.514   9.561  0.00  0.00    +0.130 C 
ATOM     13  C   UNL     1      -8.409 -10.776   9.929  0.00  0.00    +0.119 C 
ATOM     14  C   UNL     1      -6.198  -9.862   9.203  0.00  0.00    +0.027 A 
ATOM     15  C   UNL     1      -5.220 -10.781   9.227  0.00  0.00    +0.022 A 
ATOM     16  C   UNL     1      -4.720  -8.200  10.242  0.00  0.00    +0.262 A 
ATOM     17  C   UNL     1      -7.925  -9.690  12.210  0.00  0.00    +0.306 C 
ATOM     18  C   UNL     1      -3.659  -9.266  10.297  0.00  0.00    +0.082 A 
ATOM     19  C   UNL     1      -3.932 -10.474   9.780  0.00  0.00    +0.018 A 
ATOM     31  H   UNL     1      -7.268 -11.654  12.006  0.00  0.00    +0.156 HD
ENDROOT
BRANCH   6  21
ATOM     21  C   UNL     1      -5.937 -10.770  13.295  0.00  0.00    +0.036 A 
ATOM     24  C   UNL     1      -6.091 -10.760  14.679  0.00  0.00    +0.042 A 
ATOM     25  C   UNL     1      -4.666 -10.780  12.727  0.00  0.00    +0.023 A 
ATOM     27  C   UNL     1      -4.964 -10.761  15.501  0.00  0.00    +0.054 A 
ATOM     28  C   UNL     1      -3.539 -10.781  13.549  0.00  0.00    +0.003 A 
ATOM     29  C   UNL     1      -3.688 -10.772  14.936  0.00  0.00    +0.019 A 
BRANCH  27  30
ATOM      7  N   UNL     1      -5.242 -10.743  18.076  0.00  0.00    -0.191 NA
ATOM     30  C   UNL     1      -5.117 -10.752  16.921  0.00  0.00    +0.099 C 
ENDBRANCH  27  30
ENDBRANCH   6  21
BRANCH  18  20
ATOM      3  O   UNL     1      -2.077  -9.169  12.215  0.00  0.00    -0.463 OA
ATOM     20  C   UNL     1      -2.336  -8.999  10.886  0.00  0.00    +0.140 A 
ATOM     22  C   UNL     1      -1.196  -8.560  10.238  0.00  0.00    +0.050 A 
ATOM     23  C   UNL     1      -0.188  -8.457  11.226  0.00  0.00    +0.042 A 
ATOM     26  C   UNL     1      -0.773  -8.838  12.411  0.00  0.00    +0.196 A 
ENDBRANCH  18  20
TORSDOF 3
ENDMDL
MODEL 3
REMARK VINA RESULT:       0.2      1.439      2.094
REMARK  Name = 7143813
REMARK  3 active torsions:
REMARK  status: ('A' for Active; 'I' for Inactive)
REMARK    1  A    between atoms: N_6  and  C_21
REMARK    2  A    between atoms: C_18  and  C_20
REMARK    3  A    between atoms: C_27  and  C_30
REMARK                            x       y       z     vdW  Elec       q    Type
REMARK                         _______ _______ _______ _____ _____    ______ ____
ROOT
ATOM      1  O   UNL     1      14.921  -5.949  27.286  0.00  0.00    -0.267 OA
ATOM      2  O   UNL     1      12.296  -8.623  30.008  0.00  0.00    -0.252 OA
ATOM      4  N   UNL     1      14.135 -10.022  29.840  0.00  0.00    -0.284 N 
ATOM      5  N   UNL     1      15.724  -7.960  28.149  0.00  0.00    -0.311 N 
ATOM      6  N   UNL     1      14.075  -8.300  31.455  0.00  0.00    -0.269 N 
ATOM      8  C   UNL     1      14.762 -10.230  27.451  0.00  0.00    +0.027 C 
ATOM      9  C   UNL     1      16.516 -10.119  29.181  0.00  0.00    +0.054 C 
ATOM     10  C   UNL     1      16.129 -10.778  27.856  0.00  0.00    +0.018 C 
ATOM     11  C   UNL     1      13.715 -10.546  28.539  0.00  0.00    +0.114 C 
ATOM     12  C   UNL     1      14.901  -8.724  27.196  0.00  0.00    +0.130 C 
ATOM     13  C   UNL     1      15.471 -10.489  30.259  0.00  0.00    +0.119 C 
ATOM     14  C   UNL     1      16.583  -8.609  29.042  0.00  0.00    +0.027 A 
ATOM     15  C   UNL     1      17.405  -7.894  29.826  0.00  0.00    +0.022 A 
ATOM     16  C   UNL     1      15.663  -6.556  28.061  0.00  0.00    +0.262 A 
ATOM     17  C   UNL     1      13.413  -8.954  30.417  0.00  0.00    +0.306 C 
ATOM     18  C   UNL     1      16.564  -5.781  28.985  0.00  0.00    +0.082 A 
ATOM     19  C   UNL     1      17.395  -6.460  29.791  0.00  0.00    +0.018 A 
ATOM     31  H   UNL     1      14.748  -8.815  32.009  0.00  0.00    +0.156 HD
ENDROOT
BRANCH   6  21
ATOM     21  C   UNL     1      13.922  -6.945  31.832  0.00  0.00    +0.036 A 
ATOM     24  C   UNL     1      15.048  -6.159  32.066  0.00  0.00    +0.042 A 
ATOM     25  C   UNL     1      12.645  -6.404  31.970  0.00  0.00    +0.023 A 
ATOM     27  C   UNL     1      14.896  -4.824  32.438  0.00  0.00    +0.054 A 
ATOM     28  C   UNL     1      12.494  -5.069  32.342  0.00  0.00    +0.003 A 
ATOM     29  C   UNL     1      13.619  -4.279  32.576  0.00  0.00    +0.019 A 
BRANCH  27  30
ATOM      7  N   UNL     1      16.985  -3.355  32.873  0.00  0.00    -0.191 NA
ATOM     30  C   UNL     1      16.048  -4.014  32.678  0.00  0.00    +0.099 C 
ENDBRANCH  27  30
ENDBRANCH   6  21
BRANCH  18  20
ATOM      3  O   UNL     1      15.667  -3.587  29.740  0.00  0.00    -0.463 OA
ATOM     20  C   UNL     1      16.559  -4.309  29.002  0.00  0.00    +0.140 A 
ATOM     22  C   UNL     1      17.405  -3.454  28.321  0.00  0.00    +0.050 A 
ATOM     23  C   UNL     1      17.007  -2.139  28.661  0.00  0.00    +0.042 A 
ATOM     26  C   UNL     1      15.945  -2.274  29.526  0.00  0.00    +0.196 A 
ENDBRANCH  18  20
TORSDOF 3
ENDMDL
MODEL 4
REMARK VINA RESULT:       1.4     17.029     20.719
REMARK  Name = 7143813
REMARK  3 active torsions:
REMARK  status: ('A' for Active; 'I' for Inactive)
REMARK    1  A    between atoms: N_6  and  C_21
REMARK    2  A    between atoms: C_18  and  C_20
REMARK    3  A    between atoms: C_27  and  C_30
REMARK                            x       y       z     vdW  Elec       q    Type
REMARK                         _______ _______ _______ _____ _____    ______ ____
ROOT
ATOM      1  O   UNL     1      -0.669   2.074  25.685  0.00  0.00    -0.267 OA
ATOM      2  O   UNL     1      -4.733   0.219  26.909  0.00  0.00    -0.252 OA
ATOM      4  N   UNL     1      -5.539   1.956  25.604  0.00  0.00    -0.284 N 
ATOM      5  N   UNL     1      -2.680   2.884  24.828  0.00  0.00    -0.311 N 
ATOM      6  N   UNL     1      -4.889  -0.089  24.620  0.00  0.00    -0.269 N 
ATOM      8  C   UNL     1      -4.421   4.057  26.297  0.00  0.00    +0.027 C 
ATOM      9  C   UNL     1      -4.903   3.644  23.914  0.00  0.00    +0.054 C 
ATOM     10  C   UNL     1      -4.865   4.724  24.997  0.00  0.00    +0.018 C 
ATOM     11  C   UNL     1      -5.404   2.933  26.686  0.00  0.00    +0.114 C 
ATOM     12  C   UNL     1      -2.988   3.539  26.110  0.00  0.00    +0.130 C 
ATOM     13  C   UNL     1      -5.926   2.556  24.313  0.00  0.00    +0.119 C 
ATOM     14  C   UNL     1      -3.537   3.007  23.730  0.00  0.00    +0.027 A 
ATOM     15  C   UNL     1      -3.185   2.495  22.539  0.00  0.00    +0.022 A 
ATOM     16  C   UNL     1      -1.451   2.201  24.741  0.00  0.00    +0.262 A 
ATOM     17  C   UNL     1      -5.035   0.649  25.792  0.00  0.00    +0.306 C 
ATOM     18  C   UNL     1      -1.105   1.600  23.406  0.00  0.00    +0.082 A 
ATOM     19  C   UNL     1      -1.949   1.785  22.379  0.00  0.00    +0.018 A 
ATOM     31  H   UNL     1      -5.493   0.113  23.833  0.00  0.00    +0.156 HD
ENDROOT
BRANCH   6  21
ATOM     21  C   UNL     1      -3.948  -1.121  24.384  0.00  0.00    +0.036 A 
ATOM     24  C   UNL     1      -2.689  -1.059  24.975  0.00  0.00    +0.042 A 
ATOM     25  C   UNL     1      -4.288  -2.191  23.559  0.00  0.00    +0.023 A 
ATOM     27  C   UNL     1      -1.763  -2.076  24.741  0.00  0.00    +0.054 A 
ATOM     28  C   UNL     1      -3.361  -3.207  23.325  0.00  0.00    +0.003 A 
ATOM     29  C   UNL     1      -2.099  -3.150  23.917  0.00  0.00    +0.019 A 
BRANCH  27  30
ATOM      7  N   UNL     1       0.581  -1.971  25.839  0.00  0.00    -0.191 NA
ATOM     30  C   UNL     1      -0.471  -2.017  25.347  0.00  0.00    +0.099 C 
ENDBRANCH  27  30
ENDBRANCH   6  21
BRANCH  18  20
ATOM      3  O   UNL     1       1.337   1.242  23.717  0.00  0.00    -0.463 OA
ATOM     20  C   UNL     1       0.138   0.836  23.208  0.00  0.00    +0.140 A 
ATOM     22  C   UNL     1       0.299  -0.352  22.520  0.00  0.00    +0.050 A 
ATOM     23  C   UNL     1       1.670  -0.688  22.614  0.00  0.00    +0.042 A 
ATOM     26  C   UNL     1       2.260   0.313  23.351  0.00  0.00    +0.196 A 
ENDBRANCH  18  20
TORSDOF 3
ENDMDL
