MODEL 1
REMARK VINA RESULT:       3.2      0.000      0.000
REMARK  Name = 25390368
REMARK  7 active torsions:
REMARK  status: ('A' for Active; 'I' for Inactive)
REMARK    1  A    between atoms: O_2  and  C_12
REMARK    2  A    between atoms: O_3  and  C_13
REMARK    3  A    between atoms: N_8  and  C_16
REMARK    4  A    between atoms: N_10  and  C_28
REMARK    5  A    between atoms: C_11  and  C_15
REMARK    6  A    between atoms: C_14  and  C_16
REMARK    7  A    between atoms: C_15  and  C_17
REMARK                            x       y       z     vdW  Elec       q    Type
REMARK                         _______ _______ _______ _____ _____    ______ ____
ROOT
ATOM      1  O   UNL     1      -4.052   1.639  24.172  0.00  0.00    -0.366 OA
ATOM     11  C   UNL     1      -5.005   0.733  24.773  0.00  0.00    +0.159 C 
ATOM     12  C   UNL     1      -6.113   1.602  25.359  0.00  0.00    +0.175 C 
ATOM     13  C   UNL     1      -5.373   2.885  25.676  0.00  0.00    +0.176 C 
ATOM     14  C   UNL     1      -4.425   2.991  24.493  0.00  0.00    +0.167 C 
ENDROOT
BRANCH  12   2
ATOM      2  O   UNL     1      -7.084   1.830  24.336  0.00  0.00    -0.387 OA
ATOM     34  H   UNL     1      -7.961   1.703  24.736  0.00  0.00    +0.210 HD
ENDBRANCH  12   2
BRANCH  13   3
ATOM      3  O   UNL     1      -6.220   4.009  25.778  0.00  0.00    -0.387 OA
ATOM     35  H   UNL     1      -7.135   3.682  25.824  0.00  0.00    +0.210 HD
ENDBRANCH  13   3
BRANCH  11  15
ATOM     15  C   UNL     1      -4.270  -0.085  25.826  0.00  0.00    +0.130 C 
BRANCH  15  17
ATOM      4  O   UNL     1      -4.044  -2.316  25.047  0.00  0.00    -0.276 OA
ATOM      6  N   UNL     1      -2.222  -0.911  24.726  0.00  0.00    -0.298 N 
ATOM      7  N   UNL     1       0.377  -0.342  23.586  0.00  0.00    -0.312 N 
ATOM      9  N   UNL     1       1.760  -0.221  21.676  0.00  0.00    -0.240 NA
ATOM     17  C   UNL     1      -3.512  -1.210  25.165  0.00  0.00    +0.218 C 
ATOM     18  C   UNL     1      -1.421  -1.948  24.081  0.00  0.00    +0.126 C 
ATOM     19  C   UNL     1      -1.596   0.408  24.858  0.00  0.00    +0.126 C 
ATOM     20  C   UNL     1      -0.494  -1.371  23.014  0.00  0.00    +0.125 C 
ATOM     21  C   UNL     1      -0.069   0.346  24.800  0.00  0.00    +0.125 C 
ATOM     22  C   UNL     1       1.611  -0.051  23.008  0.00  0.00    +0.121 A 
ATOM     24  C   UNL     1       2.616   0.397  23.851  0.00  0.00    +0.043 A 
ATOM     25  C   UNL     1       3.853   0.691  23.289  0.00  0.00    +0.005 A 
ATOM     26  C   UNL     1       2.977   0.074  21.165  0.00  0.00    +0.113 A 
ATOM     27  C   UNL     1       4.046   0.528  21.921  0.00  0.00    +0.020 A 
ENDBRANCH  15  17
ENDBRANCH  11  15
BRANCH  14  16
ATOM     16  C   UNL     1      -3.181   3.808  24.790  0.00  0.00    +0.140 C 
BRANCH  16   8
ATOM      5  O   UNL     1      -0.383   3.707  25.395  0.00  0.00    -0.253 OA
ATOM      8  N   UNL     1      -2.587   3.415  26.033  0.00  0.00    -0.297 N 
ATOM     10  N   UNL     1      -0.917   2.966  27.557  0.00  0.00    -0.269 N 
ATOM     23  C   UNL     1      -1.201   3.390  26.257  0.00  0.00    +0.304 C 
ATOM     36  H   UNL     1      -3.202   3.148  26.796  0.00  0.00    +0.150 HD
ATOM     37  H   UNL     1      -1.714   2.739  28.147  0.00  0.00    +0.156 HD
BRANCH  10  28
ATOM     28  C   UNL     1       0.351   2.810  28.163  0.00  0.00    +0.035 A 
ATOM     29  C   UNL     1       1.512   2.994  27.412  0.00  0.00    +0.023 A 
ATOM     30  C   UNL     1       0.443   2.472  29.513  0.00  0.00    +0.023 A 
ATOM     31  C   UNL     1       2.762   2.840  28.009  0.00  0.00    +0.002 A 
ATOM     32  C   UNL     1       1.693   2.319  30.112  0.00  0.00    +0.002 A 
ATOM     33  C   UNL     1       2.854   2.502  29.359  0.00  0.00    +0.000 A 
ENDBRANCH  10  28
ENDBRANCH  16   8
ENDBRANCH  14  16
TORSDOF 7
ENDMDL
MODEL 2
REMARK VINA RESULT:       5.1      2.874      5.859
REMARK  Name = 25390368
REMARK  7 active torsions:
REMARK  status: ('A' for Active; 'I' for Inactive)
REMARK    1  A    between atoms: O_2  and  C_12
REMARK    2  A    between atoms: O_3  and  C_13
REMARK    3  A    between atoms: N_8  and  C_16
REMARK    4  A    between atoms: N_10  and  C_28
REMARK    5  A    between atoms: C_11  and  C_15
REMARK    6  A    between atoms: C_14  and  C_16
REMARK    7  A    between atoms: C_15  and  C_17
REMARK                            x       y       z     vdW  Elec       q    Type
REMARK                         _______ _______ _______ _____ _____    ______ ____
ROOT
ATOM      1  O   UNL     1      -3.058   4.049  24.007  0.00  0.00    -0.366 OA
ATOM     11  C   UNL     1      -2.909   5.070  25.020  0.00  0.00    +0.159 C 
ATOM     12  C   UNL     1      -1.410   5.278  25.203  0.00  0.00    +0.175 C 
ATOM     13  C   UNL     1      -0.856   3.917  24.838  0.00  0.00    +0.176 C 
ATOM     14  C   UNL     1      -1.760   3.518  23.685  0.00  0.00    +0.167 C 
ENDROOT
BRANCH  12   2
ATOM      2  O   UNL     1      -0.981   6.258  24.256  0.00  0.00    -0.387 OA
ATOM     34  H   UNL     1      -1.772   6.738  23.956  0.00  0.00    +0.210 HD
ENDBRANCH  12   2
BRANCH  13   3
ATOM      3  O   UNL     1       0.503   3.950  24.458  0.00  0.00    -0.387 OA
ATOM     35  H   UNL     1       0.685   3.138  23.954  0.00  0.00    +0.210 HD
ENDBRANCH  13   3
BRANCH  11  15
ATOM     15  C   UNL     1      -3.601   4.576  26.284  0.00  0.00    +0.130 C 
BRANCH  15  17
ATOM      4  O   UNL     1      -5.922   4.305  25.866  0.00  0.00    -0.276 OA
ATOM      6  N   UNL     1      -4.598   2.406  25.665  0.00  0.00    -0.298 N 
ATOM      7  N   UNL     1      -4.227  -0.363  24.909  0.00  0.00    -0.312 N 
ATOM      9  N   UNL     1      -4.394  -2.044  23.258  0.00  0.00    -0.240 NA
ATOM     17  C   UNL     1      -4.817   3.761  25.919  0.00  0.00    +0.218 C 
ATOM     18  C   UNL     1      -5.725   1.548  25.311  0.00  0.00    +0.126 C 
ATOM     19  C   UNL     1      -3.282   1.763  25.719  0.00  0.00    +0.126 C 
ATOM     20  C   UNL     1      -5.317   0.438  24.345  0.00  0.00    +0.125 C 
ATOM     21  C   UNL     1      -3.371   0.251  25.926  0.00  0.00    +0.125 C 
ATOM     22  C   UNL     1      -4.036  -1.685  24.511  0.00  0.00    +0.121 A 
ATOM     24  C   UNL     1      -3.487  -2.553  25.441  0.00  0.00    +0.043 A 
ATOM     25  C   UNL     1      -3.291  -3.875  25.058  0.00  0.00    +0.005 A 
ATOM     26  C   UNL     1      -4.189  -3.337  22.922  0.00  0.00    +0.113 A 
ATOM     27  C   UNL     1      -3.646  -4.284  23.777  0.00  0.00    +0.020 A 
ENDBRANCH  15  17
ENDBRANCH  11  15
BRANCH  14  16
ATOM     16  C   UNL     1      -1.857   2.016  23.486  0.00  0.00    +0.140 C 
BRANCH  16   8
ATOM      5  O   UNL     1       0.562   1.228  24.802  0.00  0.00    -0.253 OA
ATOM      8  N   UNL     1      -0.674   1.498  22.866  0.00  0.00    -0.297 N 
ATOM     10  N   UNL     1       1.468   0.662  22.712  0.00  0.00    -0.269 N 
ATOM     23  C   UNL     1       0.478   1.131  23.580  0.00  0.00    +0.304 C 
ATOM     36  H   UNL     1      -0.673   1.382  21.857  0.00  0.00    +0.150 HD
ATOM     37  H   UNL     1       1.238   0.648  21.722  0.00  0.00    +0.156 HD
BRANCH  10  28
ATOM     28  C   UNL     1       2.763   0.200  23.041  0.00  0.00    +0.035 A 
ATOM     29  C   UNL     1       2.945  -1.107  23.494  0.00  0.00    +0.023 A 
ATOM     30  C   UNL     1       3.861   1.051  22.913  0.00  0.00    +0.023 A 
ATOM     31  C   UNL     1       4.222  -1.562  23.819  0.00  0.00    +0.002 A 
ATOM     32  C   UNL     1       5.139   0.596  23.237  0.00  0.00    +0.002 A 
ATOM     33  C   UNL     1       5.320  -0.712  23.690  0.00  0.00    +0.000 A 
ENDBRANCH  10  28
ENDBRANCH  16   8
ENDBRANCH  14  16
TORSDOF 7
ENDMDL
MODEL 3
REMARK VINA RESULT:       7.2      2.214      4.953
REMARK  Name = 25390368
REMARK  7 active torsions:
REMARK  status: ('A' for Active; 'I' for Inactive)
REMARK    1  A    between atoms: O_2  and  C_12
REMARK    2  A    between atoms: O_3  and  C_13
REMARK    3  A    between atoms: N_8  and  C_16
REMARK    4  A    between atoms: N_10  and  C_28
REMARK    5  A    between atoms: C_11  and  C_15
REMARK    6  A    between atoms: C_14  and  C_16
REMARK    7  A    between atoms: C_15  and  C_17
REMARK                            x       y       z     vdW  Elec       q    Type
REMARK                         _______ _______ _______ _____ _____    ______ ____
ROOT
ATOM      1  O   UNL     1      -5.122   4.786  25.607  0.00  0.00    -0.366 OA
ATOM     11  C   UNL     1      -3.957   5.410  25.020  0.00  0.00    +0.159 C 
ATOM     12  C   UNL     1      -3.611   4.593  23.780  0.00  0.00    +0.175 C 
ATOM     13  C   UNL     1      -4.125   3.219  24.154  0.00  0.00    +0.176 C 
ATOM     14  C   UNL     1      -5.402   3.564  24.901  0.00  0.00    +0.167 C 
ENDROOT
BRANCH  12   2
ATOM      2  O   UNL     1      -4.357   5.120  22.681  0.00  0.00    -0.387 OA
ATOM     34  H   UNL     1      -4.023   6.017  22.507  0.00  0.00    +0.210 HD
ENDBRANCH  12   2
BRANCH  13   3
ATOM      3  O   UNL     1      -4.372   2.391  23.038  0.00  0.00    -0.387 OA
ATOM     35  H   UNL     1      -3.534   2.297  22.553  0.00  0.00    +0.210 HD
ENDBRANCH  13   3
BRANCH  11  15
ATOM     15  C   UNL     1      -2.850   5.405  26.065  0.00  0.00    +0.130 C 
BRANCH  15  17
ATOM      4  O   UNL     1      -3.160   3.462  27.393  0.00  0.00    -0.276 OA
ATOM      6  N   UNL     1      -1.515   3.353  25.755  0.00  0.00    -0.298 N 
ATOM      7  N   UNL     1       0.423   1.873  24.197  0.00  0.00    -0.312 N 
ATOM      9  N   UNL     1       0.903   0.042  22.783  0.00  0.00    -0.240 NA
ATOM     17  C   UNL     1      -2.532   3.987  26.471  0.00  0.00    +0.218 C 
ATOM     18  C   UNL     1      -1.145   1.981  26.090  0.00  0.00    +0.126 C 
ATOM     19  C   UNL     1      -0.778   3.976  24.652  0.00  0.00    +0.126 C 
ATOM     20  C   UNL     1      -0.692   1.196  24.862  0.00  0.00    +0.125 C 
ATOM     21  C   UNL     1       0.578   3.315  24.400  0.00  0.00    +0.125 C 
ATOM     22  C   UNL     1       1.330   1.156  23.419  0.00  0.00    +0.121 A 
ATOM     24  C   UNL     1       2.628   1.638  23.353  0.00  0.00    +0.043 A 
ATOM     25  C   UNL     1       3.545   0.932  22.582  0.00  0.00    +0.005 A 
ATOM     26  C   UNL     1       1.822  -0.618  22.044  0.00  0.00    +0.113 A 
ATOM     27  C   UNL     1       3.143  -0.218  21.912  0.00  0.00    +0.020 A 
ENDBRANCH  15  17
ENDBRANCH  11  15
BRANCH  14  16
ATOM     16  C   UNL     1      -5.832   2.492  25.885  0.00  0.00    +0.140 C 
BRANCH  16   8
ATOM      5  O   UNL     1      -5.374   0.239  24.177  0.00  0.00    -0.253 OA
ATOM      8  N   UNL     1      -4.817   1.492  26.039  0.00  0.00    -0.297 N 
ATOM     10  N   UNL     1      -3.587  -0.397  25.560  0.00  0.00    -0.269 N 
ATOM     23  C   UNL     1      -4.653   0.412  25.158  0.00  0.00    +0.304 C 
ATOM     36  H   UNL     1      -4.177   1.574  26.824  0.00  0.00    +0.150 HD
ATOM     37  H   UNL     1      -3.092  -0.113  26.401  0.00  0.00    +0.156 HD
BRANCH  10  28
ATOM     28  C   UNL     1      -3.107  -1.573  24.939  0.00  0.00    +0.035 A 
ATOM     29  C   UNL     1      -4.004  -2.530  24.465  0.00  0.00    +0.023 A 
ATOM     30  C   UNL     1      -1.734  -1.777  24.799  0.00  0.00    +0.023 A 
ATOM     31  C   UNL     1      -3.531  -3.690  23.853  0.00  0.00    +0.002 A 
ATOM     32  C   UNL     1      -1.259  -2.936  24.186  0.00  0.00    +0.002 A 
ATOM     33  C   UNL     1      -2.158  -3.894  23.713  0.00  0.00    +0.000 A 
ENDBRANCH  10  28
ENDBRANCH  16   8
ENDBRANCH  14  16
TORSDOF 7
ENDMDL
