MODEL 1
REMARK VINA RESULT:      10.6      0.000      0.000
REMARK  Name = 44716431
REMARK  9 active torsions:
REMARK  status: ('A' for Active; 'I' for Inactive)
REMARK    1  A    between atoms: O_2  and  C_21
REMARK    2  A    between atoms: O_2  and  C_34
REMARK    3  A    between atoms: N_5  and  C_12
REMARK    4  A    between atoms: N_5  and  C_22
REMARK    5  A    between atoms: N_7  and  C_32
REMARK    6  A    between atoms: C_10  and  C_18
REMARK    7  A    between atoms: C_14  and  C_21
REMARK    8  A    between atoms: C_22  and  C_27
REMARK    9  A    between atoms: C_27  and  C_32
REMARK                            x       y       z     vdW  Elec       q    Type
REMARK                         _______ _______ _______ _____ _____    ______ ____
ROOT
ATOM      4  N   UNL     1      -0.983   1.545  25.837  0.00  0.00    -0.274 NA
ATOM      6  N   UNL     1      -3.703   0.004  23.754  0.00  0.00    -0.356 N 
ATOM      9  C   UNL     1      -1.977   1.629  24.723  0.00  0.00    +0.106 C 
ATOM     10  C   UNL     1      -0.328   2.852  26.096  0.00  0.00    +0.090 C 
ATOM     11  C   UNL     1      -3.056   2.679  25.034  0.00  0.00    +0.044 C 
ATOM     12  C   UNL     1      -2.418   4.049  25.260  0.00  0.00    +0.057 C 
ATOM     13  C   UNL     1      -1.378   3.955  26.376  0.00  0.00    +0.042 C 
ATOM     14  C   UNL     1      -0.048   0.396  25.692  0.00  0.00    +0.172 C 
ATOM     15  C   UNL     1      -2.576   0.276  24.479  0.00  0.00    +0.038 A 
ATOM     16  C   UNL     1      -0.779  -0.971  25.692  0.00  0.00    +0.068 C 
ATOM     17  C   UNL     1      -2.036  -0.921  24.897  0.00  0.00    -0.016 A 
ATOM     19  C   UNL     1      -2.886  -1.964  24.438  0.00  0.00    +0.003 A 
ATOM     20  C   UNL     1      -3.924  -1.356  23.726  0.00  0.00    +0.047 A 
ATOM     25  C   UNL     1      -2.875  -3.368  24.554  0.00  0.00    +0.010 A 
ATOM     26  C   UNL     1      -4.953  -2.088  23.123  0.00  0.00    +0.026 A 
ATOM     28  C   UNL     1      -3.899  -4.112  23.957  0.00  0.00    +0.001 A 
ATOM     31  C   UNL     1      -4.922  -3.479  23.253  0.00  0.00    +0.002 A 
ATOM     39  H   UNL     1      -4.292   0.691  23.305  0.00  0.00    +0.166 HD
ENDROOT
BRANCH  10  18
ATOM      1 CL   UNL     1       0.510   2.277  31.226  0.00  0.00    -0.084 Cl
ATOM     18  C   UNL     1       0.651   2.838  27.268  0.00  0.00    -0.029 A 
ATOM     23  C   UNL     1       0.188   2.592  28.560  0.00  0.00    +0.025 A 
ATOM     24  C   UNL     1       2.008   3.070  27.045  0.00  0.00    +0.005 A 
ATOM     29  C   UNL     1       1.082   2.578  29.630  0.00  0.00    +0.041 A 
ATOM     30  C   UNL     1       2.902   3.056  28.115  0.00  0.00    +0.002 A 
ATOM     33  C   UNL     1       2.440   2.810  29.408  0.00  0.00    +0.020 A 
ENDBRANCH  10  18
BRANCH  14  21
ATOM      3  O   UNL     1       1.417   1.569  24.178  0.00  0.00    -0.249 OA
ATOM     21  C   UNL     1       0.794   0.555  24.456  0.00  0.00    +0.325 C 
BRANCH  21   2
ATOM      2  O   UNL     1       0.744  -0.592  23.721  0.00  0.00    -0.467 OA
ATOM     34  C   UNL     1       1.190  -0.474  22.367  0.00  0.00    +0.280 C 
ENDBRANCH  21   2
ENDBRANCH  14  21
BRANCH  12   5
ATOM      5  N   UNL     1      -3.446   5.035  25.588  0.00  0.00    -0.313 NA
ATOM     38  H   UNL     1      -3.997   4.706  26.382  0.00  0.00    +0.122 HD
BRANCH   5  22
ATOM     22  C   UNL     1      -4.336   5.249  24.457  0.00  0.00    +0.083 C 
BRANCH  22  27
ATOM     27  C   UNL     1      -5.784   5.353  24.932  0.00  0.00    +0.037 C 
BRANCH  27  32
ATOM     32  C   UNL     1      -6.012   4.514  26.192  0.00  0.00    +0.124 C 
BRANCH  32   7
ATOM      7  N   UNL     1      -6.085   3.042  25.876  0.00  0.00    -0.337 N 
ATOM      8  N   UNL     1      -6.226   1.174  24.683  0.00  0.00    -0.244 NA
ATOM     35  C   UNL     1      -6.068   2.018  26.782  0.00  0.00    +0.106 A 
ATOM     36  C   UNL     1      -6.181   2.487  24.631  0.00  0.00    +0.199 A 
ATOM     37  C   UNL     1      -6.156   0.875  26.022  0.00  0.00    +0.130 A 
ENDBRANCH  32   7
ENDBRANCH  27  32
ENDBRANCH  22  27
ENDBRANCH   5  22
ENDBRANCH  12   5
TORSDOF 8
ENDMDL
MODEL 2
REMARK VINA RESULT:      12.1      2.244      5.962
REMARK  Name = 44716431
REMARK  9 active torsions:
REMARK  status: ('A' for Active; 'I' for Inactive)
REMARK    1  A    between atoms: O_2  and  C_21
REMARK    2  A    between atoms: O_2  and  C_34
REMARK    3  A    between atoms: N_5  and  C_12
REMARK    4  A    between atoms: N_5  and  C_22
REMARK    5  A    between atoms: N_7  and  C_32
REMARK    6  A    between atoms: C_10  and  C_18
REMARK    7  A    between atoms: C_14  and  C_21
REMARK    8  A    between atoms: C_22  and  C_27
REMARK    9  A    between atoms: C_27  and  C_32
REMARK                            x       y       z     vdW  Elec       q    Type
REMARK                         _______ _______ _______ _____ _____    ______ ____
ROOT
ATOM      4  N   UNL     1      -0.928   1.252  24.547  0.00  0.00    -0.274 NA
ATOM      6  N   UNL     1      -4.123   2.416  26.144  0.00  0.00    -0.356 N 
ATOM      9  C   UNL     1      -1.878   1.266  25.702  0.00  0.00    +0.106 C 
ATOM     10  C   UNL     1       0.169   0.272  24.743  0.00  0.00    +0.090 C 
ATOM     11  C   UNL     1      -2.484  -0.128  25.925  0.00  0.00    +0.044 C 
ATOM     12  C   UNL     1      -1.380  -1.156  26.178  0.00  0.00    +0.057 C 
ATOM     13  C   UNL     1      -0.392  -1.145  25.012  0.00  0.00    +0.042 C 
ATOM     14  C   UNL     1      -0.484   2.616  24.148  0.00  0.00    +0.172 C 
ATOM     15  C   UNL     1      -2.940   2.300  25.469  0.00  0.00    +0.038 A 
ATOM     16  C   UNL     1      -1.662   3.518  23.699  0.00  0.00    +0.068 C 
ATOM     17  C   UNL     1      -2.852   3.343  24.574  0.00  0.00    -0.016 A 
ATOM     19  C   UNL     1      -4.045   4.109  24.682  0.00  0.00    +0.003 A 
ATOM     20  C   UNL     1      -4.825   3.505  25.673  0.00  0.00    +0.047 A 
ATOM     25  C   UNL     1      -4.540   5.261  24.038  0.00  0.00    +0.010 A 
ATOM     26  C   UNL     1      -6.079   4.000  26.050  0.00  0.00    +0.026 A 
ATOM     28  C   UNL     1      -5.793   5.764  24.405  0.00  0.00    +0.001 A 
ATOM     31  C   UNL     1      -6.550   5.141  25.396  0.00  0.00    +0.002 A 
ATOM     39  H   UNL     1      -4.443   1.800  26.878  0.00  0.00    +0.166 HD
ENDROOT
BRANCH  10  18
ATOM      1 CL   UNL     1       4.996   0.908  22.836  0.00  0.00    -0.084 Cl
ATOM     18  C   UNL     1       1.133   0.171  23.563  0.00  0.00    -0.029 A 
ATOM     23  C   UNL     1       2.469   0.541  23.720  0.00  0.00    +0.025 A 
ATOM     24  C   UNL     1       0.678  -0.294  22.329  0.00  0.00    +0.005 A 
ATOM     29  C   UNL     1       3.349   0.448  22.642  0.00  0.00    +0.041 A 
ATOM     30  C   UNL     1       1.559  -0.387  21.252  0.00  0.00    +0.002 A 
ATOM     33  C   UNL     1       2.895  -0.017  21.408  0.00  0.00    +0.020 A 
ENDBRANCH  10  18
BRANCH  14  21
ATOM      3  O   UNL     1       0.426   4.472  25.389  0.00  0.00    -0.249 OA
ATOM     21  C   UNL     1       0.295   3.263  25.259  0.00  0.00    +0.325 C 
BRANCH  21   2
ATOM      2  O   UNL     1       0.814   2.300  26.073  0.00  0.00    -0.467 OA
ATOM     34  C   UNL     1       0.830   2.617  27.468  0.00  0.00    +0.280 C 
ENDBRANCH  21   2
ENDBRANCH  14  21
BRANCH  12   5
ATOM      5  N   UNL     1      -1.962  -2.485  26.356  0.00  0.00    -0.313 NA
ATOM     38  H   UNL     1      -1.384  -3.180  25.882  0.00  0.00    +0.122 HD
BRANCH   5  22
ATOM     22  C   UNL     1      -3.307  -2.538  25.803  0.00  0.00    +0.083 C 
BRANCH  22  27
ATOM     27  C   UNL     1      -3.336  -3.430  24.563  0.00  0.00    +0.037 C 
BRANCH  27  32
ATOM     32  C   UNL     1      -4.319  -2.892  23.520  0.00  0.00    +0.124 C 
BRANCH  32   7
ATOM      7  N   UNL     1      -4.373  -1.386  23.529  0.00  0.00    -0.337 N 
ATOM      8  N   UNL     1      -5.055   0.668  24.024  0.00  0.00    -0.244 NA
ATOM     35  C   UNL     1      -3.542  -0.542  22.848  0.00  0.00    +0.106 A 
ATOM     36  C   UNL     1      -5.264  -0.614  24.220  0.00  0.00    +0.199 A 
ATOM     37  C   UNL     1      -3.982   0.720  23.168  0.00  0.00    +0.130 A 
ENDBRANCH  32   7
ENDBRANCH  27  32
ENDBRANCH  22  27
ENDBRANCH   5  22
ENDBRANCH  12   5
TORSDOF 8
ENDMDL
MODEL 3
REMARK VINA RESULT:      12.7      1.321      2.062
REMARK  Name = 44716431
REMARK  9 active torsions:
REMARK  status: ('A' for Active; 'I' for Inactive)
REMARK    1  A    between atoms: O_2  and  C_21
REMARK    2  A    between atoms: O_2  and  C_34
REMARK    3  A    between atoms: N_5  and  C_12
REMARK    4  A    between atoms: N_5  and  C_22
REMARK    5  A    between atoms: N_7  and  C_32
REMARK    6  A    between atoms: C_10  and  C_18
REMARK    7  A    between atoms: C_14  and  C_21
REMARK    8  A    between atoms: C_22  and  C_27
REMARK    9  A    between atoms: C_27  and  C_32
REMARK                            x       y       z     vdW  Elec       q    Type
REMARK                         _______ _______ _______ _____ _____    ______ ____
ROOT
ATOM      4  N   UNL     1      -1.179   1.464  26.182  0.00  0.00    -0.274 NA
ATOM      6  N   UNL     1      -3.955  -0.137  24.221  0.00  0.00    -0.356 N 
ATOM      9  C   UNL     1      -2.319   1.561  25.219  0.00  0.00    +0.106 C 
ATOM     10  C   UNL     1      -0.656   2.800  26.561  0.00  0.00    +0.090 C 
ATOM     11  C   UNL     1      -3.462   2.399  25.813  0.00  0.00    +0.044 C 
ATOM     12  C   UNL     1      -2.967   3.801  26.169  0.00  0.00    +0.057 C 
ATOM     13  C   UNL     1      -1.782   3.698  27.128  0.00  0.00    +0.042 C 
ATOM     14  C   UNL     1      -0.142   0.486  25.753  0.00  0.00    +0.172 C 
ATOM     15  C   UNL     1      -2.780   0.185  24.842  0.00  0.00    +0.038 A 
ATOM     16  C   UNL     1      -0.699  -0.956  25.629  0.00  0.00    +0.068 C 
ATOM     17  C   UNL     1      -2.049  -0.972  25.004  0.00  0.00    -0.016 A 
ATOM     19  C   UNL     1      -2.823  -2.050  24.494  0.00  0.00    +0.003 A 
ATOM     20  C   UNL     1      -4.014  -1.498  24.011  0.00  0.00    +0.047 A 
ATOM     25  C   UNL     1      -2.629  -3.441  24.390  0.00  0.00    +0.010 A 
ATOM     26  C   UNL     1      -5.021  -2.276  23.427  0.00  0.00    +0.026 A 
ATOM     28  C   UNL     1      -3.629  -4.230  23.811  0.00  0.00    +0.001 A 
ATOM     31  C   UNL     1      -4.807  -3.654  23.338  0.00  0.00    +0.002 A 
ATOM     39  H   UNL     1      -4.677   0.517  23.956  0.00  0.00    +0.166 HD
ENDROOT
BRANCH  10  18
ATOM      1 CL   UNL     1       0.849   2.104  31.520  0.00  0.00    -0.084 Cl
ATOM     18  C   UNL     1       0.469   2.761  27.593  0.00  0.00    -0.029 A 
ATOM     23  C   UNL     1       0.179   2.482  28.928  0.00  0.00    +0.025 A 
ATOM     24  C   UNL     1       1.785   3.002  27.199  0.00  0.00    +0.005 A 
ATOM     29  C   UNL     1       1.207   2.445  29.871  0.00  0.00    +0.041 A 
ATOM     30  C   UNL     1       2.812   2.965  28.142  0.00  0.00    +0.002 A 
ATOM     33  C   UNL     1       2.523   2.686  29.478  0.00  0.00    +0.020 A 
ENDBRANCH  10  18
BRANCH  14  21
ATOM      3  O   UNL     1       0.971   2.039  24.284  0.00  0.00    -0.249 OA
ATOM     21  C   UNL     1       0.498   0.926  24.466  0.00  0.00    +0.325 C 
BRANCH  21   2
ATOM      2  O   UNL     1       0.460  -0.096  23.565  0.00  0.00    -0.467 OA
ATOM     34  C   UNL     1       1.527  -0.114  22.611  0.00  0.00    +0.280 C 
ENDBRANCH  21   2
ENDBRANCH  14  21
BRANCH  12   5
ATOM      5  N   UNL     1      -4.052   4.581  26.764  0.00  0.00    -0.313 NA
ATOM     38  H   UNL     1      -4.415   4.095  27.584  0.00  0.00    +0.122 HD
BRANCH   5  22
ATOM     22  C   UNL     1      -5.136   4.768  25.811  0.00  0.00    +0.083 C 
BRANCH  22  27
ATOM     27  C   UNL     1      -4.992   3.790  24.646  0.00  0.00    +0.037 C 
BRANCH  27  32
ATOM     32  C   UNL     1      -4.239   4.431  23.478  0.00  0.00    +0.124 C 
BRANCH  32   7
ATOM      7  N   UNL     1      -3.361   3.435  22.766  0.00  0.00    -0.337 N 
ATOM      8  N   UNL     1      -1.543   2.287  22.209  0.00  0.00    -0.244 NA
ATOM     35  C   UNL     1      -3.750   2.575  21.777  0.00  0.00    +0.106 A 
ATOM     36  C   UNL     1      -2.029   3.226  22.991  0.00  0.00    +0.199 A 
ATOM     37  C   UNL     1      -2.611   1.877  21.450  0.00  0.00    +0.130 A 
ENDBRANCH  32   7
ENDBRANCH  27  32
ENDBRANCH  22  27
ENDBRANCH   5  22
ENDBRANCH  12   5
TORSDOF 8
ENDMDL
