MODEL 1
REMARK VINA RESULT:      -5.7      0.000      0.000
REMARK  Name = 75536523
REMARK  12 active torsions:
REMARK  status: ('A' for Active; 'I' for Inactive)
REMARK    1  A    between atoms: O_2  and  C_8
REMARK    2  A    between atoms: O_4  and  C_20
REMARK    3  A    between atoms: N_5  and  C_7
REMARK    4  A    between atoms: N_5  and  C_13
REMARK    5  A    between atoms: N_6  and  C_11
REMARK    6  A    between atoms: C_9  and  C_11
REMARK    7  A    between atoms: C_12  and  C_14
REMARK    8  A    between atoms: C_12  and  C_16
REMARK    9  A    between atoms: C_12  and  C_17
REMARK   10  A    between atoms: C_12  and  C_18
REMARK   11  A    between atoms: C_13  and  C_19
REMARK   12  A    between atoms: C_14  and  C_15
REMARK                            x       y       z     vdW  Elec       q    Type
REMARK                         _______ _______ _______ _____ _____    ______ ____
ROOT
ATOM      1  O   UNL     1      -0.345   0.471  25.287  0.00  0.00    -0.371 OA
ATOM      7  C   UNL     1      -2.210  -0.955  25.650  0.00  0.00    +0.111 C 
ATOM      8  C   UNL     1      -1.621  -1.249  24.282  0.00  0.00    +0.164 C 
ATOM      9  C   UNL     1      -0.216  -0.684  24.441  0.00  0.00    +0.165 C 
ATOM     10  C   UNL     1      -1.625   0.418  25.939  0.00  0.00    +0.181 C 
ENDROOT
BRANCH   8   2
ATOM      2  O   UNL     1      -1.604  -2.631  23.981  0.00  0.00    -0.388 OA
ATOM     27  H   UNL     1      -2.175  -3.089  24.621  0.00  0.00    +0.210 HD
ENDBRANCH   8   2
BRANCH   7   5
ATOM      5  N   UNL     1      -3.664  -0.967  25.674  0.00  0.00    -0.305 NA
ATOM     25  H   UNL     1      -3.987  -0.445  26.490  0.00  0.00    +0.123 HD
BRANCH   5  13
ATOM     13  C   UNL     1      -4.215  -0.353  24.472  0.00  0.00    +0.120 C 
BRANCH  13  19
ATOM     19  C   UNL     1      -4.440   1.124  24.649  0.00  0.00    +0.008 A 
ATOM     20  C   UNL     1      -3.746   2.050  23.871  0.00  0.00    +0.121 A 
ATOM     21  C   UNL     1      -5.355   1.564  25.605  0.00  0.00    +0.008 A 
ATOM     22  C   UNL     1      -3.967   3.416  24.048  0.00  0.00    +0.046 A 
ATOM     23  C   UNL     1      -5.576   2.930  25.783  0.00  0.00    +0.001 A 
ATOM     24  C   UNL     1      -4.882   3.856  25.005  0.00  0.00    +0.004 A 
BRANCH  20   4
ATOM      4  O   UNL     1      -2.847   1.638  22.933  0.00  0.00    -0.506 OA
ATOM     28  H   UNL     1      -2.232   1.002  23.340  0.00  0.00    +0.292 HD
ENDBRANCH  20   4
ENDBRANCH  13  19
ENDBRANCH   5  13
ENDBRANCH   7   5
BRANCH   9  11
ATOM     11  C   UNL     1       0.423  -0.286  23.122  0.00  0.00    +0.138 C 
BRANCH  11   6
ATOM      3  O   UNL     1       2.587  -0.191  21.198  0.00  0.00    -0.276 OA
ATOM      6  N   UNL     1       1.748   0.256  23.318  0.00  0.00    -0.313 N 
ATOM     15  C   UNL     1       2.721   0.258  22.335  0.00  0.00    +0.214 C 
ATOM     26  H   UNL     1       1.957   0.662  24.226  0.00  0.00    +0.149 HD
BRANCH  15  14
ATOM     14  C   UNL     1       4.030   0.879  22.795  0.00  0.00    +0.102 C 
BRANCH  14  12
ATOM     12  C   UNL     1       5.013  -0.108  23.468  0.00  0.00    -0.029 C 
ATOM     16  C   UNL     1       4.329  -1.443  23.805  0.00  0.00    +0.011 C 
ATOM     17  C   UNL     1       6.232  -0.376  22.568  0.00  0.00    +0.011 C 
ATOM     18  C   UNL     1       5.508   0.532  24.780  0.00  0.00    +0.011 C 
ENDBRANCH  14  12
ENDBRANCH  15  14
ENDBRANCH  11   6
ENDBRANCH   9  11
TORSDOF 9
ENDMDL
MODEL 2
REMARK VINA RESULT:      -5.7      2.850      5.139
REMARK  Name = 75536523
REMARK  12 active torsions:
REMARK  status: ('A' for Active; 'I' for Inactive)
REMARK    1  A    between atoms: O_2  and  C_8
REMARK    2  A    between atoms: O_4  and  C_20
REMARK    3  A    between atoms: N_5  and  C_7
REMARK    4  A    between atoms: N_5  and  C_13
REMARK    5  A    between atoms: N_6  and  C_11
REMARK    6  A    between atoms: C_9  and  C_11
REMARK    7  A    between atoms: C_12  and  C_14
REMARK    8  A    between atoms: C_12  and  C_16
REMARK    9  A    between atoms: C_12  and  C_17
REMARK   10  A    between atoms: C_12  and  C_18
REMARK   11  A    between atoms: C_13  and  C_19
REMARK   12  A    between atoms: C_14  and  C_15
REMARK                            x       y       z     vdW  Elec       q    Type
REMARK                         _______ _______ _______ _____ _____    ______ ____
ROOT
ATOM      1  O   UNL     1       0.230   3.638  23.657  0.00  0.00    -0.371 OA
ATOM      7  C   UNL     1      -0.936   4.044  25.686  0.00  0.00    +0.111 C 
ATOM      8  C   UNL     1      -0.590   2.568  25.601  0.00  0.00    +0.164 C 
ATOM      9  C   UNL     1       0.550   2.593  24.591  0.00  0.00    +0.165 C 
ATOM     10  C   UNL     1      -0.790   4.470  24.234  0.00  0.00    +0.181 C 
ENDROOT
BRANCH   8   2
ATOM      2  O   UNL     1      -0.182   2.031  26.845  0.00  0.00    -0.388 OA
ATOM     27  H   UNL     1       0.684   1.606  26.724  0.00  0.00    +0.210 HD
ENDBRANCH   8   2
BRANCH   7   5
ATOM      5  N   UNL     1      -2.264   4.302  26.220  0.00  0.00    -0.305 NA
ATOM     25  H   UNL     1      -2.238   5.158  26.775  0.00  0.00    +0.123 HD
BRANCH   5  13
ATOM     13  C   UNL     1      -3.239   4.462  25.149  0.00  0.00    +0.120 C 
BRANCH  13  19
ATOM     19  C   UNL     1      -4.235   3.334  25.124  0.00  0.00    +0.008 A 
ATOM     20  C   UNL     1      -4.162   2.340  24.149  0.00  0.00    +0.121 A 
ATOM     21  C   UNL     1      -5.240   3.290  26.089  0.00  0.00    +0.008 A 
ATOM     22  C   UNL     1      -5.092   1.301  24.139  0.00  0.00    +0.046 A 
ATOM     23  C   UNL     1      -6.172   2.252  26.080  0.00  0.00    +0.001 A 
ATOM     24  C   UNL     1      -6.098   1.257  25.105  0.00  0.00    +0.004 A 
BRANCH  20   4
ATOM      4  O   UNL     1      -3.186   2.368  23.196  0.00  0.00    -0.506 OA
ATOM     28  H   UNL     1      -2.320   2.255  23.625  0.00  0.00    +0.292 HD
ENDBRANCH  20   4
ENDBRANCH  13  19
ENDBRANCH   5  13
ENDBRANCH   7   5
BRANCH   9  11
ATOM     11  C   UNL     1       0.724   1.278  23.852  0.00  0.00    +0.138 C 
BRANCH  11   6
ATOM      3  O   UNL     1      -0.613  -0.828  25.324  0.00  0.00    -0.276 OA
ATOM      6  N   UNL     1      -0.551   0.669  23.548  0.00  0.00    -0.313 N 
ATOM     15  C   UNL     1      -1.113  -0.337  24.314  0.00  0.00    +0.214 C 
ATOM     26  H   UNL     1      -1.051   1.014  22.734  0.00  0.00    +0.149 HD
BRANCH  15  14
ATOM     14  C   UNL     1      -2.454  -0.813  23.779  0.00  0.00    +0.102 C 
BRANCH  14  12
ATOM     12  C   UNL     1      -3.135  -1.913  24.626  0.00  0.00    -0.029 C 
ATOM     16  C   UNL     1      -2.230  -3.145  24.782  0.00  0.00    +0.011 C 
ATOM     17  C   UNL     1      -3.515  -1.383  26.020  0.00  0.00    +0.011 C 
ATOM     18  C   UNL     1      -4.425  -2.344  23.901  0.00  0.00    +0.011 C 
ENDBRANCH  14  12
ENDBRANCH  15  14
ENDBRANCH  11   6
ENDBRANCH   9  11
TORSDOF 9
ENDMDL
MODEL 3
REMARK VINA RESULT:      -5.4      3.273      6.954
REMARK  Name = 75536523
REMARK  12 active torsions:
REMARK  status: ('A' for Active; 'I' for Inactive)
REMARK    1  A    between atoms: O_2  and  C_8
REMARK    2  A    between atoms: O_4  and  C_20
REMARK    3  A    between atoms: N_5  and  C_7
REMARK    4  A    between atoms: N_5  and  C_13
REMARK    5  A    between atoms: N_6  and  C_11
REMARK    6  A    between atoms: C_9  and  C_11
REMARK    7  A    between atoms: C_12  and  C_14
REMARK    8  A    between atoms: C_12  and  C_16
REMARK    9  A    between atoms: C_12  and  C_17
REMARK   10  A    between atoms: C_12  and  C_18
REMARK   11  A    between atoms: C_13  and  C_19
REMARK   12  A    between atoms: C_14  and  C_15
REMARK                            x       y       z     vdW  Elec       q    Type
REMARK                         _______ _______ _______ _____ _____    ______ ____
ROOT
ATOM      1  O   UNL     1      -1.104   3.217  26.518  0.00  0.00    -0.371 OA
ATOM      7  C   UNL     1       0.141   1.910  24.974  0.00  0.00    +0.111 C 
ATOM      8  C   UNL     1      -0.476   3.088  24.241  0.00  0.00    +0.164 C 
ATOM      9  C   UNL     1      -0.747   4.042  25.397  0.00  0.00    +0.165 C 
ATOM     10  C   UNL     1      -0.706   1.864  26.235  0.00  0.00    +0.181 C 
ENDROOT
BRANCH   8   2
ATOM      2  O   UNL     1       0.398   3.653  23.283  0.00  0.00    -0.388 OA
ATOM     27  H   UNL     1       0.402   3.079  22.498  0.00  0.00    +0.210 HD
ENDBRANCH   8   2
BRANCH   7   5
ATOM      5  N   UNL     1       0.101   0.667  24.220  0.00  0.00    -0.305 NA
ATOM     25  H   UNL     1       0.150  -0.118  24.870  0.00  0.00    +0.123 HD
BRANCH   5  13
ATOM     13  C   UNL     1      -1.130   0.563  23.445  0.00  0.00    +0.120 C 
BRANCH  13  19
ATOM     19  C   UNL     1      -1.990  -0.581  23.910  0.00  0.00    +0.008 A 
ATOM     20  C   UNL     1      -1.486  -1.540  24.788  0.00  0.00    +0.121 A 
ATOM     21  C   UNL     1      -3.304  -0.676  23.453  0.00  0.00    +0.008 A 
ATOM     22  C   UNL     1      -2.297  -2.594  25.211  0.00  0.00    +0.046 A 
ATOM     23  C   UNL     1      -4.115  -1.731  23.874  0.00  0.00    +0.001 A 
ATOM     24  C   UNL     1      -3.611  -2.690  24.753  0.00  0.00    +0.004 A 
BRANCH  20   4
ATOM      4  O   UNL     1      -0.204  -1.464  25.244  0.00  0.00    -0.506 OA
ATOM     28  H   UNL     1      -0.073  -2.134  25.937  0.00  0.00    +0.292 HD
ENDBRANCH  20   4
ENDBRANCH  13  19
ENDBRANCH   5  13
ENDBRANCH   7   5
BRANCH   9  11
ATOM     11  C   UNL     1      -1.863   5.030  25.109  0.00  0.00    +0.138 C 
BRANCH  11   6
ATOM      3  O   UNL     1      -3.939   3.603  23.679  0.00  0.00    -0.276 OA
ATOM      6  N   UNL     1      -3.128   4.565  25.632  0.00  0.00    -0.313 N 
ATOM     15  C   UNL     1      -4.063   3.888  24.869  0.00  0.00    +0.214 C 
ATOM     26  H   UNL     1      -3.322   4.744  26.614  0.00  0.00    +0.149 HD
BRANCH  15  14
ATOM     14  C   UNL     1      -5.312   3.515  25.651  0.00  0.00    +0.102 C 
BRANCH  14  12
ATOM     12  C   UNL     1      -5.651   2.006  25.646  0.00  0.00    -0.029 C 
ATOM     16  C   UNL     1      -6.551   1.635  24.456  0.00  0.00    +0.011 C 
ATOM     17  C   UNL     1      -4.373   1.151  25.602  0.00  0.00    +0.011 C 
ATOM     18  C   UNL     1      -6.408   1.683  26.949  0.00  0.00    +0.011 C 
ENDBRANCH  14  12
ENDBRANCH  15  14
ENDBRANCH  11   6
ENDBRANCH   9  11
TORSDOF 9
ENDMDL
MODEL 4
REMARK VINA RESULT:      -5.3      2.930      4.707
REMARK  Name = 75536523
REMARK  12 active torsions:
REMARK  status: ('A' for Active; 'I' for Inactive)
REMARK    1  A    between atoms: O_2  and  C_8
REMARK    2  A    between atoms: O_4  and  C_20
REMARK    3  A    between atoms: N_5  and  C_7
REMARK    4  A    between atoms: N_5  and  C_13
REMARK    5  A    between atoms: N_6  and  C_11
REMARK    6  A    between atoms: C_9  and  C_11
REMARK    7  A    between atoms: C_12  and  C_14
REMARK    8  A    between atoms: C_12  and  C_16
REMARK    9  A    between atoms: C_12  and  C_17
REMARK   10  A    between atoms: C_12  and  C_18
REMARK   11  A    between atoms: C_13  and  C_19
REMARK   12  A    between atoms: C_14  and  C_15
REMARK                            x       y       z     vdW  Elec       q    Type
REMARK                         _______ _______ _______ _____ _____    ______ ____
ROOT
ATOM      1  O   UNL     1      -0.256   4.526  24.062  0.00  0.00    -0.371 OA
ATOM      7  C   UNL     1      -1.792   4.407  25.871  0.00  0.00    +0.111 C 
ATOM      8  C   UNL     1      -1.085   3.070  25.732  0.00  0.00    +0.164 C 
ATOM      9  C   UNL     1       0.158   3.476  24.952  0.00  0.00    +0.165 C 
ATOM     10  C   UNL     1      -1.527   5.028  24.509  0.00  0.00    +0.181 C 
ENDROOT
BRANCH   8   2
ATOM      2  O   UNL     1      -0.759   2.494  26.982  0.00  0.00    -0.388 OA
ATOM     27  H   UNL     1      -1.567   2.458  27.521  0.00  0.00    +0.210 HD
ENDBRANCH   8   2
BRANCH   7   5
ATOM      5  N   UNL     1      -3.209   4.289  26.173  0.00  0.00    -0.305 NA
ATOM     25  H   UNL     1      -3.528   5.153  26.612  0.00  0.00    +0.123 HD
BRANCH   5  13
ATOM     13  C   UNL     1      -3.987   4.059  24.962  0.00  0.00    +0.120 C 
BRANCH  13  19
ATOM     19  C   UNL     1      -4.269   2.596  24.746  0.00  0.00    +0.008 A 
ATOM     20  C   UNL     1      -5.255   1.944  25.485  0.00  0.00    +0.121 A 
ATOM     21  C   UNL     1      -3.532   1.893  23.794  0.00  0.00    +0.008 A 
ATOM     22  C   UNL     1      -5.505   0.588  25.273  0.00  0.00    +0.046 A 
ATOM     23  C   UNL     1      -3.780   0.536  23.582  0.00  0.00    +0.001 A 
ATOM     24  C   UNL     1      -4.766  -0.117  24.322  0.00  0.00    +0.004 A 
BRANCH  20   4
ATOM      4  O   UNL     1      -5.985   2.615  26.421  0.00  0.00    -0.506 OA
ATOM     28  H   UNL     1      -6.873   2.791  26.064  0.00  0.00    +0.292 HD
ENDBRANCH  20   4
ENDBRANCH  13  19
ENDBRANCH   5  13
ENDBRANCH   7   5
BRANCH   9  11
ATOM     11  C   UNL     1       0.764   2.336  24.153  0.00  0.00    +0.138 C 
BRANCH  11   6
ATOM      3  O   UNL     1       1.290  -0.252  22.963  0.00  0.00    -0.276 OA
ATOM      6  N   UNL     1      -0.131   1.203  24.085  0.00  0.00    -0.313 N 
ATOM     15  C   UNL     1       0.210   0.000  23.493  0.00  0.00    +0.214 C 
ATOM     26  H   UNL     1      -1.050   1.308  24.506  0.00  0.00    +0.149 HD
BRANCH  15  14
ATOM     14  C   UNL     1      -0.910  -1.027  23.546  0.00  0.00    +0.102 C 
BRANCH  14  12
ATOM     12  C   UNL     1      -1.122  -1.681  24.932  0.00  0.00    -0.029 C 
ATOM     16  C   UNL     1       0.144  -2.410  25.411  0.00  0.00    +0.011 C 
ATOM     17  C   UNL     1      -1.533  -0.635  25.982  0.00  0.00    +0.011 C 
ATOM     18  C   UNL     1      -2.259  -2.714  24.803  0.00  0.00    +0.011 C 
ENDBRANCH  14  12
ENDBRANCH  15  14
ENDBRANCH  11   6
ENDBRANCH   9  11
TORSDOF 9
ENDMDL
MODEL 5
REMARK VINA RESULT:      -5.1      2.861      5.136
REMARK  Name = 75536523
REMARK  12 active torsions:
REMARK  status: ('A' for Active; 'I' for Inactive)
REMARK    1  A    between atoms: O_2  and  C_8
REMARK    2  A    between atoms: O_4  and  C_20
REMARK    3  A    between atoms: N_5  and  C_7
REMARK    4  A    between atoms: N_5  and  C_13
REMARK    5  A    between atoms: N_6  and  C_11
REMARK    6  A    between atoms: C_9  and  C_11
REMARK    7  A    between atoms: C_12  and  C_14
REMARK    8  A    between atoms: C_12  and  C_16
REMARK    9  A    between atoms: C_12  and  C_17
REMARK   10  A    between atoms: C_12  and  C_18
REMARK   11  A    between atoms: C_13  and  C_19
REMARK   12  A    between atoms: C_14  and  C_15
REMARK                            x       y       z     vdW  Elec       q    Type
REMARK                         _______ _______ _______ _____ _____    ______ ____
ROOT
ATOM      1  O   UNL     1       0.034   3.510  23.635  0.00  0.00    -0.371 OA
ATOM      7  C   UNL     1      -1.101   4.075  25.644  0.00  0.00    +0.111 C 
ATOM      8  C   UNL     1      -0.667   2.622  25.712  0.00  0.00    +0.164 C 
ATOM      9  C   UNL     1       0.442   2.598  24.668  0.00  0.00    +0.165 C 
ATOM     10  C   UNL     1      -1.020   4.342  24.150  0.00  0.00    +0.181 C 
ENDROOT
BRANCH   8   2
ATOM      2  O   UNL     1      -0.194   2.254  26.993  0.00  0.00    -0.388 OA
ATOM     27  H   UNL     1       0.764   2.418  27.024  0.00  0.00    +0.210 HD
ENDBRANCH   8   2
BRANCH   7   5
ATOM      5  N   UNL     1      -2.427   4.314  26.190  0.00  0.00    -0.305 NA
ATOM     25  H   UNL     1      -2.406   5.167  26.750  0.00  0.00    +0.123 HD
BRANCH   5  13
ATOM     13  C   UNL     1      -3.412   4.470  25.128  0.00  0.00    +0.120 C 
BRANCH  13  19
ATOM     19  C   UNL     1      -4.380   3.318  25.088  0.00  0.00    +0.008 A 
ATOM     20  C   UNL     1      -5.696   3.477  25.523  0.00  0.00    +0.121 A 
ATOM     21  C   UNL     1      -3.949   2.081  24.610  0.00  0.00    +0.008 A 
ATOM     22  C   UNL     1      -6.581   2.400  25.479  0.00  0.00    +0.046 A 
ATOM     23  C   UNL     1      -4.833   1.002  24.567  0.00  0.00    +0.001 A 
ATOM     24  C   UNL     1      -6.149   1.162  25.002  0.00  0.00    +0.004 A 
BRANCH  20   4
ATOM      4  O   UNL     1      -6.134   4.679  25.994  0.00  0.00    -0.506 OA
ATOM     28  H   UNL     1      -6.551   5.172  25.267  0.00  0.00    +0.292 HD
ENDBRANCH  20   4
ENDBRANCH  13  19
ENDBRANCH   5  13
ENDBRANCH   7   5
BRANCH   9  11
ATOM     11  C   UNL     1       0.677   1.220  24.075  0.00  0.00    +0.138 C 
BRANCH  11   6
ATOM      3  O   UNL     1      -0.157  -1.368  23.077  0.00  0.00    -0.276 OA
ATOM      6  N   UNL     1      -0.066   0.204  24.785  0.00  0.00    -0.313 N 
ATOM     15  C   UNL     1      -0.421  -1.009  24.223  0.00  0.00    +0.214 C 
ATOM     26  H   UNL     1      -0.325   0.402  25.748  0.00  0.00    +0.149 HD
BRANCH  15  14
ATOM     14  C   UNL     1      -1.205  -1.899  25.175  0.00  0.00    +0.102 C 
BRANCH  14  12
ATOM     12  C   UNL     1      -2.732  -1.917  24.932  0.00  0.00    -0.029 C 
ATOM     16  C   UNL     1      -3.117  -1.090  23.695  0.00  0.00    +0.011 C 
ATOM     17  C   UNL     1      -3.249  -3.356  24.760  0.00  0.00    +0.011 C 
ATOM     18  C   UNL     1      -3.419  -1.298  26.166  0.00  0.00    +0.011 C 
ENDBRANCH  14  12
ENDBRANCH  15  14
ENDBRANCH  11   6
ENDBRANCH   9  11
TORSDOF 9
ENDMDL
MODEL 6
REMARK VINA RESULT:      -4.8      3.034      6.583
REMARK  Name = 75536523
REMARK  12 active torsions:
REMARK  status: ('A' for Active; 'I' for Inactive)
REMARK    1  A    between atoms: O_2  and  C_8
REMARK    2  A    between atoms: O_4  and  C_20
REMARK    3  A    between atoms: N_5  and  C_7
REMARK    4  A    between atoms: N_5  and  C_13
REMARK    5  A    between atoms: N_6  and  C_11
REMARK    6  A    between atoms: C_9  and  C_11
REMARK    7  A    between atoms: C_12  and  C_14
REMARK    8  A    between atoms: C_12  and  C_16
REMARK    9  A    between atoms: C_12  and  C_17
REMARK   10  A    between atoms: C_12  and  C_18
REMARK   11  A    between atoms: C_13  and  C_19
REMARK   12  A    between atoms: C_14  and  C_15
REMARK                            x       y       z     vdW  Elec       q    Type
REMARK                         _______ _______ _______ _____ _____    ______ ____
ROOT
ATOM      1  O   UNL     1      -4.748   3.491  26.488  0.00  0.00    -0.371 OA
ATOM      7  C   UNL     1      -2.922   4.259  25.177  0.00  0.00    +0.111 C 
ATOM      8  C   UNL     1      -3.669   3.186  24.406  0.00  0.00    +0.164 C 
ATOM      9  C   UNL     1      -5.021   3.210  25.106  0.00  0.00    +0.165 C 
ATOM     10  C   UNL     1      -3.408   4.003  26.594  0.00  0.00    +0.181 C 
ENDROOT
BRANCH   8   2
ATOM      2  O   UNL     1      -3.782   3.485  23.028  0.00  0.00    -0.388 OA
ATOM     27  H   UNL     1      -3.886   4.446  22.931  0.00  0.00    +0.210 HD
ENDBRANCH   8   2
BRANCH   7   5
ATOM      5  N   UNL     1      -1.476   4.170  25.050  0.00  0.00    -0.305 NA
ATOM     25  H   UNL     1      -1.068   5.084  25.250  0.00  0.00    +0.123 HD
BRANCH   5  13
ATOM     13  C   UNL     1      -0.926   3.193  25.982  0.00  0.00    +0.120 C 
BRANCH  13  19
ATOM     19  C   UNL     1      -0.536   1.915  25.288  0.00  0.00    +0.008 A 
ATOM     20  C   UNL     1       0.176   1.944  24.090  0.00  0.00    +0.121 A 
ATOM     21  C   UNL     1      -0.895   0.694  25.857  0.00  0.00    +0.008 A 
ATOM     22  C   UNL     1       0.530   0.751  23.459  0.00  0.00    +0.046 A 
ATOM     23  C   UNL     1      -0.542  -0.500  25.227  0.00  0.00    +0.001 A 
ATOM     24  C   UNL     1       0.170  -0.472  24.028  0.00  0.00    +0.004 A 
BRANCH  20   4
ATOM      4  O   UNL     1       0.534   3.129  23.519  0.00  0.00    -0.506 OA
ATOM     28  H   UNL     1      -0.220   3.477  23.011  0.00  0.00    +0.292 HD
ENDBRANCH  20   4
ENDBRANCH  13  19
ENDBRANCH   5  13
ENDBRANCH   7   5
BRANCH   9  11
ATOM     11  C   UNL     1      -5.780   1.900  24.988  0.00  0.00    +0.138 C 
BRANCH  11   6
ATOM      3  O   UNL     1      -4.151  -0.255  26.033  0.00  0.00    -0.276 OA
ATOM      6  N   UNL     1      -5.031   0.921  24.233  0.00  0.00    -0.313 N 
ATOM     15  C   UNL     1      -4.277  -0.078  24.823  0.00  0.00    +0.214 C 
ATOM     26  H   UNL     1      -5.078   0.976  23.219  0.00  0.00    +0.149 HD
BRANCH  15  14
ATOM     14  C   UNL     1      -3.581  -0.974  23.811  0.00  0.00    +0.102 C 
BRANCH  14  12
ATOM     12  C   UNL     1      -3.396  -2.441  24.266  0.00  0.00    -0.029 C 
ATOM     16  C   UNL     1      -2.104  -3.048  23.696  0.00  0.00    +0.011 C 
ATOM     17  C   UNL     1      -3.373  -2.547  25.800  0.00  0.00    +0.011 C 
ATOM     18  C   UNL     1      -4.592  -3.258  23.740  0.00  0.00    +0.011 C 
ENDBRANCH  14  12
ENDBRANCH  15  14
ENDBRANCH  11   6
ENDBRANCH   9  11
TORSDOF 9
ENDMDL
MODEL 7
REMARK VINA RESULT:      -4.7      2.717      3.439
REMARK  Name = 75536523
REMARK  12 active torsions:
REMARK  status: ('A' for Active; 'I' for Inactive)
REMARK    1  A    between atoms: O_2  and  C_8
REMARK    2  A    between atoms: O_4  and  C_20
REMARK    3  A    between atoms: N_5  and  C_7
REMARK    4  A    between atoms: N_5  and  C_13
REMARK    5  A    between atoms: N_6  and  C_11
REMARK    6  A    between atoms: C_9  and  C_11
REMARK    7  A    between atoms: C_12  and  C_14
REMARK    8  A    between atoms: C_12  and  C_16
REMARK    9  A    between atoms: C_12  and  C_17
REMARK   10  A    between atoms: C_12  and  C_18
REMARK   11  A    between atoms: C_13  and  C_19
REMARK   12  A    between atoms: C_14  and  C_15
REMARK                            x       y       z     vdW  Elec       q    Type
REMARK                         _______ _______ _______ _____ _____    ______ ____
ROOT
ATOM      1  O   UNL     1      -1.250  -1.034  26.259  0.00  0.00    -0.371 OA
ATOM      7  C   UNL     1      -3.353  -1.691  25.370  0.00  0.00    +0.111 C 
ATOM      8  C   UNL     1      -2.287  -1.867  24.303  0.00  0.00    +0.164 C 
ATOM      9  C   UNL     1      -1.026  -1.927  25.156  0.00  0.00    +0.165 C 
ATOM     10  C   UNL     1      -2.657  -0.745  26.335  0.00  0.00    +0.181 C 
ENDROOT
BRANCH   8   2
ATOM      2  O   UNL     1      -2.466  -3.046  23.542  0.00  0.00    -0.388 OA
ATOM     27  H   UNL     1      -2.211  -3.806  24.092  0.00  0.00    +0.210 HD
ENDBRANCH   8   2
BRANCH   7   5
ATOM      5  N   UNL     1      -4.606  -1.157  24.860  0.00  0.00    -0.305 NA
ATOM     25  H   UNL     1      -5.128  -0.742  25.632  0.00  0.00    +0.123 HD
BRANCH   5  13
ATOM     13  C   UNL     1      -4.369  -0.138  23.846  0.00  0.00    +0.120 C 
BRANCH  13  19
ATOM     19  C   UNL     1      -4.626   1.248  24.374  0.00  0.00    +0.008 A 
ATOM     20  C   UNL     1      -4.032   2.360  23.777  0.00  0.00    +0.121 A 
ATOM     21  C   UNL     1      -5.467   1.414  25.473  0.00  0.00    +0.008 A 
ATOM     22  C   UNL     1      -4.280   3.638  24.278  0.00  0.00    +0.046 A 
ATOM     23  C   UNL     1      -5.716   2.692  25.976  0.00  0.00    +0.001 A 
ATOM     24  C   UNL     1      -5.122   3.804  25.379  0.00  0.00    +0.004 A 
BRANCH  20   4
ATOM      4  O   UNL     1      -3.205   2.216  22.702  0.00  0.00    -0.506 OA
ATOM     28  H   UNL     1      -2.661   1.419  22.824  0.00  0.00    +0.292 HD
ENDBRANCH  20   4
ENDBRANCH  13  19
ENDBRANCH   5  13
ENDBRANCH   7   5
BRANCH   9  11
ATOM     11  C   UNL     1       0.226  -1.512  24.404  0.00  0.00    +0.138 C 
BRANCH  11   6
ATOM      3  O   UNL     1      -0.954   0.723  22.989  0.00  0.00    -0.276 OA
ATOM      6  N   UNL     1       0.513  -0.107  24.589  0.00  0.00    -0.313 N 
ATOM     15  C   UNL     1      -0.105   0.895  23.862  0.00  0.00    +0.214 C 
ATOM     26  H   UNL     1       1.197   0.141  25.298  0.00  0.00    +0.149 HD
BRANCH  15  14
ATOM     14  C   UNL     1       0.377   2.287  24.240  0.00  0.00    +0.102 C 
BRANCH  14  12
ATOM     12  C   UNL     1      -0.374   2.929  25.430  0.00  0.00    -0.029 C 
ATOM     16  C   UNL     1      -0.722   4.400  25.148  0.00  0.00    +0.011 C 
ATOM     17  C   UNL     1      -1.664   2.157  25.754  0.00  0.00    +0.011 C 
ATOM     18  C   UNL     1       0.550   2.874  26.663  0.00  0.00    +0.011 C 
ENDBRANCH  14  12
ENDBRANCH  15  14
ENDBRANCH  11   6
ENDBRANCH   9  11
TORSDOF 9
ENDMDL
MODEL 8
REMARK VINA RESULT:      -4.6      1.280      7.328
REMARK  Name = 75536523
REMARK  12 active torsions:
REMARK  status: ('A' for Active; 'I' for Inactive)
REMARK    1  A    between atoms: O_2  and  C_8
REMARK    2  A    between atoms: O_4  and  C_20
REMARK    3  A    between atoms: N_5  and  C_7
REMARK    4  A    between atoms: N_5  and  C_13
REMARK    5  A    between atoms: N_6  and  C_11
REMARK    6  A    between atoms: C_9  and  C_11
REMARK    7  A    between atoms: C_12  and  C_14
REMARK    8  A    between atoms: C_12  and  C_16
REMARK    9  A    between atoms: C_12  and  C_17
REMARK   10  A    between atoms: C_12  and  C_18
REMARK   11  A    between atoms: C_13  and  C_19
REMARK   12  A    between atoms: C_14  and  C_15
REMARK                            x       y       z     vdW  Elec       q    Type
REMARK                         _______ _______ _______ _____ _____    ______ ____
ROOT
ATOM      1  O   UNL     1      -1.704  -2.420  24.311  0.00  0.00    -0.371 OA
ATOM      7  C   UNL     1       0.018  -0.784  24.378  0.00  0.00    +0.111 C 
ATOM      8  C   UNL     1      -1.114  -0.349  25.291  0.00  0.00    +0.164 C 
ATOM      9  C   UNL     1      -1.820  -1.676  25.536  0.00  0.00    +0.165 C 
ATOM     10  C   UNL     1      -0.681  -1.813  23.503  0.00  0.00    +0.181 C 
ENDROOT
BRANCH   8   2
ATOM      2  O   UNL     1      -0.651   0.233  26.494  0.00  0.00    -0.388 OA
ATOM     27  H   UNL     1       0.042   0.878  26.274  0.00  0.00    +0.210 HD
ENDBRANCH   8   2
BRANCH   7   5
ATOM      5  N   UNL     1       0.603   0.305  23.613  0.00  0.00    -0.305 NA
ATOM     25  H   UNL     1       1.134   0.906  24.244  0.00  0.00    +0.123 HD
BRANCH   5  13
ATOM     13  C   UNL     1       1.495  -0.200  22.577  0.00  0.00    +0.120 C 
BRANCH  13  19
ATOM     19  C   UNL     1       2.921  -0.278  23.055  0.00  0.00    +0.008 A 
ATOM     20  C   UNL     1       3.727   0.860  23.079  0.00  0.00    +0.121 A 
ATOM     21  C   UNL     1       3.433  -1.504  23.476  0.00  0.00    +0.008 A 
ATOM     22  C   UNL     1       5.046   0.771  23.524  0.00  0.00    +0.046 A 
ATOM     23  C   UNL     1       4.752  -1.594  23.922  0.00  0.00    +0.001 A 
ATOM     24  C   UNL     1       5.559  -0.457  23.945  0.00  0.00    +0.004 A 
BRANCH  20   4
ATOM      4  O   UNL     1       3.244   2.067  22.669  0.00  0.00    -0.506 OA
ATOM     28  H   UNL     1       2.271   2.038  22.675  0.00  0.00    +0.292 HD
ENDBRANCH  20   4
ENDBRANCH  13  19
ENDBRANCH   5  13
ENDBRANCH   7   5
BRANCH   9  11
ATOM     11  C   UNL     1      -3.284  -1.518  25.904  0.00  0.00    +0.138 C 
BRANCH  11   6
ATOM      3  O   UNL     1      -4.233  -0.368  23.421  0.00  0.00    -0.276 OA
ATOM      6  N   UNL     1      -3.742  -0.165  25.683  0.00  0.00    -0.313 N 
ATOM     15  C   UNL     1      -4.179   0.297  24.454  0.00  0.00    +0.214 C 
ATOM     26  H   UNL     1      -3.746   0.464  26.481  0.00  0.00    +0.149 HD
BRANCH  15  14
ATOM     14  C   UNL     1      -4.600   1.757  24.484  0.00  0.00    +0.102 C 
BRANCH  14  12
ATOM     12  C   UNL     1      -3.475   2.761  24.139  0.00  0.00    -0.029 C 
ATOM     16  C   UNL     1      -2.609   3.081  25.367  0.00  0.00    +0.011 C 
ATOM     17  C   UNL     1      -2.577   2.222  23.011  0.00  0.00    +0.011 C 
ATOM     18  C   UNL     1      -4.133   4.067  23.653  0.00  0.00    +0.011 C 
ENDBRANCH  14  12
ENDBRANCH  15  14
ENDBRANCH  11   6
ENDBRANCH   9  11
TORSDOF 9
ENDMDL
MODEL 9
REMARK VINA RESULT:      -4.6      2.933      6.495
REMARK  Name = 75536523
REMARK  12 active torsions:
REMARK  status: ('A' for Active; 'I' for Inactive)
REMARK    1  A    between atoms: O_2  and  C_8
REMARK    2  A    between atoms: O_4  and  C_20
REMARK    3  A    between atoms: N_5  and  C_7
REMARK    4  A    between atoms: N_5  and  C_13
REMARK    5  A    between atoms: N_6  and  C_11
REMARK    6  A    between atoms: C_9  and  C_11
REMARK    7  A    between atoms: C_12  and  C_14
REMARK    8  A    between atoms: C_12  and  C_16
REMARK    9  A    between atoms: C_12  and  C_17
REMARK   10  A    between atoms: C_12  and  C_18
REMARK   11  A    between atoms: C_13  and  C_19
REMARK   12  A    between atoms: C_14  and  C_15
REMARK                            x       y       z     vdW  Elec       q    Type
REMARK                         _______ _______ _______ _____ _____    ______ ____
ROOT
ATOM      1  O   UNL     1      -2.077  -2.735  23.990  0.00  0.00    -0.371 OA
ATOM      7  C   UNL     1      -0.178  -1.427  24.559  0.00  0.00    +0.111 C 
ATOM      8  C   UNL     1      -1.338  -1.034  25.456  0.00  0.00    +0.164 C 
ATOM      9  C   UNL     1      -2.229  -2.262  25.339  0.00  0.00    +0.165 C 
ATOM     10  C   UNL     1      -0.904  -2.129  23.422  0.00  0.00    +0.181 C 
ENDROOT
BRANCH   8   2
ATOM      2  O   UNL     1      -0.937  -0.798  26.793  0.00  0.00    -0.388 OA
ATOM     27  H   UNL     1      -1.729  -0.594  27.317  0.00  0.00    +0.210 HD
ENDBRANCH   8   2
BRANCH   7   5
ATOM      5  N   UNL     1       0.621  -0.298  24.109  0.00  0.00    -0.305 NA
ATOM     25  H   UNL     1       1.416  -0.647  23.573  0.00  0.00    +0.123 HD
BRANCH   5  13
ATOM     13  C   UNL     1      -0.162   0.596  23.264  0.00  0.00    +0.120 C 
BRANCH  13  19
ATOM     19  C   UNL     1      -0.602   1.827  24.009  0.00  0.00    +0.008 A 
ATOM     20  C   UNL     1      -1.676   2.591  23.552  0.00  0.00    +0.121 A 
ATOM     21  C   UNL     1       0.077   2.203  25.167  0.00  0.00    +0.008 A 
ATOM     22  C   UNL     1      -2.072   3.729  24.254  0.00  0.00    +0.046 A 
ATOM     23  C   UNL     1      -0.317   3.343  25.869  0.00  0.00    +0.001 A 
ATOM     24  C   UNL     1      -1.391   4.106  25.412  0.00  0.00    +0.004 A 
BRANCH  20   4
ATOM      4  O   UNL     1      -2.352   2.238  22.421  0.00  0.00    -0.506 OA
ATOM     28  H   UNL     1      -3.305   2.219  22.614  0.00  0.00    +0.292 HD
ENDBRANCH  20   4
ENDBRANCH  13  19
ENDBRANCH   5  13
ENDBRANCH   7   5
BRANCH   9  11
ATOM     11  C   UNL     1      -3.693  -1.970  25.619  0.00  0.00    +0.138 C 
BRANCH  11   6
ATOM      3  O   UNL     1      -4.077   0.137  23.669  0.00  0.00    -0.276 OA
ATOM      6  N   UNL     1      -3.912  -0.565  25.878  0.00  0.00    -0.313 N 
ATOM     15  C   UNL     1      -4.086   0.373  24.876  0.00  0.00    +0.214 C 
ATOM     26  H   UNL     1      -3.946  -0.268  26.849  0.00  0.00    +0.149 HD
BRANCH  15  14
ATOM     14  C   UNL     1      -4.291   1.781  25.409  0.00  0.00    +0.102 C 
BRANCH  14  12
ATOM     12  C   UNL     1      -5.770   2.201  25.576  0.00  0.00    -0.029 C 
ATOM     16  C   UNL     1      -6.642   1.660  24.431  0.00  0.00    +0.011 C 
ATOM     17  C   UNL     1      -6.338   1.711  26.919  0.00  0.00    +0.011 C 
ATOM     18  C   UNL     1      -5.835   3.740  25.552  0.00  0.00    +0.011 C 
ENDBRANCH  14  12
ENDBRANCH  15  14
ENDBRANCH  11   6
ENDBRANCH   9  11
TORSDOF 9
ENDMDL
MODEL 10
REMARK VINA RESULT:      -4.6      2.167      3.303
REMARK  Name = 75536523
REMARK  12 active torsions:
REMARK  status: ('A' for Active; 'I' for Inactive)
REMARK    1  A    between atoms: O_2  and  C_8
REMARK    2  A    between atoms: O_4  and  C_20
REMARK    3  A    between atoms: N_5  and  C_7
REMARK    4  A    between atoms: N_5  and  C_13
REMARK    5  A    between atoms: N_6  and  C_11
REMARK    6  A    between atoms: C_9  and  C_11
REMARK    7  A    between atoms: C_12  and  C_14
REMARK    8  A    between atoms: C_12  and  C_16
REMARK    9  A    between atoms: C_12  and  C_17
REMARK   10  A    between atoms: C_12  and  C_18
REMARK   11  A    between atoms: C_13  and  C_19
REMARK   12  A    between atoms: C_14  and  C_15
REMARK                            x       y       z     vdW  Elec       q    Type
REMARK                         _______ _______ _______ _____ _____    ______ ____
ROOT
ATOM      1  O   UNL     1       0.159   3.698  23.748  0.00  0.00    -0.371 OA
ATOM      7  C   UNL     1      -1.234   3.905  25.660  0.00  0.00    +0.111 C 
ATOM      8  C   UNL     1      -0.755   2.469  25.550  0.00  0.00    +0.164 C 
ATOM      9  C   UNL     1       0.473   2.637  24.666  0.00  0.00    +0.165 C 
ATOM     10  C   UNL     1      -0.981   4.415  24.251  0.00  0.00    +0.181 C 
ENDROOT
BRANCH   8   2
ATOM      2  O   UNL     1      -0.428   1.906  26.806  0.00  0.00    -0.388 OA
ATOM     27  H   UNL     1      -1.081   1.214  27.009  0.00  0.00    +0.210 HD
ENDBRANCH   8   2
BRANCH   7   5
ATOM      5  N   UNL     1      -2.626   4.027  26.065  0.00  0.00    -0.305 NA
ATOM     25  H   UNL     1      -2.773   4.950  26.475  0.00  0.00    +0.123 HD
BRANCH   5  13
ATOM     13  C   UNL     1      -3.520   3.868  24.924  0.00  0.00    +0.120 C 
BRANCH  13  19
ATOM     19  C   UNL     1      -3.971   2.442  24.760  0.00  0.00    +0.008 A 
ATOM     20  C   UNL     1      -5.092   1.966  25.439  0.00  0.00    +0.121 A 
ATOM     21  C   UNL     1      -3.254   1.593  23.918  0.00  0.00    +0.008 A 
ATOM     22  C   UNL     1      -5.497   0.641  25.276  0.00  0.00    +0.046 A 
ATOM     23  C   UNL     1      -3.658   0.267  23.755  0.00  0.00    +0.001 A 
ATOM     24  C   UNL     1      -4.779  -0.209  24.434  0.00  0.00    +0.004 A 
BRANCH  20   4
ATOM      4  O   UNL     1      -5.804   2.782  26.267  0.00  0.00    -0.506 OA
ATOM     28  H   UNL     1      -6.320   2.235  26.885  0.00  0.00    +0.292 HD
ENDBRANCH  20   4
ENDBRANCH  13  19
ENDBRANCH   5  13
ENDBRANCH   7   5
BRANCH   9  11
ATOM     11  C   UNL     1       0.833   1.380  23.894  0.00  0.00    +0.138 C 
BRANCH  11   6
ATOM      3  O   UNL     1       2.125  -0.241  21.871  0.00  0.00    -0.276 OA
ATOM      6  N   UNL     1       2.240   1.346  23.564  0.00  0.00    -0.313 N 
ATOM     15  C   UNL     1       2.769   0.535  22.576  0.00  0.00    +0.214 C 
ATOM     26  H   UNL     1       2.857   1.961  24.087  0.00  0.00    +0.149 HD
BRANCH  15  14
ATOM     14  C   UNL     1       4.275   0.680  22.431  0.00  0.00    +0.102 C 
BRANCH  14  12
ATOM     12  C   UNL     1       5.104  -0.153  23.436  0.00  0.00    -0.029 C 
ATOM     16  C   UNL     1       5.417   0.649  24.709  0.00  0.00    +0.011 C 
ATOM     17  C   UNL     1       4.370  -1.450  23.821  0.00  0.00    +0.011 C 
ATOM     18  C   UNL     1       6.436  -0.531  22.758  0.00  0.00    +0.011 C 
ENDBRANCH  14  12
ENDBRANCH  15  14
ENDBRANCH  11   6
ENDBRANCH   9  11
TORSDOF 9
ENDMDL
