MODEL 1
REMARK VINA RESULT:      -5.2      0.000      0.000
REMARK  Name = 7127906
REMARK  13 active torsions:
REMARK  status: ('A' for Active; 'I' for Inactive)
REMARK    1  A    between atoms: S_1  and  C_22
REMARK    2  A    between atoms: S_1  and  C_26
REMARK    3  A    between atoms: O_2  and  C_13
REMARK    4  A    between atoms: O_3  and  C_15
REMARK    5  A    between atoms: N_9  and  C_14
REMARK    6  A    between atoms: N_10  and  C_20
REMARK    7  A    between atoms: N_12  and  C_27
REMARK    8  A    between atoms: C_17  and  C_19
REMARK    9  A    between atoms: C_20  and  C_21
REMARK   10  A    between atoms: C_20  and  C_24
REMARK   11  A    between atoms: C_21  and  C_22
REMARK   12  A    between atoms: C_23  and  C_25
REMARK   13  A    between atoms: C_25  and  C_27
REMARK                            x       y       z     vdW  Elec       q    Type
REMARK                         _______ _______ _______ _____ _____    ______ ____
ROOT
ATOM     13  C   UNL     1      -0.379  -1.830  24.773  0.00  0.00    +0.167 C 
ATOM     14  C   UNL     1      -0.288  -0.762  23.666  0.00  0.00    +0.127 C 
ATOM     15  C   UNL     1      -1.806  -2.374  24.914  0.00  0.00    +0.149 C 
ATOM     16  C   UNL     1      -2.830  -1.255  25.168  0.00  0.00    +0.074 C 
ATOM     17  C   UNL     1      -2.553  -0.005  24.383  0.00  0.00    +0.015 C 
ATOM     18  C   UNL     1      -1.423   0.226  23.698  0.00  0.00    +0.006 C 
ENDROOT
BRANCH  17  19
ATOM      4  O   UNL     1      -4.259   1.214  23.323  0.00  0.00    -0.271 OA
ATOM     10  N   UNL     1      -3.711   1.724  25.531  0.00  0.00    -0.300 N 
ATOM     19  C   UNL     1      -3.593   1.027  24.341  0.00  0.00    +0.241 C 
ATOM     29  H   UNL     1      -3.105   1.513  26.315  0.00  0.00    +0.150 HD
BRANCH  10  20
ATOM     20  C   UNL     1      -4.666   2.791  25.730  0.00  0.00    +0.160 C 
BRANCH  20  24
ATOM      8  O   UNL     1      -6.662   1.936  24.639  0.00  0.00    -0.274 OA
ATOM     11  N   UNL     1      -6.546   1.858  26.931  0.00  0.00    -0.328 N 
ATOM     24  C   UNL     1      -6.057   2.173  25.681  0.00  0.00    +0.231 C 
ATOM     32  H   UNL     1      -6.019   2.017  27.783  0.00  0.00    +0.145 HD
ATOM     33  H   UNL     1      -7.460   1.430  27.038  0.00  0.00    +0.145 HD
ENDBRANCH  20  24
BRANCH  20  21
ATOM     21  C   UNL     1      -4.530   3.888  24.673  0.00  0.00    +0.054 C 
BRANCH  21  22
ATOM     22  C   UNL     1      -3.106   4.012  24.147  0.00  0.00    +0.168 C 
BRANCH  22   1
ATOM      1  S   UNL     1      -1.995   4.528  25.419  0.00  0.00    -0.034 S 
ATOM      6  O   UNL     1      -1.440   5.816  25.043  0.00  0.00    -0.175 OA
ATOM      7  O   UNL     1      -2.658   4.354  26.700  0.00  0.00    -0.175 OA
ATOM     26  C   UNL     1      -0.682   3.331  25.328  0.00  0.00    +0.194 C 
ENDBRANCH  22   1
ENDBRANCH  21  22
ENDBRANCH  20  21
ENDBRANCH  10  20
ENDBRANCH  17  19
BRANCH  14   9
ATOM      5  O   UNL     1       1.571  -0.406  21.514  0.00  0.00    -0.276 OA
ATOM      9  N   UNL     1       0.960  -0.041  23.723  0.00  0.00    -0.306 N 
ATOM     23  C   UNL     1       1.795   0.075  22.621  0.00  0.00    +0.215 C 
ATOM     28  H   UNL     1       1.253   0.357  24.611  0.00  0.00    +0.149 HD
BRANCH  23  25
ATOM     25  C   UNL     1       3.040   0.883  22.943  0.00  0.00    +0.110 C 
BRANCH  25  27
ATOM     27  C   UNL     1       4.285   0.008  23.049  0.00  0.00    +0.087 C 
BRANCH  27  12
ATOM     12  N   UNL     1       5.099   0.420  24.186  0.00  0.00    -0.330 NA
ATOM     34  H   UNL     1       5.738  -0.334  24.436  0.00  0.00    +0.118 HD
ATOM     35  H   UNL     1       5.682   1.213  23.923  0.00  0.00    +0.118 HD
ENDBRANCH  27  12
ENDBRANCH  25  27
ENDBRANCH  23  25
ENDBRANCH  14   9
BRANCH  13   2
ATOM      2  O   UNL     1       0.021  -1.261  26.022  0.00  0.00    -0.387 OA
ATOM     30  H   UNL     1      -0.549  -0.499  26.217  0.00  0.00    +0.210 HD
ENDBRANCH  13   2
BRANCH  15   3
ATOM      3  O   UNL     1      -2.167  -3.113  23.748  0.00  0.00    -0.389 OA
ATOM     31  H   UNL     1      -1.462  -3.762  23.583  0.00  0.00    +0.210 HD
ENDBRANCH  15   3
TORSDOF 12
ENDMDL
MODEL 2
REMARK VINA RESULT:      -4.3      2.218      7.283
REMARK  Name = 7127906
REMARK  13 active torsions:
REMARK  status: ('A' for Active; 'I' for Inactive)
REMARK    1  A    between atoms: S_1  and  C_22
REMARK    2  A    between atoms: S_1  and  C_26
REMARK    3  A    between atoms: O_2  and  C_13
REMARK    4  A    between atoms: O_3  and  C_15
REMARK    5  A    between atoms: N_9  and  C_14
REMARK    6  A    between atoms: N_10  and  C_20
REMARK    7  A    between atoms: N_12  and  C_27
REMARK    8  A    between atoms: C_17  and  C_19
REMARK    9  A    between atoms: C_20  and  C_21
REMARK   10  A    between atoms: C_20  and  C_24
REMARK   11  A    between atoms: C_21  and  C_22
REMARK   12  A    between atoms: C_23  and  C_25
REMARK   13  A    between atoms: C_25  and  C_27
REMARK                            x       y       z     vdW  Elec       q    Type
REMARK                         _______ _______ _______ _____ _____    ______ ____
ROOT
ATOM     13  C   UNL     1      -2.865   4.718  25.192  0.00  0.00    +0.167 C 
ATOM     14  C   UNL     1      -3.085   3.780  23.990  0.00  0.00    +0.127 C 
ATOM     15  C   UNL     1      -1.404   5.173  25.290  0.00  0.00    +0.149 C 
ATOM     16  C   UNL     1      -0.431   3.985  25.357  0.00  0.00    +0.074 C 
ATOM     17  C   UNL     1      -0.826   2.840  24.468  0.00  0.00    +0.015 C 
ATOM     18  C   UNL     1      -2.008   2.740  23.841  0.00  0.00    +0.006 C 
ENDROOT
BRANCH  17  19
ATOM      4  O   UNL     1       1.357   2.005  24.228  0.00  0.00    -0.271 OA
ATOM     10  N   UNL     1      -0.441   0.529  24.071  0.00  0.00    -0.300 N 
ATOM     19  C   UNL     1       0.150   1.768  24.247  0.00  0.00    +0.241 C 
ATOM     29  H   UNL     1      -1.449   0.431  24.085  0.00  0.00    +0.150 HD
BRANCH  10  20
ATOM     20  C   UNL     1       0.317  -0.680  23.836  0.00  0.00    +0.160 C 
BRANCH  20  24
ATOM      8  O   UNL     1       0.856  -0.334  21.492  0.00  0.00    -0.274 OA
ATOM     11  N   UNL     1       2.553  -0.227  23.035  0.00  0.00    -0.328 N 
ATOM     24  C   UNL     1       1.241  -0.416  22.655  0.00  0.00    +0.231 C 
ATOM     32  H   UNL     1       2.853  -0.254  24.004  0.00  0.00    +0.145 HD
ATOM     33  H   UNL     1       3.271  -0.032  22.344  0.00  0.00    +0.145 HD
ENDBRANCH  20  24
BRANCH  20  21
ATOM     21  C   UNL     1      -0.589  -1.878  23.550  0.00  0.00    +0.054 C 
BRANCH  21  22
ATOM     22  C   UNL     1      -1.366  -2.325  24.781  0.00  0.00    +0.168 C 
BRANCH  22   1
ATOM      1  S   UNL     1      -3.101  -2.066  24.574  0.00  0.00    -0.034 S 
ATOM      6  O   UNL     1      -3.288  -1.012  23.591  0.00  0.00    -0.175 OA
ATOM      7  O   UNL     1      -3.736  -3.360  24.400  0.00  0.00    -0.175 OA
ATOM     26  C   UNL     1      -3.611  -1.424  26.152  0.00  0.00    +0.194 C 
ENDBRANCH  22   1
ENDBRANCH  21  22
ENDBRANCH  20  21
ENDBRANCH  10  20
ENDBRANCH  17  19
BRANCH  14   9
ATOM      5  O   UNL     1      -3.675   1.354  25.397  0.00  0.00    -0.276 OA
ATOM      9  N   UNL     1      -4.365   3.119  24.057  0.00  0.00    -0.306 N 
ATOM     23  C   UNL     1      -4.551   1.942  24.768  0.00  0.00    +0.215 C 
ATOM     28  H   UNL     1      -5.144   3.508  23.531  0.00  0.00    +0.149 HD
BRANCH  23  25
ATOM     25  C   UNL     1      -5.987   1.454  24.682  0.00  0.00    +0.110 C 
BRANCH  25  27
ATOM     27  C   UNL     1      -6.739   1.636  25.997  0.00  0.00    +0.087 C 
BRANCH  27  12
ATOM     12  N   UNL     1      -6.141   2.710  26.779  0.00  0.00    -0.330 NA
ATOM     34  H   UNL     1      -6.433   2.624  27.752  0.00  0.00    +0.118 HD
ATOM     35  H   UNL     1      -5.126   2.614  26.776  0.00  0.00    +0.118 HD
ENDBRANCH  27  12
ENDBRANCH  25  27
ENDBRANCH  23  25
ENDBRANCH  14   9
BRANCH  13   2
ATOM      2  O   UNL     1      -3.217   4.039  26.400  0.00  0.00    -0.387 OA
ATOM     30  H   UNL     1      -2.656   4.370  27.121  0.00  0.00    +0.210 HD
ENDBRANCH  13   2
BRANCH  15   3
ATOM      3  O   UNL     1      -1.077   6.013  24.185  0.00  0.00    -0.389 OA
ATOM     31  H   UNL     1      -0.593   6.781  24.534  0.00  0.00    +0.210 HD
ENDBRANCH  15   3
TORSDOF 12
ENDMDL
MODEL 3
REMARK VINA RESULT:      -4.1      1.629      3.106
REMARK  Name = 7127906
REMARK  13 active torsions:
REMARK  status: ('A' for Active; 'I' for Inactive)
REMARK    1  A    between atoms: S_1  and  C_22
REMARK    2  A    between atoms: S_1  and  C_26
REMARK    3  A    between atoms: O_2  and  C_13
REMARK    4  A    between atoms: O_3  and  C_15
REMARK    5  A    between atoms: N_9  and  C_14
REMARK    6  A    between atoms: N_10  and  C_20
REMARK    7  A    between atoms: N_12  and  C_27
REMARK    8  A    between atoms: C_17  and  C_19
REMARK    9  A    between atoms: C_20  and  C_21
REMARK   10  A    between atoms: C_20  and  C_24
REMARK   11  A    between atoms: C_21  and  C_22
REMARK   12  A    between atoms: C_23  and  C_25
REMARK   13  A    between atoms: C_25  and  C_27
REMARK                            x       y       z     vdW  Elec       q    Type
REMARK                         _______ _______ _______ _____ _____    ______ ____
ROOT
ATOM     13  C   UNL     1      -0.130  -1.889  24.659  0.00  0.00    +0.167 C 
ATOM     14  C   UNL     1       0.254  -0.948  23.500  0.00  0.00    +0.127 C 
ATOM     15  C   UNL     1      -1.648  -2.087  24.743  0.00  0.00    +0.149 C 
ATOM     16  C   UNL     1      -2.400  -0.752  24.870  0.00  0.00    +0.074 C 
ATOM     17  C   UNL     1      -1.809   0.346  24.033  0.00  0.00    +0.015 C 
ATOM     18  C   UNL     1      -0.625   0.269  23.406  0.00  0.00    +0.006 C 
ENDROOT
BRANCH  17  19
ATOM      4  O   UNL     1      -3.370   1.715  22.931  0.00  0.00    -0.271 OA
ATOM     10  N   UNL     1      -2.318   2.520  24.850  0.00  0.00    -0.300 N 
ATOM     19  C   UNL     1      -2.583   1.581  23.868  0.00  0.00    +0.241 C 
ATOM     29  H   UNL     1      -1.637   2.329  25.576  0.00  0.00    +0.150 HD
BRANCH  10  20
ATOM     20  C   UNL     1      -2.957   3.815  24.897  0.00  0.00    +0.160 C 
BRANCH  20  24
ATOM      8  O   UNL     1      -2.089   6.045  25.322  0.00  0.00    -0.274 OA
ATOM     11  N   UNL     1      -0.600   4.309  25.118  0.00  0.00    -0.328 N 
ATOM     24  C   UNL     1      -1.866   4.854  25.118  0.00  0.00    +0.231 C 
ATOM     32  H   UNL     1      -0.429   3.317  24.992  0.00  0.00    +0.145 HD
ATOM     33  H   UNL     1       0.217   4.893  25.266  0.00  0.00    +0.145 HD
ENDBRANCH  20  24
BRANCH  20  21
ATOM     21  C   UNL     1      -4.008   3.897  26.005  0.00  0.00    +0.054 C 
BRANCH  21  22
ATOM     22  C   UNL     1      -5.423   3.707  25.477  0.00  0.00    +0.168 C 
BRANCH  22   1
ATOM      1  S   UNL     1      -5.918   2.014  25.565  0.00  0.00    -0.034 S 
ATOM      6  O   UNL     1      -6.881   1.766  24.505  0.00  0.00    -0.175 OA
ATOM      7  O   UNL     1      -4.724   1.196  25.683  0.00  0.00    -0.175 OA
ATOM     26  C   UNL     1      -6.789   1.920  27.112  0.00  0.00    +0.194 C 
ENDBRANCH  22   1
ENDBRANCH  21  22
ENDBRANCH  20  21
ENDBRANCH  10  20
ENDBRANCH  17  19
BRANCH  14   9
ATOM      5  O   UNL     1       1.952  -0.194  21.317  0.00  0.00    -0.276 OA
ATOM      9  N   UNL     1       1.629  -0.524  23.592  0.00  0.00    -0.306 N 
ATOM     23  C   UNL     1       2.371  -0.178  22.471  0.00  0.00    +0.215 C 
ATOM     28  H   UNL     1       2.079  -0.521  24.504  0.00  0.00    +0.149 HD
BRANCH  23  25
ATOM     25  C   UNL     1       3.786   0.233  22.839  0.00  0.00    +0.110 C 
BRANCH  25  27
ATOM     27  C   UNL     1       4.497  -0.826  23.676  0.00  0.00    +0.087 C 
BRANCH  27  12
ATOM     12  N   UNL     1       5.506  -0.207  24.526  0.00  0.00    -0.330 NA
ATOM     34  H   UNL     1       5.776  -0.860  25.261  0.00  0.00    +0.118 HD
ATOM     35  H   UNL     1       6.348  -0.024  23.983  0.00  0.00    +0.118 HD
ENDBRANCH  27  12
ENDBRANCH  25  27
ENDBRANCH  23  25
ENDBRANCH  14   9
BRANCH  13   2
ATOM      2  O   UNL     1       0.331  -1.339  25.895  0.00  0.00    -0.387 OA
ATOM     30  H   UNL     1       1.124  -1.823  26.178  0.00  0.00    +0.210 HD
ENDBRANCH  13   2
BRANCH  15   3
ATOM      3  O   UNL     1      -2.113  -2.805  23.601  0.00  0.00    -0.389 OA
ATOM     31  H   UNL     1      -2.721  -3.495  23.917  0.00  0.00    +0.210 HD
ENDBRANCH  15   3
TORSDOF 12
ENDMDL
MODEL 4
REMARK VINA RESULT:      -2.5      2.410      5.612
REMARK  Name = 7127906
REMARK  13 active torsions:
REMARK  status: ('A' for Active; 'I' for Inactive)
REMARK    1  A    between atoms: S_1  and  C_22
REMARK    2  A    between atoms: S_1  and  C_26
REMARK    3  A    between atoms: O_2  and  C_13
REMARK    4  A    between atoms: O_3  and  C_15
REMARK    5  A    between atoms: N_9  and  C_14
REMARK    6  A    between atoms: N_10  and  C_20
REMARK    7  A    between atoms: N_12  and  C_27
REMARK    8  A    between atoms: C_17  and  C_19
REMARK    9  A    between atoms: C_20  and  C_21
REMARK   10  A    between atoms: C_20  and  C_24
REMARK   11  A    between atoms: C_21  and  C_22
REMARK   12  A    between atoms: C_23  and  C_25
REMARK   13  A    between atoms: C_25  and  C_27
REMARK                            x       y       z     vdW  Elec       q    Type
REMARK                         _______ _______ _______ _____ _____    ______ ____
ROOT
ATOM     13  C   UNL     1      -3.740  -2.167  24.509  0.00  0.00    +0.167 C 
ATOM     14  C   UNL     1      -3.654  -1.075  25.593  0.00  0.00    +0.127 C 
ATOM     15  C   UNL     1      -2.384  -2.849  24.288  0.00  0.00    +0.149 C 
ATOM     16  C   UNL     1      -1.278  -1.839  23.939  0.00  0.00    +0.074 C 
ATOM     17  C   UNL     1      -1.381  -0.554  24.710  0.00  0.00    +0.015 C 
ATOM     18  C   UNL     1      -2.435  -0.202  25.462  0.00  0.00    +0.006 C 
ENDROOT
BRANCH  17  19
ATOM      4  O   UNL     1       0.653   0.229  23.832  0.00  0.00    -0.271 OA
ATOM     10  N   UNL     1      -0.323   1.374  25.614  0.00  0.00    -0.300 N 
ATOM     19  C   UNL     1      -0.247   0.374  24.659  0.00  0.00    +0.241 C 
ATOM     29  H   UNL     1      -1.097   1.404  26.267  0.00  0.00    +0.150 HD
BRANCH  10  20
ATOM     20  C   UNL     1       0.679   2.404  25.760  0.00  0.00    +0.160 C 
BRANCH  20  24
ATOM      8  O   UNL     1       1.962   3.040  27.723  0.00  0.00    -0.274 OA
ATOM     11  N   UNL     1      -0.190   2.290  28.014  0.00  0.00    -0.328 N 
ATOM     24  C   UNL     1       0.915   2.603  27.251  0.00  0.00    +0.231 C 
ATOM     32  H   UNL     1      -1.064   1.972  27.609  0.00  0.00    +0.145 HD
ATOM     33  H   UNL     1      -0.168   2.389  29.023  0.00  0.00    +0.145 HD
ENDBRANCH  20  24
BRANCH  20  21
ATOM     21  C   UNL     1       0.252   3.718  25.105  0.00  0.00    +0.054 C 
BRANCH  21  22
ATOM     22  C   UNL     1      -0.986   3.556  24.233  0.00  0.00    +0.168 C 
BRANCH  22   1
ATOM      1  S   UNL     1      -2.416   4.233  25.016  0.00  0.00    -0.034 S 
ATOM      6  O   UNL     1      -3.517   4.188  24.069  0.00  0.00    -0.175 OA
ATOM      7  O   UNL     1      -2.546   3.626  26.329  0.00  0.00    -0.175 OA
ATOM     26  C   UNL     1      -1.984   5.942  25.254  0.00  0.00    +0.194 C 
ENDBRANCH  22   1
ENDBRANCH  21  22
ENDBRANCH  20  21
ENDBRANCH  10  20
ENDBRANCH  17  19
BRANCH  14   9
ATOM      5  O   UNL     1      -4.077   1.276  24.010  0.00  0.00    -0.276 OA
ATOM      9  N   UNL     1      -4.828  -0.238  25.600  0.00  0.00    -0.306 N 
ATOM     23  C   UNL     1      -4.938   0.885  24.793  0.00  0.00    +0.215 C 
ATOM     28  H   UNL     1      -5.580  -0.457  26.249  0.00  0.00    +0.149 HD
BRANCH  23  25
ATOM     25  C   UNL     1      -6.270   1.589  24.988  0.00  0.00    +0.110 C 
BRANCH  25  27
ATOM     27  C   UNL     1      -6.260   2.521  26.195  0.00  0.00    +0.087 C 
BRANCH  27  12
ATOM     12  N   UNL     1      -5.909   3.875  25.788  0.00  0.00    -0.330 NA
ATOM     34  H   UNL     1      -6.259   4.047  24.846  0.00  0.00    +0.118 HD
ATOM     35  H   UNL     1      -6.377   4.549  26.393  0.00  0.00    +0.118 HD
ENDBRANCH  27  12
ENDBRANCH  25  27
ENDBRANCH  23  25
ENDBRANCH  14   9
BRANCH  13   2
ATOM      2  O   UNL     1      -4.168  -1.585  23.275  0.00  0.00    -0.387 OA
ATOM     30  H   UNL     1      -3.514  -0.923  22.997  0.00  0.00    +0.210 HD
ENDBRANCH  13   2
BRANCH  15   3
ATOM      3  O   UNL     1      -2.017  -3.598  25.446  0.00  0.00    -0.389 OA
ATOM     31  H   UNL     1      -1.166  -3.251  25.761  0.00  0.00    +0.210 HD
ENDBRANCH  15   3
TORSDOF 12
ENDMDL
MODEL 5
REMARK VINA RESULT:      -2.4      1.634      6.002
REMARK  Name = 7127906
REMARK  13 active torsions:
REMARK  status: ('A' for Active; 'I' for Inactive)
REMARK    1  A    between atoms: S_1  and  C_22
REMARK    2  A    between atoms: S_1  and  C_26
REMARK    3  A    between atoms: O_2  and  C_13
REMARK    4  A    between atoms: O_3  and  C_15
REMARK    5  A    between atoms: N_9  and  C_14
REMARK    6  A    between atoms: N_10  and  C_20
REMARK    7  A    between atoms: N_12  and  C_27
REMARK    8  A    between atoms: C_17  and  C_19
REMARK    9  A    between atoms: C_20  and  C_21
REMARK   10  A    between atoms: C_20  and  C_24
REMARK   11  A    between atoms: C_21  and  C_22
REMARK   12  A    between atoms: C_23  and  C_25
REMARK   13  A    between atoms: C_25  and  C_27
REMARK                            x       y       z     vdW  Elec       q    Type
REMARK                         _______ _______ _______ _____ _____    ______ ____
ROOT
ATOM     13  C   UNL     1      -4.314  -2.143  24.795  0.00  0.00    +0.167 C 
ATOM     14  C   UNL     1      -3.877  -0.906  25.602  0.00  0.00    +0.127 C 
ATOM     15  C   UNL     1      -3.182  -3.173  24.687  0.00  0.00    +0.149 C 
ATOM     16  C   UNL     1      -1.904  -2.567  24.083  0.00  0.00    +0.074 C 
ATOM     17  C   UNL     1      -1.632  -1.165  24.548  0.00  0.00    +0.015 C 
ATOM     18  C   UNL     1      -2.503  -0.412  25.237  0.00  0.00    +0.006 C 
ENDROOT
BRANCH  17  19
ATOM      4  O   UNL     1       0.716  -1.127  24.629  0.00  0.00    -0.271 OA
ATOM     10  N   UNL     1      -0.404   0.600  23.533  0.00  0.00    -0.300 N 
ATOM     19  C   UNL     1      -0.320  -0.581  24.251  0.00  0.00    +0.241 C 
ATOM     29  H   UNL     1      -1.306   0.985  23.279  0.00  0.00    +0.150 HD
BRANCH  10  20
ATOM     20  C   UNL     1       0.755   1.360  23.126  0.00  0.00    +0.160 C 
BRANCH  20  24
ATOM      8  O   UNL     1       1.636  -0.455  21.771  0.00  0.00    -0.274 OA
ATOM     11  N   UNL     1       3.014   0.519  23.329  0.00  0.00    -0.328 N 
ATOM     24  C   UNL     1       1.814   0.366  22.667  0.00  0.00    +0.231 C 
ATOM     32  H   UNL     1       3.163   1.230  24.038  0.00  0.00    +0.145 HD
ATOM     33  H   UNL     1       3.807  -0.075  23.110  0.00  0.00    +0.145 HD
ENDBRANCH  20  24
BRANCH  20  21
ATOM     21  C   UNL     1       1.296   2.234  24.258  0.00  0.00    +0.054 C 
BRANCH  21  22
ATOM     22  C   UNL     1       0.257   2.486  25.343  0.00  0.00    +0.168 C 
BRANCH  22   1
ATOM      1  S   UNL     1      -0.954   3.657  24.811  0.00  0.00    -0.034 S 
ATOM      6  O   UNL     1      -0.339   4.973  24.797  0.00  0.00    -0.175 OA
ATOM      7  O   UNL     1      -1.602   3.132  23.621  0.00  0.00    -0.175 OA
ATOM     26  C   UNL     1      -2.150   3.637  26.126  0.00  0.00    +0.194 C 
ENDBRANCH  22   1
ENDBRANCH  21  22
ENDBRANCH  20  21
ENDBRANCH  10  20
ENDBRANCH  17  19
BRANCH  14   9
ATOM      5  O   UNL     1      -3.723   1.241  23.709  0.00  0.00    -0.276 OA
ATOM      9  N   UNL     1      -4.815   0.180  25.461  0.00  0.00    -0.306 N 
ATOM     23  C   UNL     1      -4.652   1.177  24.509  0.00  0.00    +0.215 C 
ATOM     28  H   UNL     1      -5.597   0.238  26.109  0.00  0.00    +0.149 HD
BRANCH  23  25
ATOM     25  C   UNL     1      -5.775   2.198  24.567  0.00  0.00    +0.110 C 
BRANCH  25  27
ATOM     27  C   UNL     1      -5.724   3.043  25.836  0.00  0.00    +0.087 C 
BRANCH  27  12
ATOM     12  N   UNL     1      -6.313   2.316  26.953  0.00  0.00    -0.330 NA
ATOM     34  H   UNL     1      -6.354   1.323  26.728  0.00  0.00    +0.118 HD
ATOM     35  H   UNL     1      -5.712   2.398  27.772  0.00  0.00    +0.118 HD
ENDBRANCH  27  12
ENDBRANCH  25  27
ENDBRANCH  23  25
ENDBRANCH  14   9
BRANCH  13   2
ATOM      2  O   UNL     1      -4.699  -1.745  23.477  0.00  0.00    -0.387 OA
ATOM     30  H   UNL     1      -3.902  -1.663  22.928  0.00  0.00    +0.210 HD
ENDBRANCH  13   2
BRANCH  15   3
ATOM      3  O   UNL     1      -2.901  -3.730  25.970  0.00  0.00    -0.389 OA
ATOM     31  H   UNL     1      -2.058  -4.208  25.904  0.00  0.00    +0.210 HD
ENDBRANCH  15   3
TORSDOF 12
ENDMDL
MODEL 6
REMARK VINA RESULT:      -1.9     15.636     17.639
REMARK  Name = 7127906
REMARK  13 active torsions:
REMARK  status: ('A' for Active; 'I' for Inactive)
REMARK    1  A    between atoms: S_1  and  C_22
REMARK    2  A    between atoms: S_1  and  C_26
REMARK    3  A    between atoms: O_2  and  C_13
REMARK    4  A    between atoms: O_3  and  C_15
REMARK    5  A    between atoms: N_9  and  C_14
REMARK    6  A    between atoms: N_10  and  C_20
REMARK    7  A    between atoms: N_12  and  C_27
REMARK    8  A    between atoms: C_17  and  C_19
REMARK    9  A    between atoms: C_20  and  C_21
REMARK   10  A    between atoms: C_20  and  C_24
REMARK   11  A    between atoms: C_21  and  C_22
REMARK   12  A    between atoms: C_23  and  C_25
REMARK   13  A    between atoms: C_25  and  C_27
REMARK                            x       y       z     vdW  Elec       q    Type
REMARK                         _______ _______ _______ _____ _____    ______ ____
ROOT
ATOM     13  C   UNL     1      -5.627  -9.045   9.299  0.00  0.00    +0.167 C 
ATOM     14  C   UNL     1      -6.699 -10.070   9.719  0.00  0.00    +0.127 C 
ATOM     15  C   UNL     1      -4.338  -9.214  10.114  0.00  0.00    +0.149 C 
ATOM     16  C   UNL     1      -4.594  -9.126  11.627  0.00  0.00    +0.074 C 
ATOM     17  C   UNL     1      -5.872  -9.792  12.054  0.00  0.00    +0.015 C 
ATOM     18  C   UNL     1      -6.819 -10.228  11.210  0.00  0.00    +0.006 C 
ENDROOT
BRANCH  17  19
ATOM      4  O   UNL     1      -5.258 -10.579  14.182  0.00  0.00    -0.271 OA
ATOM     10  N   UNL     1      -7.306  -9.494  13.927  0.00  0.00    -0.300 N 
ATOM     19  C   UNL     1      -6.094 -10.002  13.488  0.00  0.00    +0.241 C 
ATOM     29  H   UNL     1      -7.943  -9.047  13.278  0.00  0.00    +0.150 HD
BRANCH  10  20
ATOM     20  C   UNL     1      -7.748  -9.583  15.300  0.00  0.00    +0.160 C 
BRANCH  20  24
ATOM      8  O   UNL     1      -5.523  -9.023  16.100  0.00  0.00    -0.274 OA
ATOM     11  N   UNL     1      -6.630 -10.781  17.078  0.00  0.00    -0.328 N 
ATOM     24  C   UNL     1      -6.509  -9.752  16.168  0.00  0.00    +0.231 C 
ATOM     32  H   UNL     1      -7.467 -11.349  17.156  0.00  0.00    +0.145 HD
ATOM     33  H   UNL     1      -5.878 -10.993  17.725  0.00  0.00    +0.145 HD
ENDBRANCH  20  24
BRANCH  20  21
ATOM     21  C   UNL     1      -8.718 -10.745  15.516  0.00  0.00    +0.054 C 
BRANCH  21  22
ATOM     22  C   UNL     1     -10.082 -10.279  16.007  0.00  0.00    +0.168 C 
BRANCH  22   1
ATOM      1  S   UNL     1      -9.925  -9.055  17.270  0.00  0.00    -0.034 S 
ATOM      6  O   UNL     1      -8.515  -8.908  17.589  0.00  0.00    -0.175 OA
ATOM      7  O   UNL     1     -10.719  -7.901  16.886  0.00  0.00    -0.175 OA
ATOM     26  C   UNL     1     -10.715  -9.808  18.674  0.00  0.00    +0.194 C 
ENDBRANCH  22   1
ENDBRANCH  21  22
ENDBRANCH  20  21
ENDBRANCH  10  20
ENDBRANCH  17  19
BRANCH  14   9
ATOM      5  O   UNL     1      -9.013  -9.279  11.213  0.00  0.00    -0.276 OA
ATOM      9  N   UNL     1      -7.994  -9.737   9.179  0.00  0.00    -0.306 N 
ATOM     23  C   UNL     1      -9.057  -9.364   9.989  0.00  0.00    +0.215 C 
ATOM     28  H   UNL     1      -8.141  -9.820   8.176  0.00  0.00    +0.149 HD
BRANCH  23  25
ATOM     25  C   UNL     1     -10.304  -9.065   9.176  0.00  0.00    +0.110 C 
BRANCH  25  27
ATOM     27  C   UNL     1     -10.378  -7.602   8.749  0.00  0.00    +0.087 C 
BRANCH  27  12
ATOM     12  N   UNL     1      -9.062  -6.983   8.829  0.00  0.00    -0.330 NA
ATOM     34  H   UNL     1      -8.416  -7.480   8.218  0.00  0.00    +0.118 HD
ATOM     35  H   UNL     1      -9.109  -6.027   8.479  0.00  0.00    +0.118 HD
ENDBRANCH  27  12
ENDBRANCH  25  27
ENDBRANCH  23  25
ENDBRANCH  14   9
BRANCH  13   2
ATOM      2  O   UNL     1      -6.126  -7.721   9.498  0.00  0.00    -0.387 OA
ATOM     30  H   UNL     1      -6.735  -7.502   8.774  0.00  0.00    +0.210 HD
ENDBRANCH  13   2
BRANCH  15   3
ATOM      3  O   UNL     1      -3.714 -10.456   9.793  0.00  0.00    -0.389 OA
ATOM     31  H   UNL     1      -4.418 -11.087   9.566  0.00  0.00    +0.210 HD
ENDBRANCH  15   3
TORSDOF 12
ENDMDL
MODEL 7
REMARK VINA RESULT:      -1.9      2.342      4.914
REMARK  Name = 7127906
REMARK  13 active torsions:
REMARK  status: ('A' for Active; 'I' for Inactive)
REMARK    1  A    between atoms: S_1  and  C_22
REMARK    2  A    between atoms: S_1  and  C_26
REMARK    3  A    between atoms: O_2  and  C_13
REMARK    4  A    between atoms: O_3  and  C_15
REMARK    5  A    between atoms: N_9  and  C_14
REMARK    6  A    between atoms: N_10  and  C_20
REMARK    7  A    between atoms: N_12  and  C_27
REMARK    8  A    between atoms: C_17  and  C_19
REMARK    9  A    between atoms: C_20  and  C_21
REMARK   10  A    between atoms: C_20  and  C_24
REMARK   11  A    between atoms: C_21  and  C_22
REMARK   12  A    between atoms: C_23  and  C_25
REMARK   13  A    between atoms: C_25  and  C_27
REMARK                            x       y       z     vdW  Elec       q    Type
REMARK                         _______ _______ _______ _____ _____    ______ ____
ROOT
ATOM     13  C   UNL     1       1.062  -0.541  22.958  0.00  0.00    +0.167 C 
ATOM     14  C   UNL     1       0.155  -0.615  24.202  0.00  0.00    +0.127 C 
ATOM     15  C   UNL     1       1.969   0.695  22.997  0.00  0.00    +0.149 C 
ATOM     16  C   UNL     1       1.166   1.998  23.148  0.00  0.00    +0.074 C 
ATOM     17  C   UNL     1      -0.006   1.870  24.079  0.00  0.00    +0.015 C 
ATOM     18  C   UNL     1      -0.465   0.707  24.566  0.00  0.00    +0.006 C 
ENDROOT
BRANCH  17  19
ATOM      4  O   UNL     1      -0.058   4.027  25.010  0.00  0.00    -0.271 OA
ATOM     10  N   UNL     1      -2.052   3.065  24.276  0.00  0.00    -0.300 N 
ATOM     19  C   UNL     1      -0.686   3.098  24.504  0.00  0.00    +0.241 C 
ATOM     29  H   UNL     1      -2.487   2.246  23.869  0.00  0.00    +0.150 HD
BRANCH  10  20
ATOM     20  C   UNL     1      -2.934   4.158  24.614  0.00  0.00    +0.160 C 
BRANCH  20  24
ATOM      8  O   UNL     1      -3.248   5.354  26.706  0.00  0.00    -0.274 OA
ATOM     11  N   UNL     1      -2.432   3.209  26.781  0.00  0.00    -0.328 N 
ATOM     24  C   UNL     1      -2.883   4.335  26.126  0.00  0.00    +0.231 C 
ATOM     32  H   UNL     1      -2.175   2.357  26.294  0.00  0.00    +0.145 HD
ATOM     33  H   UNL     1      -2.360   3.191  27.793  0.00  0.00    +0.145 HD
ENDBRANCH  20  24
BRANCH  20  21
ATOM     21  C   UNL     1      -4.370   3.901  24.153  0.00  0.00    +0.054 C 
BRANCH  21  22
ATOM     22  C   UNL     1      -5.312   3.625  25.317  0.00  0.00    +0.168 C 
BRANCH  22   1
ATOM      1  S   UNL     1      -5.709   1.908  25.427  0.00  0.00    -0.034 S 
ATOM      6  O   UNL     1      -6.751   1.619  24.457  0.00  0.00    -0.175 OA
ATOM      7  O   UNL     1      -4.468   1.153  25.424  0.00  0.00    -0.175 OA
ATOM     26  C   UNL     1      -6.427   1.755  27.047  0.00  0.00    +0.194 C 
ENDBRANCH  22   1
ENDBRANCH  21  22
ENDBRANCH  20  21
ENDBRANCH  10  20
ENDBRANCH  17  19
BRANCH  14   9
ATOM      5  O   UNL     1      -2.048  -1.059  25.981  0.00  0.00    -0.276 OA
ATOM      9  N   UNL     1      -0.893  -1.592  24.039  0.00  0.00    -0.306 N 
ATOM     23  C   UNL     1      -1.922  -1.731  24.961  0.00  0.00    +0.215 C 
ATOM     28  H   UNL     1      -0.851  -2.226  23.245  0.00  0.00    +0.149 HD
BRANCH  23  25
ATOM     25  C   UNL     1      -2.894  -2.826  24.556  0.00  0.00    +0.110 C 
BRANCH  25  27
ATOM     27  C   UNL     1      -4.137  -2.270  23.869  0.00  0.00    +0.087 C 
BRANCH  27  12
ATOM     12  N   UNL     1      -3.963  -0.854  23.573  0.00  0.00    -0.330 NA
ATOM     34  H   UNL     1      -3.830  -0.732  22.570  0.00  0.00    +0.118 HD
ATOM     35  H   UNL     1      -4.813  -0.346  23.812  0.00  0.00    +0.118 HD
ENDBRANCH  27  12
ENDBRANCH  25  27
ENDBRANCH  23  25
ENDBRANCH  14   9
BRANCH  13   2
ATOM      2  O   UNL     1       0.255  -0.482  21.780  0.00  0.00    -0.387 OA
ATOM     30  H   UNL     1       0.318  -1.332  21.314  0.00  0.00    +0.210 HD
ENDBRANCH  13   2
BRANCH  15   3
ATOM      3  O   UNL     1       2.916   0.577  24.057  0.00  0.00    -0.389 OA
ATOM     31  H   UNL     1       2.458   0.172  24.814  0.00  0.00    +0.210 HD
ENDBRANCH  15   3
TORSDOF 12
ENDMDL
MODEL 8
REMARK VINA RESULT:      -1.7      2.441      4.973
REMARK  Name = 7127906
REMARK  13 active torsions:
REMARK  status: ('A' for Active; 'I' for Inactive)
REMARK    1  A    between atoms: S_1  and  C_22
REMARK    2  A    between atoms: S_1  and  C_26
REMARK    3  A    between atoms: O_2  and  C_13
REMARK    4  A    between atoms: O_3  and  C_15
REMARK    5  A    between atoms: N_9  and  C_14
REMARK    6  A    between atoms: N_10  and  C_20
REMARK    7  A    between atoms: N_12  and  C_27
REMARK    8  A    between atoms: C_17  and  C_19
REMARK    9  A    between atoms: C_20  and  C_21
REMARK   10  A    between atoms: C_20  and  C_24
REMARK   11  A    between atoms: C_21  and  C_22
REMARK   12  A    between atoms: C_23  and  C_25
REMARK   13  A    between atoms: C_25  and  C_27
REMARK                            x       y       z     vdW  Elec       q    Type
REMARK                         _______ _______ _______ _____ _____    ______ ____
ROOT
ATOM     13  C   UNL     1       1.933   1.303  23.059  0.00  0.00    +0.167 C 
ATOM     14  C   UNL     1       0.478   1.809  23.103  0.00  0.00    +0.127 C 
ATOM     15  C   UNL     1       2.004  -0.169  22.633  0.00  0.00    +0.149 C 
ATOM     16  C   UNL     1       1.152  -1.075  23.538  0.00  0.00    +0.074 C 
ATOM     17  C   UNL     1      -0.151  -0.450  23.948  0.00  0.00    +0.015 C 
ATOM     18  C   UNL     1      -0.470   0.838  23.752  0.00  0.00    +0.006 C 
ENDROOT
BRANCH  17  19
ATOM      4  O   UNL     1      -0.896  -2.470  24.890  0.00  0.00    -0.271 OA
ATOM     10  N   UNL     1      -2.365  -0.662  24.788  0.00  0.00    -0.300 N 
ATOM     19  C   UNL     1      -1.156  -1.306  24.588  0.00  0.00    +0.241 C 
ATOM     29  H   UNL     1      -2.494   0.297  24.490  0.00  0.00    +0.150 HD
BRANCH  10  20
ATOM     20  C   UNL     1      -3.507  -1.302  25.400  0.00  0.00    +0.160 C 
BRANCH  20  24
ATOM      8  O   UNL     1      -4.655  -2.185  23.449  0.00  0.00    -0.274 OA
ATOM     11  N   UNL     1      -3.523  -3.647  24.811  0.00  0.00    -0.328 N 
ATOM     24  C   UNL     1      -3.979  -2.396  24.452  0.00  0.00    +0.231 C 
ATOM     32  H   UNL     1      -2.927  -3.804  25.618  0.00  0.00    +0.145 HD
ATOM     33  H   UNL     1      -3.756  -4.464  24.256  0.00  0.00    +0.145 HD
ENDBRANCH  20  24
BRANCH  20  21
ATOM     21  C   UNL     1      -4.639  -0.311  25.679  0.00  0.00    +0.054 C 
BRANCH  21  22
ATOM     22  C   UNL     1      -4.447   1.010  24.946  0.00  0.00    +0.168 C 
BRANCH  22   1
ATOM      1  S   UNL     1      -5.776   2.125  25.276  0.00  0.00    -0.034 S 
ATOM      6  O   UNL     1      -5.235   3.473  25.332  0.00  0.00    -0.175 OA
ATOM      7  O   UNL     1      -6.872   1.806  24.378  0.00  0.00    -0.175 OA
ATOM     26  C   UNL     1      -6.284   1.683  26.922  0.00  0.00    +0.194 C 
ENDBRANCH  22   1
ENDBRANCH  21  22
ENDBRANCH  20  21
ENDBRANCH  10  20
ENDBRANCH  17  19
BRANCH  14   9
ATOM      5  O   UNL     1      -1.938   3.106  23.936  0.00  0.00    -0.276 OA
ATOM      9  N   UNL     1       0.377   3.081  23.776  0.00  0.00    -0.306 N 
ATOM     23  C   UNL     1      -0.845   3.628  24.140  0.00  0.00    +0.215 C 
ATOM     28  H   UNL     1       1.228   3.610  23.950  0.00  0.00    +0.149 HD
BRANCH  23  25
ATOM     25  C   UNL     1      -0.676   4.967  24.835  0.00  0.00    +0.110 C 
BRANCH  25  27
ATOM     27  C   UNL     1      -1.996   5.510  25.374  0.00  0.00    +0.087 C 
BRANCH  27  12
ATOM     12  N   UNL     1      -2.641   4.519  26.226  0.00  0.00    -0.330 NA
ATOM     34  H   UNL     1      -2.752   3.648  25.709  0.00  0.00    +0.118 HD
ATOM     35  H   UNL     1      -2.041   4.305  27.021  0.00  0.00    +0.118 HD
ENDBRANCH  27  12
ENDBRANCH  25  27
ENDBRANCH  23  25
ENDBRANCH  14   9
BRANCH  13   2
ATOM      2  O   UNL     1       2.526   1.435  24.353  0.00  0.00    -0.387 OA
ATOM     30  H   UNL     1       2.171   0.742  24.933  0.00  0.00    +0.210 HD
ENDBRANCH  13   2
BRANCH  15   3
ATOM      3  O   UNL     1       1.592  -0.307  21.274  0.00  0.00    -0.389 OA
ATOM     31  H   UNL     1       0.793   0.233  21.154  0.00  0.00    +0.210 HD
ENDBRANCH  15   3
TORSDOF 12
ENDMDL
