MODEL 1
REMARK VINA RESULT:       0.1      0.000      0.000
REMARK  Name = 26744980
REMARK  5 active torsions:
REMARK  status: ('A' for Active; 'I' for Inactive)
REMARK    1  A    between atoms: N_4  and  C_11
REMARK    2  A    between atoms: N_9  and  C_28
REMARK    3  A    between atoms: C_10  and  C_11
REMARK    4  A    between atoms: C_16  and  C_22
REMARK    5  A    between atoms: C_24  and  C_25
REMARK                            x       y       z     vdW  Elec       q    Type
REMARK                         _______ _______ _______ _____ _____    ______ ____
ROOT
ATOM      4  N   UNL     1      -6.660  -9.880  12.818  0.00  0.00    -0.285 NA
ATOM      5  N   UNL     1      -9.672  -9.024  10.754  0.00  0.00    -0.347 N 
ATOM      6  N   UNL     1      -8.182  -8.346   9.230  0.00  0.00    -0.240 NA
ATOM     16  C   UNL     1      -5.776 -10.099  11.622  0.00  0.00    +0.152 C 
ATOM     18  C   UNL     1      -8.106 -10.056  12.494  0.00  0.00    +0.140 C 
ATOM     19  C   UNL     1      -6.092  -9.101  10.452  0.00  0.00    +0.085 C 
ATOM     20  C   UNL     1      -8.443  -9.357  11.238  0.00  0.00    +0.053 A 
ATOM     21  C   UNL     1      -7.550  -8.939  10.285  0.00  0.00    +0.065 A 
ATOM     23  C   UNL     1      -9.463  -8.416   9.540  0.00  0.00    +0.197 A 
ATOM     31  H   UNL     1     -10.566  -9.192  11.195  0.00  0.00    +0.167 HD
ENDROOT
BRANCH  16  22
ATOM      1  O   UNL     1      -3.862 -10.604  13.071  0.00  0.00    -0.336 OA
ATOM      7  N   UNL     1      -3.334  -9.416  11.247  0.00  0.00    -0.190 NA
ATOM      8  N   UNL     1      -2.480 -10.383  13.136  0.00  0.00    -0.056 NA
ATOM     22  C   UNL     1      -4.284 -10.003  11.928  0.00  0.00    +0.245 A 
ATOM     24  C   UNL     1      -2.244  -9.677  12.026  0.00  0.00    +0.202 A 
BRANCH  24  25
ATOM     25  C   UNL     1      -0.934  -9.218  11.667  0.00  0.00    +0.025 A 
ATOM     26  C   UNL     1      -0.449  -8.017  12.183  0.00  0.00    +0.044 A 
ATOM     27  C   UNL     1      -0.145  -9.974  10.801  0.00  0.00    +0.012 A 
ATOM     28  C   UNL     1       0.826  -7.571  11.834  0.00  0.00    +0.127 A 
ATOM     29  C   UNL     1       1.131  -9.528  10.450  0.00  0.00    +0.003 A 
ATOM     30  C   UNL     1       1.615  -8.327  10.967  0.00  0.00    +0.033 A 
BRANCH  28   9
ATOM      2  O   UNL     1       2.550  -6.108  12.287  0.00  0.00    -0.126 OA
ATOM      3  O   UNL     1       0.514  -5.540  12.880  0.00  0.00    -0.126 OA
ATOM      9  N   UNL     1       1.321  -6.348  12.358  0.00  0.00    +0.056 N 
ENDBRANCH  28   9
ENDBRANCH  24  25
ENDBRANCH  16  22
BRANCH   4  11
ATOM     11  C   UNL     1      -6.328 -10.781  13.930  0.00  0.00    +0.089 C 
BRANCH  11  10
ATOM     10  C   UNL     1      -6.435 -10.061  15.274  0.00  0.00    +0.003 C 
ATOM     12  C   UNL     1      -7.844 -10.217  15.861  0.00  0.00    +0.005 C 
ATOM     13  C   UNL     1      -5.375 -10.582  16.253  0.00  0.00    +0.005 C 
ATOM     14  C   UNL     1      -7.961  -9.551  17.230  0.00  0.00    +0.000 C 
ATOM     15  C   UNL     1      -5.495  -9.915  17.621  0.00  0.00    +0.000 C 
ATOM     17  C   UNL     1      -6.901 -10.065  18.198  0.00  0.00    +0.000 C 
ENDBRANCH  11  10
ENDBRANCH   4  11
TORSDOF 5
ENDMDL
MODEL 2
REMARK VINA RESULT:       0.5     14.656     17.646
REMARK  Name = 26744980
REMARK  5 active torsions:
REMARK  status: ('A' for Active; 'I' for Inactive)
REMARK    1  A    between atoms: N_4  and  C_11
REMARK    2  A    between atoms: N_9  and  C_28
REMARK    3  A    between atoms: C_10  and  C_11
REMARK    4  A    between atoms: C_16  and  C_22
REMARK    5  A    between atoms: C_24  and  C_25
REMARK                            x       y       z     vdW  Elec       q    Type
REMARK                         _______ _______ _______ _____ _____    ______ ____
ROOT
ATOM      4  N   UNL     1       1.996   1.244  23.642  0.00  0.00    -0.285 NA
ATOM      5  N   UNL     1       5.611   0.336  23.228  0.00  0.00    -0.347 N 
ATOM      6  N   UNL     1       4.939  -1.735  23.737  0.00  0.00    -0.240 NA
ATOM     16  C   UNL     1       1.505  -0.129  23.279  0.00  0.00    +0.152 C 
ATOM     18  C   UNL     1       3.351   1.526  23.084  0.00  0.00    +0.140 C 
ATOM     19  C   UNL     1       2.448  -1.265  23.814  0.00  0.00    +0.085 C 
ATOM     20  C   UNL     1       4.253   0.379  23.310  0.00  0.00    +0.053 A 
ATOM     21  C   UNL     1       3.865  -0.900  23.615  0.00  0.00    +0.065 A 
ATOM     23  C   UNL     1       5.979  -0.960  23.494  0.00  0.00    +0.197 A 
ATOM     31  H   UNL     1       6.233   1.104  23.010  0.00  0.00    +0.167 HD
ENDROOT
BRANCH  16  22
ATOM      1  O   UNL     1      -0.105  -1.643  24.346  0.00  0.00    -0.336 OA
ATOM      7  N   UNL     1      -0.983   0.317  23.710  0.00  0.00    -0.190 NA
ATOM      8  N   UNL     1      -1.458  -1.687  24.706  0.00  0.00    -0.056 NA
ATOM     22  C   UNL     1       0.090  -0.429  23.767  0.00  0.00    +0.245 A 
ATOM     24  C   UNL     1      -1.908  -0.496  24.299  0.00  0.00    +0.202 A 
BRANCH  24  25
ATOM     25  C   UNL     1      -3.272  -0.089  24.464  0.00  0.00    +0.025 A 
ATOM     26  C   UNL     1      -3.568   1.203  24.899  0.00  0.00    +0.044 A 
ATOM     27  C   UNL     1      -4.305  -0.985  24.188  0.00  0.00    +0.012 A 
ATOM     28  C   UNL     1      -4.896   1.599  25.059  0.00  0.00    +0.127 A 
ATOM     29  C   UNL     1      -5.634  -0.590  24.349  0.00  0.00    +0.003 A 
ATOM     30  C   UNL     1      -5.929   0.702  24.784  0.00  0.00    +0.033 A 
BRANCH  28   9
ATOM      2  O   UNL     1      -4.791   3.891  24.832  0.00  0.00    -0.126 OA
ATOM      3  O   UNL     1      -5.866   3.060  26.556  0.00  0.00    -0.126 OA
ATOM      9  N   UNL     1      -5.199   2.913  25.503  0.00  0.00    +0.056 N 
ENDBRANCH  28   9
ENDBRANCH  24  25
ENDBRANCH  16  22
BRANCH   4  11
ATOM     11  C   UNL     1       1.085   2.302  23.185  0.00  0.00    +0.089 C 
BRANCH  11  10
ATOM     10  C   UNL     1       0.505   3.080  24.366  0.00  0.00    +0.003 C 
ATOM     12  C   UNL     1      -0.726   3.885  23.932  0.00  0.00    +0.005 C 
ATOM     13  C   UNL     1       0.160   2.132  25.521  0.00  0.00    +0.005 C 
ATOM     14  C   UNL     1      -1.356   4.630  25.108  0.00  0.00    +0.000 C 
ATOM     15  C   UNL     1      -0.471   2.879  26.694  0.00  0.00    +0.000 C 
ATOM     17  C   UNL     1      -1.691   3.686  26.258  0.00  0.00    +0.000 C 
ENDBRANCH  11  10
ENDBRANCH   4  11
TORSDOF 5
ENDMDL
MODEL 3
REMARK VINA RESULT:       0.9     14.248     16.210
REMARK  Name = 26744980
REMARK  5 active torsions:
REMARK  status: ('A' for Active; 'I' for Inactive)
REMARK    1  A    between atoms: N_4  and  C_11
REMARK    2  A    between atoms: N_9  and  C_28
REMARK    3  A    between atoms: C_10  and  C_11
REMARK    4  A    between atoms: C_16  and  C_22
REMARK    5  A    between atoms: C_24  and  C_25
REMARK                            x       y       z     vdW  Elec       q    Type
REMARK                         _______ _______ _______ _____ _____    ______ ____
ROOT
ATOM      4  N   UNL     1      -3.810   1.620  24.573  0.00  0.00    -0.285 NA
ATOM      5  N   UNL     1      -6.541   3.955  25.647  0.00  0.00    -0.347 N 
ATOM      6  N   UNL     1      -4.867   5.326  26.213  0.00  0.00    -0.240 NA
ATOM     16  C   UNL     1      -2.835   2.728  24.289  0.00  0.00    +0.152 C 
ATOM     18  C   UNL     1      -5.227   2.081  24.503  0.00  0.00    +0.140 C 
ATOM     19  C   UNL     1      -2.964   3.916  25.308  0.00  0.00    +0.085 C 
ATOM     20  C   UNL     1      -5.392   3.359  25.225  0.00  0.00    +0.053 A 
ATOM     21  C   UNL     1      -4.383   4.219  25.576  0.00  0.00    +0.065 A 
ATOM     23  C   UNL     1      -6.173   5.139  26.238  0.00  0.00    +0.197 A 
ATOM     31  H   UNL     1      -7.483   3.603  25.545  0.00  0.00    +0.167 HD
ENDROOT
BRANCH  16  22
ATOM      1  O   UNL     1      -0.641   2.582  25.379  0.00  0.00    -0.336 OA
ATOM      7  N   UNL     1      -0.713   1.640  23.348  0.00  0.00    -0.190 NA
ATOM      8  N   UNL     1       0.644   2.079  25.137  0.00  0.00    -0.056 NA
ATOM     22  C   UNL     1      -1.376   2.280  24.276  0.00  0.00    +0.245 A 
ATOM     24  C   UNL     1       0.522   1.538  23.921  0.00  0.00    +0.202 A 
BRANCH  24  25
ATOM     25  C   UNL     1       1.612   0.891  23.251  0.00  0.00    +0.025 A 
ATOM     26  C   UNL     1       2.901   0.970  23.775  0.00  0.00    +0.044 A 
ATOM     27  C   UNL     1       1.381   0.180  22.073  0.00  0.00    +0.012 A 
ATOM     28  C   UNL     1       3.961   0.339  23.123  0.00  0.00    +0.127 A 
ATOM     29  C   UNL     1       2.440  -0.452  21.420  0.00  0.00    +0.003 A 
ATOM     30  C   UNL     1       3.730  -0.372  21.945  0.00  0.00    +0.033 A 
BRANCH  28   9
ATOM      2  O   UNL     1       6.231  -0.040  22.988  0.00  0.00    -0.126 OA
ATOM      3  O   UNL     1       5.442   0.950  24.782  0.00  0.00    -0.126 OA
ATOM      9  N   UNL     1       5.274   0.420  23.656  0.00  0.00    +0.056 N 
ENDBRANCH  28   9
ENDBRANCH  24  25
ENDBRANCH  16  22
BRANCH   4  11
ATOM     11  C   UNL     1      -3.653   0.487  23.651  0.00  0.00    +0.089 C 
BRANCH  11  10
ATOM     10  C   UNL     1      -3.303  -0.795  24.405  0.00  0.00    +0.003 C 
ATOM     12  C   UNL     1      -4.112  -1.980  23.863  0.00  0.00    +0.005 C 
ATOM     13  C   UNL     1      -1.797  -1.078  24.323  0.00  0.00    +0.005 C 
ATOM     14  C   UNL     1      -3.741  -3.285  24.566  0.00  0.00    +0.000 C 
ATOM     15  C   UNL     1      -1.430  -2.383  25.025  0.00  0.00    +0.000 C 
ATOM     17  C   UNL     1      -2.242  -3.559  24.489  0.00  0.00    +0.000 C 
ENDBRANCH  11  10
ENDBRANCH   4  11
TORSDOF 5
ENDMDL
MODEL 4
REMARK VINA RESULT:       1.0     14.315     17.665
REMARK  Name = 26744980
REMARK  5 active torsions:
REMARK  status: ('A' for Active; 'I' for Inactive)
REMARK    1  A    between atoms: N_4  and  C_11
REMARK    2  A    between atoms: N_9  and  C_28
REMARK    3  A    between atoms: C_10  and  C_11
REMARK    4  A    between atoms: C_16  and  C_22
REMARK    5  A    between atoms: C_24  and  C_25
REMARK                            x       y       z     vdW  Elec       q    Type
REMARK                         _______ _______ _______ _____ _____    ______ ____
ROOT
ATOM      4  N   UNL     1       0.320   0.075  24.124  0.00  0.00    -0.285 NA
ATOM      5  N   UNL     1       3.677  -0.857  22.736  0.00  0.00    -0.347 N 
ATOM      6  N   UNL     1       3.940   1.343  22.440  0.00  0.00    -0.240 NA
ATOM     16  C   UNL     1       0.769   1.439  24.566  0.00  0.00    +0.152 C 
ATOM     18  C   UNL     1       1.457  -0.885  24.007  0.00  0.00    +0.140 C 
ATOM     19  C   UNL     1       1.793   2.087  23.567  0.00  0.00    +0.085 C 
ATOM     20  C   UNL     1       2.592  -0.259  23.300  0.00  0.00    +0.053 A 
ATOM     21  C   UNL     1       2.778   1.086  23.112  0.00  0.00    +0.065 A 
ATOM     23  C   UNL     1       4.462   0.150  22.230  0.00  0.00    +0.197 A 
ATOM     31  H   UNL     1       3.875  -1.849  22.698  0.00  0.00    +0.167 HD
ENDROOT
BRANCH  16  22
ATOM      1  O   UNL     1      -0.033   3.745  24.816  0.00  0.00    -0.336 OA
ATOM      7  N   UNL     1      -1.654   2.202  24.914  0.00  0.00    -0.190 NA
ATOM      8  N   UNL     1      -1.229   4.448  25.010  0.00  0.00    -0.056 NA
ATOM     22  C   UNL     1      -0.374   2.430  24.771  0.00  0.00    +0.245 A 
ATOM     24  C   UNL     1      -2.139   3.470  25.057  0.00  0.00    +0.202 A 
BRANCH  24  25
ATOM     25  C   UNL     1      -3.537   3.725  25.245  0.00  0.00    +0.025 A 
ATOM     26  C   UNL     1      -4.430   2.662  25.373  0.00  0.00    +0.044 A 
ATOM     27  C   UNL     1      -4.004   5.038  25.300  0.00  0.00    +0.012 A 
ATOM     28  C   UNL     1      -5.790   2.911  25.556  0.00  0.00    +0.127 A 
ATOM     29  C   UNL     1      -5.365   5.288  25.483  0.00  0.00    +0.003 A 
ATOM     30  C   UNL     1      -6.257   4.224  25.612  0.00  0.00    +0.033 A 
BRANCH  28   9
ATOM      2  O   UNL     1      -7.004   1.423  26.834  0.00  0.00    -0.126 OA
ATOM      3  O   UNL     1      -7.178   1.308  24.648  0.00  0.00    -0.126 OA
ATOM      9  N   UNL     1      -6.701   1.829  25.686  0.00  0.00    +0.056 N 
ENDBRANCH  28   9
ENDBRANCH  24  25
ENDBRANCH  16  22
BRANCH   4  11
ATOM     11  C   UNL     1      -0.677  -0.507  25.033  0.00  0.00    +0.089 C 
BRANCH  11  10
ATOM     10  C   UNL     1      -1.822  -1.155  24.255  0.00  0.00    +0.003 C 
ATOM     12  C   UNL     1      -1.913  -2.653  24.571  0.00  0.00    +0.005 C 
ATOM     13  C   UNL     1      -3.150  -0.450  24.560  0.00  0.00    +0.005 C 
ATOM     14  C   UNL     1      -3.084  -3.312  23.846  0.00  0.00    +0.000 C 
ATOM     15  C   UNL     1      -4.319  -1.112  23.835  0.00  0.00    +0.000 C 
ATOM     17  C   UNL     1      -4.401  -2.604  24.145  0.00  0.00    +0.000 C 
ENDBRANCH  11  10
ENDBRANCH   4  11
TORSDOF 5
ENDMDL
MODEL 5
REMARK VINA RESULT:       3.4      2.456      3.786
REMARK  Name = 26744980
REMARK  5 active torsions:
REMARK  status: ('A' for Active; 'I' for Inactive)
REMARK    1  A    between atoms: N_4  and  C_11
REMARK    2  A    between atoms: N_9  and  C_28
REMARK    3  A    between atoms: C_10  and  C_11
REMARK    4  A    between atoms: C_16  and  C_22
REMARK    5  A    between atoms: C_24  and  C_25
REMARK                            x       y       z     vdW  Elec       q    Type
REMARK                         _______ _______ _______ _____ _____    ______ ____
ROOT
ATOM      4  N   UNL     1      -3.039  -9.669  12.551  0.00  0.00    -0.285 NA
ATOM      5  N   UNL     1      -6.528  -9.790  11.182  0.00  0.00    -0.347 N 
ATOM      6  N   UNL     1      -5.624  -8.877   9.352  0.00  0.00    -0.240 NA
ATOM     16  C   UNL     1      -2.395  -9.749  11.195  0.00  0.00    +0.152 C 
ATOM     18  C   UNL     1      -4.418 -10.239  12.557  0.00  0.00    +0.140 C 
ATOM     19  C   UNL     1      -3.202  -8.964  10.100  0.00  0.00    +0.085 C 
ATOM     20  C   UNL     1      -5.183  -9.755  11.391  0.00  0.00    +0.053 A 
ATOM     21  C   UNL     1      -4.652  -9.198  10.256  0.00  0.00    +0.065 A 
ATOM     23  C   UNL     1      -6.746  -9.250   9.938  0.00  0.00    +0.197 A 
ATOM     31  H   UNL     1      -7.233 -10.148  11.813  0.00  0.00    +0.167 HD
ENDROOT
BRANCH  16  22
ATOM      1  O   UNL     1      -0.084  -9.955  10.397  0.00  0.00    -0.336 OA
ATOM      7  N   UNL     1      -0.421  -8.219  11.773  0.00  0.00    -0.190 NA
ATOM      8  N   UNL     1       1.155  -9.313  10.525  0.00  0.00    -0.056 NA
ATOM     22  C   UNL     1      -0.955  -9.246  11.163  0.00  0.00    +0.245 A 
ATOM     24  C   UNL     1       0.875  -8.300  11.351  0.00  0.00    +0.202 A 
BRANCH  24  25
ATOM     25  C   UNL     1       1.864  -7.352  11.773  0.00  0.00    +0.025 A 
ATOM     26  C   UNL     1       3.186  -7.757  11.960  0.00  0.00    +0.044 A 
ATOM     27  C   UNL     1       1.504  -6.023  11.997  0.00  0.00    +0.012 A 
ATOM     28  C   UNL     1       4.147  -6.834  12.371  0.00  0.00    +0.127 A 
ATOM     29  C   UNL     1       2.466  -5.099  12.408  0.00  0.00    +0.003 A 
ATOM     30  C   UNL     1       3.787  -5.505  12.594  0.00  0.00    +0.033 A 
BRANCH  28   9
ATOM      2  O   UNL     1       6.226  -6.587  13.338  0.00  0.00    -0.126 OA
ATOM      3  O   UNL     1       5.912  -8.256  11.947  0.00  0.00    -0.126 OA
ATOM      9  N   UNL     1       5.493  -7.245  12.562  0.00  0.00    +0.056 N 
ENDBRANCH  28   9
ENDBRANCH  24  25
ENDBRANCH  16  22
BRANCH   4  11
ATOM     11  C   UNL     1      -2.254 -10.361  13.583  0.00  0.00    +0.089 C 
BRANCH  11  10
ATOM     10  C   UNL     1      -3.136 -10.778  14.759  0.00  0.00    +0.003 C 
ATOM     12  C   UNL     1      -2.466 -10.419  16.092  0.00  0.00    +0.005 C 
ATOM     13  C   UNL     1      -4.523 -10.131  14.653  0.00  0.00    +0.005 C 
ATOM     14  C   UNL     1      -3.352 -10.778  17.283  0.00  0.00    +0.000 C 
ATOM     15  C   UNL     1      -5.406 -10.490  15.846  0.00  0.00    +0.000 C 
ATOM     17  C   UNL     1      -4.733 -10.140  17.170  0.00  0.00    +0.000 C 
ENDBRANCH  11  10
ENDBRANCH   4  11
TORSDOF 5
ENDMDL
MODEL 6
REMARK VINA RESULT:       4.0     13.925     16.109
REMARK  Name = 26744980
REMARK  5 active torsions:
REMARK  status: ('A' for Active; 'I' for Inactive)
REMARK    1  A    between atoms: N_4  and  C_11
REMARK    2  A    between atoms: N_9  and  C_28
REMARK    3  A    between atoms: C_10  and  C_11
REMARK    4  A    between atoms: C_16  and  C_22
REMARK    5  A    between atoms: C_24  and  C_25
REMARK                            x       y       z     vdW  Elec       q    Type
REMARK                         _______ _______ _______ _____ _____    ______ ____
ROOT
ATOM      4  N   UNL     1      -3.448   1.442  24.436  0.00  0.00    -0.285 NA
ATOM      5  N   UNL     1      -5.259   4.365  25.934  0.00  0.00    -0.347 N 
ATOM      6  N   UNL     1      -3.212   5.204  26.262  0.00  0.00    -0.240 NA
ATOM     16  C   UNL     1      -2.257   2.261  24.024  0.00  0.00    +0.152 C 
ATOM     18  C   UNL     1      -4.680   2.270  24.584  0.00  0.00    +0.140 C 
ATOM     19  C   UNL     1      -1.912   3.385  25.066  0.00  0.00    +0.085 C 
ATOM     20  C   UNL     1      -4.387   3.505  25.338  0.00  0.00    +0.053 A 
ATOM     21  C   UNL     1      -3.143   4.043  25.546  0.00  0.00    +0.065 A 
ATOM     23  C   UNL     1      -4.503   5.374  26.478  0.00  0.00    +0.197 A 
ATOM     31  H   UNL     1      -6.266   4.284  25.968  0.00  0.00    +0.167 HD
ENDROOT
BRANCH  16  22
ATOM      1  O   UNL     1      -1.152   0.092  23.715  0.00  0.00    -0.336 OA
ATOM      7  N   UNL     1       0.244   1.843  23.647  0.00  0.00    -0.190 NA
ATOM      8  N   UNL     1       0.127  -0.438  23.499  0.00  0.00    -0.056 NA
ATOM     22  C   UNL     1      -0.992   1.440  23.789  0.00  0.00    +0.245 A 
ATOM     24  C   UNL     1       0.895   0.656  23.471  0.00  0.00    +0.202 A 
BRANCH  24  25
ATOM     25  C   UNL     1       2.314   0.598  23.269  0.00  0.00    +0.025 A 
ATOM     26  C   UNL     1       3.051  -0.465  23.790  0.00  0.00    +0.044 A 
ATOM     27  C   UNL     1       2.956   1.606  22.550  0.00  0.00    +0.012 A 
ATOM     28  C   UNL     1       4.431  -0.521  23.592  0.00  0.00    +0.127 A 
ATOM     29  C   UNL     1       4.336   1.551  22.352  0.00  0.00    +0.003 A 
ATOM     30  C   UNL     1       5.073   0.488  22.873  0.00  0.00    +0.033 A 
BRANCH  28   9
ATOM      2  O   UNL     1       4.857  -2.775  23.821  0.00  0.00    -0.126 OA
ATOM      3  O   UNL     1       6.154  -1.353  24.879  0.00  0.00    -0.126 OA
ATOM      9  N   UNL     1       5.183  -1.602  24.122  0.00  0.00    +0.056 N 
ENDBRANCH  28   9
ENDBRANCH  24  25
ENDBRANCH  16  22
BRANCH   4  11
ATOM     11  C   UNL     1      -3.736   0.359  23.486  0.00  0.00    +0.089 C 
BRANCH  11  10
ATOM     10  C   UNL     1      -4.023  -0.953  24.215  0.00  0.00    +0.003 C 
ATOM     12  C   UNL     1      -3.873  -2.146  23.262  0.00  0.00    +0.005 C 
ATOM     13  C   UNL     1      -3.105  -1.108  25.434  0.00  0.00    +0.005 C 
ATOM     14  C   UNL     1      -4.103  -3.474  23.980  0.00  0.00    +0.000 C 
ATOM     15  C   UNL     1      -3.336  -2.436  26.149  0.00  0.00    +0.000 C 
ATOM     17  C   UNL     1      -3.193  -3.621  25.197  0.00  0.00    +0.000 C 
ENDBRANCH  11  10
ENDBRANCH   4  11
TORSDOF 5
ENDMDL
