MODEL 1
REMARK VINA RESULT:       3.9      0.000      0.000
REMARK  Name = 11912213
REMARK  7 active torsions:
REMARK  status: ('A' for Active; 'I' for Inactive)
REMARK    1  A    between atoms: S_1  and  C_21
REMARK    2  A    between atoms: S_1  and  C_25
REMARK    3  A    between atoms: O_4  and  C_29
REMARK    4  A    between atoms: C_18  and  C_21
REMARK    5  A    between atoms: C_19  and  C_22
REMARK    6  A    between atoms: C_25  and  C_29
REMARK    7  A    between atoms: C_26  and  C_30
REMARK                            x       y       z     vdW  Elec       q    Type
REMARK                         _______ _______ _______ _____ _____    ______ ____
ROOT
ATOM      2  O   UNL     1       0.207   1.763  25.403  0.00  0.00    -0.267 OA
ATOM      3  O   UNL     1      -4.666  -0.058  26.637  0.00  0.00    -0.275 OA
ATOM      6  N   UNL     1      -4.812   1.886  25.372  0.00  0.00    -0.300 N 
ATOM      7  N   UNL     1      -1.803   2.661  24.636  0.00  0.00    -0.311 N 
ATOM      9  C   UNL     1      -3.471   3.829  26.189  0.00  0.00    +0.027 C 
ATOM     10  C   UNL     1      -3.977   3.617  23.792  0.00  0.00    +0.054 C 
ATOM     11  C   UNL     1      -3.868   4.613  24.944  0.00  0.00    +0.018 C 
ATOM     12  C   UNL     1      -4.528   2.759  26.514  0.00  0.00    +0.113 C 
ATOM     13  C   UNL     1      -2.082   3.218  25.967  0.00  0.00    +0.130 C 
ATOM     14  C   UNL     1      -5.076   2.582  24.104  0.00  0.00    +0.117 C 
ATOM     15  C   UNL     1      -2.656   2.908  23.557  0.00  0.00    +0.027 A 
ATOM     16  C   UNL     1      -2.320   2.492  22.326  0.00  0.00    +0.022 A 
ATOM     17  C   UNL     1      -0.587   1.968  24.483  0.00  0.00    +0.259 A 
ATOM     18  C   UNL     1      -4.892   0.506  25.564  0.00  0.00    +0.225 C 
ATOM     19  C   UNL     1      -0.256   1.483  23.097  0.00  0.00    +0.047 A 
ATOM     20  C   UNL     1      -1.104   1.765  22.097  0.00  0.00    +0.015 A 
ENDROOT
BRANCH  19  22
ATOM     22  C   UNL     1       0.969   0.707  22.833  0.00  0.00    -0.011 A 
ATOM     23  C   UNL     1       2.185   1.112  23.384  0.00  0.00    +0.027 A 
ATOM     24  C   UNL     1       0.913  -0.433  22.031  0.00  0.00    +0.009 A 
ATOM     26  C   UNL     1       3.345   0.378  23.133  0.00  0.00    +0.052 A 
ATOM     27  C   UNL     1       2.072  -1.168  21.780  0.00  0.00    +0.002 A 
ATOM     28  C   UNL     1       3.288  -0.763  22.331  0.00  0.00    +0.019 A 
BRANCH  26  30
ATOM      8  N   UNL     1       5.604   1.131  24.154  0.00  0.00    -0.191 NA
ATOM     30  C   UNL     1       4.591   0.793  23.696  0.00  0.00    +0.099 C 
ENDBRANCH  26  30
ENDBRANCH  19  22
BRANCH  18  21
ATOM     21  C   UNL     1      -5.275  -0.320  24.362  0.00  0.00    +0.165 C 
BRANCH  21   1
ATOM      1  S   UNL     1      -4.082  -1.661  24.219  0.00  0.00    -0.140 S 
BRANCH   1  25
ATOM     25  C   UNL     1      -2.583  -0.748  24.659  0.00  0.00    +0.189 C 
BRANCH  25  29
ATOM      5  O   UNL     1      -1.392  -2.787  24.173  0.00  0.00    -0.250 OA
ATOM     29  C   UNL     1      -1.423  -1.700  24.736  0.00  0.00    +0.315 C 
BRANCH  29   4
ATOM      4  O   UNL     1      -0.400  -1.219  25.487  0.00  0.00    -0.480 OA
ATOM     31  H   UNL     1       0.369  -1.829  25.488  0.00  0.00    +0.295 HD
ENDBRANCH  29   4
ENDBRANCH  25  29
ENDBRANCH   1  25
ENDBRANCH  21   1
ENDBRANCH  18  21
TORSDOF 7
ENDMDL
MODEL 2
REMARK VINA RESULT:       4.2      3.068      4.365
REMARK  Name = 11912213
REMARK  7 active torsions:
REMARK  status: ('A' for Active; 'I' for Inactive)
REMARK    1  A    between atoms: S_1  and  C_21
REMARK    2  A    between atoms: S_1  and  C_25
REMARK    3  A    between atoms: O_4  and  C_29
REMARK    4  A    between atoms: C_18  and  C_21
REMARK    5  A    between atoms: C_19  and  C_22
REMARK    6  A    between atoms: C_25  and  C_29
REMARK    7  A    between atoms: C_26  and  C_30
REMARK                            x       y       z     vdW  Elec       q    Type
REMARK                         _______ _______ _______ _____ _____    ______ ____
ROOT
ATOM      2  O   UNL     1      -1.862   3.770  27.536  0.00  0.00    -0.267 OA
ATOM      3  O   UNL     1      -5.234  -0.056  25.932  0.00  0.00    -0.275 OA
ATOM      6  N   UNL     1      -4.344   1.073  24.106  0.00  0.00    -0.300 N 
ATOM      7  N   UNL     1      -2.261   3.166  25.320  0.00  0.00    -0.311 N 
ATOM      9  C   UNL     1      -4.513   3.565  24.168  0.00  0.00    +0.027 C 
ATOM     10  C   UNL     1      -2.679   2.497  22.927  0.00  0.00    +0.054 C 
ATOM     11  C   UNL     1      -3.688   3.642  22.890  0.00  0.00    +0.018 C 
ATOM     12  C   UNL     1      -5.249   2.216  24.256  0.00  0.00    +0.113 C 
ATOM     13  C   UNL     1      -3.588   3.795  25.370  0.00  0.00    +0.130 C 
ATOM     14  C   UNL     1      -3.427   1.149  22.959  0.00  0.00    +0.117 C 
ATOM     15  C   UNL     1      -1.770   2.609  24.136  0.00  0.00    +0.027 A 
ATOM     16  C   UNL     1      -0.510   2.148  24.082  0.00  0.00    +0.022 A 
ATOM     17  C   UNL     1      -1.476   3.254  26.486  0.00  0.00    +0.259 A 
ATOM     18  C   UNL     1      -4.457  -0.013  24.975  0.00  0.00    +0.225 C 
ATOM     19  C   UNL     1      -0.081   2.696  26.404  0.00  0.00    +0.047 A 
ATOM     20  C   UNL     1       0.342   2.190  25.236  0.00  0.00    +0.015 A 
ENDROOT
BRANCH  19  22
ATOM     22  C   UNL     1       0.811   2.695  27.578  0.00  0.00    -0.011 A 
ATOM     23  C   UNL     1       0.279   2.539  28.858  0.00  0.00    +0.027 A 
ATOM     24  C   UNL     1       2.186   2.849  27.410  0.00  0.00    +0.009 A 
ATOM     26  C   UNL     1       1.122   2.538  29.970  0.00  0.00    +0.052 A 
ATOM     27  C   UNL     1       3.031   2.847  28.520  0.00  0.00    +0.002 A 
ATOM     28  C   UNL     1       2.499   2.691  29.800  0.00  0.00    +0.019 A 
BRANCH  26  30
ATOM      8  N   UNL     1       0.137   2.251  32.348  0.00  0.00    -0.191 NA
ATOM     30  C   UNL     1       0.578   2.380  31.282  0.00  0.00    +0.099 C 
ENDBRANCH  26  30
ENDBRANCH  19  22
BRANCH  18  21
ATOM     21  C   UNL     1      -3.553  -1.189  24.705  0.00  0.00    +0.165 C 
BRANCH  21   1
ATOM      1  S   UNL     1      -2.824  -1.689  26.273  0.00  0.00    -0.140 S 
BRANCH   1  25
ATOM     25  C   UNL     1      -1.283  -0.745  26.178  0.00  0.00    +0.189 C 
BRANCH  25  29
ATOM      5  O   UNL     1      -0.380  -1.148  23.980  0.00  0.00    -0.250 OA
ATOM     29  C   UNL     1      -0.363  -1.389  25.180  0.00  0.00    +0.315 C 
BRANCH  29   4
ATOM      4  O   UNL     1       0.505  -2.260  25.755  0.00  0.00    -0.480 OA
ATOM     31  H   UNL     1       1.436  -1.966  25.653  0.00  0.00    +0.295 HD
ENDBRANCH  29   4
ENDBRANCH  25  29
ENDBRANCH   1  25
ENDBRANCH  21   1
ENDBRANCH  18  21
TORSDOF 7
ENDMDL
MODEL 3
REMARK VINA RESULT:       5.9      2.694      3.820
REMARK  Name = 11912213
REMARK  7 active torsions:
REMARK  status: ('A' for Active; 'I' for Inactive)
REMARK    1  A    between atoms: S_1  and  C_21
REMARK    2  A    between atoms: S_1  and  C_25
REMARK    3  A    between atoms: O_4  and  C_29
REMARK    4  A    between atoms: C_18  and  C_21
REMARK    5  A    between atoms: C_19  and  C_22
REMARK    6  A    between atoms: C_25  and  C_29
REMARK    7  A    between atoms: C_26  and  C_30
REMARK                            x       y       z     vdW  Elec       q    Type
REMARK                         _______ _______ _______ _____ _____    ______ ____
ROOT
ATOM      2  O   UNL     1      -2.123   3.474  27.901  0.00  0.00    -0.267 OA
ATOM      3  O   UNL     1      -5.121  -0.269  25.536  0.00  0.00    -0.275 OA
ATOM      6  N   UNL     1      -4.410   1.312  23.989  0.00  0.00    -0.300 N 
ATOM      7  N   UNL     1      -2.523   3.314  25.610  0.00  0.00    -0.311 N 
ATOM      9  C   UNL     1      -4.838   3.700  24.585  0.00  0.00    +0.027 C 
ATOM     10  C   UNL     1      -2.939   3.127  23.131  0.00  0.00    +0.054 C 
ATOM     11  C   UNL     1      -4.064   4.137  23.347  0.00  0.00    +0.018 C 
ATOM     12  C   UNL     1      -5.425   2.291  24.387  0.00  0.00    +0.113 C 
ATOM     13  C   UNL     1      -3.907   3.770  25.802  0.00  0.00    +0.130 C 
ATOM     14  C   UNL     1      -3.540   1.730  22.879  0.00  0.00    +0.117 C 
ATOM     15  C   UNL     1      -2.012   3.078  24.331  0.00  0.00    +0.027 A 
ATOM     16  C   UNL     1      -0.713   2.780  24.170  0.00  0.00    +0.022 A 
ATOM     17  C   UNL     1      -1.717   3.238  26.762  0.00  0.00    +0.259 A 
ATOM     18  C   UNL     1      -4.381   0.061  24.605  0.00  0.00    +0.225 C 
ATOM     19  C   UNL     1      -0.274   2.866  26.553  0.00  0.00    +0.047 A 
ATOM     20  C   UNL     1       0.165   2.668  25.301  0.00  0.00    +0.015 A 
ENDROOT
BRANCH  19  22
ATOM     22  C   UNL     1       0.647   2.712  27.693  0.00  0.00    -0.011 A 
ATOM     23  C   UNL     1       2.024   2.642  27.474  0.00  0.00    +0.027 A 
ATOM     24  C   UNL     1       0.144   2.636  28.992  0.00  0.00    +0.009 A 
ATOM     26  C   UNL     1       2.896   2.496  28.553  0.00  0.00    +0.052 A 
ATOM     27  C   UNL     1       1.016   2.491  30.071  0.00  0.00    +0.002 A 
ATOM     28  C   UNL     1       2.392   2.421  29.853  0.00  0.00    +0.019 A 
BRANCH  26  30
ATOM      8  N   UNL     1       5.451   2.363  28.149  0.00  0.00    -0.191 NA
ATOM     30  C   UNL     1       4.306   2.423  28.330  0.00  0.00    +0.099 C 
ENDBRANCH  26  30
ENDBRANCH  19  22
BRANCH  18  21
ATOM     21  C   UNL     1      -3.367  -0.925  24.083  0.00  0.00    +0.165 C 
BRANCH  21   1
ATOM      1  S   UNL     1      -3.165  -2.210  25.327  0.00  0.00    -0.140 S 
BRANCH   1  25
ATOM     25  C   UNL     1      -1.393  -2.520  25.122  0.00  0.00    +0.189 C 
BRANCH  25  29
ATOM      5  O   UNL     1       0.019  -0.784  24.228  0.00  0.00    -0.250 OA
ATOM     29  C   UNL     1      -0.651  -1.215  25.158  0.00  0.00    +0.315 C 
BRANCH  29   4
ATOM      4  O   UNL     1      -0.813  -0.552  26.331  0.00  0.00    -0.480 OA
ATOM     31  H   UNL     1       0.035  -0.456  26.816  0.00  0.00    +0.295 HD
ENDBRANCH  29   4
ENDBRANCH  25  29
ENDBRANCH   1  25
ENDBRANCH  21   1
ENDBRANCH  18  21
TORSDOF 7
ENDMDL
MODEL 4
REMARK VINA RESULT:       6.7      2.435      3.760
REMARK  Name = 11912213
REMARK  7 active torsions:
REMARK  status: ('A' for Active; 'I' for Inactive)
REMARK    1  A    between atoms: S_1  and  C_21
REMARK    2  A    between atoms: S_1  and  C_25
REMARK    3  A    between atoms: O_4  and  C_29
REMARK    4  A    between atoms: C_18  and  C_21
REMARK    5  A    between atoms: C_19  and  C_22
REMARK    6  A    between atoms: C_25  and  C_29
REMARK    7  A    between atoms: C_26  and  C_30
REMARK                            x       y       z     vdW  Elec       q    Type
REMARK                         _______ _______ _______ _____ _____    ______ ____
ROOT
ATOM      2  O   UNL     1      -1.265   1.892  21.814  0.00  0.00    -0.267 OA
ATOM      3  O   UNL     1      -2.507   5.368  25.681  0.00  0.00    -0.275 OA
ATOM      6  N   UNL     1      -3.753   3.419  25.898  0.00  0.00    -0.300 N 
ATOM      7  N   UNL     1      -2.710   1.470  23.594  0.00  0.00    -0.311 N 
ATOM      9  C   UNL     1      -4.964   2.658  23.850  0.00  0.00    +0.027 C 
ATOM     10  C   UNL     1      -4.254   1.010  25.531  0.00  0.00    +0.054 C 
ATOM     11  C   UNL     1      -5.389   1.392  24.585  0.00  0.00    +0.018 C 
ATOM     12  C   UNL     1      -4.701   3.800  24.848  0.00  0.00    +0.113 C 
ATOM     13  C   UNL     1      -3.729   2.343  22.996  0.00  0.00    +0.130 C 
ATOM     14  C   UNL     1      -4.036   2.137  26.560  0.00  0.00    +0.117 C 
ATOM     15  C   UNL     1      -2.968   0.756  24.767  0.00  0.00    +0.027 A 
ATOM     16  C   UNL     1      -2.069  -0.127  25.229  0.00  0.00    +0.022 A 
ATOM     17  C   UNL     1      -1.513   1.307  22.869  0.00  0.00    +0.259 A 
ATOM     18  C   UNL     1      -2.727   4.296  26.251  0.00  0.00    +0.225 C 
ATOM     19  C   UNL     1      -0.509   0.338  23.432  0.00  0.00    +0.047 A 
ATOM     20  C   UNL     1      -0.820  -0.333  24.552  0.00  0.00    +0.015 A 
ENDROOT
BRANCH  19  22
ATOM     22  C   UNL     1       0.795   0.125  22.780  0.00  0.00    -0.011 A 
ATOM     23  C   UNL     1       1.973   0.466  23.446  0.00  0.00    +0.027 A 
ATOM     24  C   UNL     1       0.853  -0.418  21.497  0.00  0.00    +0.009 A 
ATOM     26  C   UNL     1       3.208   0.265  22.829  0.00  0.00    +0.052 A 
ATOM     27  C   UNL     1       2.087  -0.620  20.879  0.00  0.00    +0.002 A 
ATOM     28  C   UNL     1       3.265  -0.279  21.545  0.00  0.00    +0.019 A 
BRANCH  26  30
ATOM      8  N   UNL     1       5.395   0.901  24.062  0.00  0.00    -0.191 NA
ATOM     30  C   UNL     1       4.415   0.615  23.509  0.00  0.00    +0.099 C 
ENDBRANCH  26  30
ENDBRANCH  19  22
BRANCH  18  21
ATOM     21  C   UNL     1      -1.845   3.876  27.399  0.00  0.00    +0.165 C 
BRANCH  21   1
ATOM      1  S   UNL     1      -0.321   3.217  26.705  0.00  0.00    -0.140 S 
BRANCH   1  25
ATOM     25  C   UNL     1       0.058   1.990  27.979  0.00  0.00    +0.189 C 
BRANCH  25  29
ATOM      5  O   UNL     1       0.968   2.783  30.065  0.00  0.00    -0.250 OA
ATOM     29  C   UNL     1       1.135   2.522  28.881  0.00  0.00    +0.315 C 
BRANCH  29   4
ATOM      4  O   UNL     1       2.325   2.669  28.245  0.00  0.00    -0.480 OA
ATOM     31  H   UNL     1       2.924   3.279  28.728  0.00  0.00    +0.295 HD
ENDBRANCH  29   4
ENDBRANCH  25  29
ENDBRANCH   1  25
ENDBRANCH  21   1
ENDBRANCH  18  21
TORSDOF 7
ENDMDL
MODEL 5
REMARK VINA RESULT:       7.0      2.323      4.086
REMARK  Name = 11912213
REMARK  7 active torsions:
REMARK  status: ('A' for Active; 'I' for Inactive)
REMARK    1  A    between atoms: S_1  and  C_21
REMARK    2  A    between atoms: S_1  and  C_25
REMARK    3  A    between atoms: O_4  and  C_29
REMARK    4  A    between atoms: C_18  and  C_21
REMARK    5  A    between atoms: C_19  and  C_22
REMARK    6  A    between atoms: C_25  and  C_29
REMARK    7  A    between atoms: C_26  and  C_30
REMARK                            x       y       z     vdW  Elec       q    Type
REMARK                         _______ _______ _______ _____ _____    ______ ____
ROOT
ATOM      2  O   UNL     1      -0.446  -0.657  22.173  0.00  0.00    -0.267 OA
ATOM      3  O   UNL     1      -4.585   2.461  23.489  0.00  0.00    -0.275 OA
ATOM      6  N   UNL     1      -4.475   0.609  24.888  0.00  0.00    -0.300 N 
ATOM      7  N   UNL     1      -1.849  -0.980  24.006  0.00  0.00    -0.311 N 
ATOM      9  C   UNL     1      -4.318  -1.612  23.756  0.00  0.00    +0.027 C 
ATOM     10  C   UNL     1      -3.355  -1.315  25.999  0.00  0.00    +0.054 C 
ATOM     11  C   UNL     1      -4.141  -2.280  25.115  0.00  0.00    +0.018 C 
ATOM     12  C   UNL     1      -5.085  -0.286  23.902  0.00  0.00    +0.113 C 
ATOM     13  C   UNL     1      -2.938  -1.412  23.119  0.00  0.00    +0.130 C 
ATOM     14  C   UNL     1      -4.157  -0.011  26.183  0.00  0.00    +0.117 C 
ATOM     15  C   UNL     1      -1.999  -1.003  25.396  0.00  0.00    +0.027 A 
ATOM     16  C   UNL     1      -0.954  -0.720  26.189  0.00  0.00    +0.022 A 
ATOM     17  C   UNL     1      -0.625  -0.653  23.392  0.00  0.00    +0.259 A 
ATOM     18  C   UNL     1      -4.312   1.961  24.583  0.00  0.00    +0.225 C 
ATOM     19  C   UNL     1       0.518  -0.304  24.308  0.00  0.00    +0.047 A 
ATOM     20  C   UNL     1       0.320  -0.361  25.633  0.00  0.00    +0.015 A 
ENDROOT
BRANCH  19  22
ATOM     22  C   UNL     1       1.830   0.098  23.771  0.00  0.00    -0.011 A 
ATOM     23  C   UNL     1       2.937  -0.735  23.934  0.00  0.00    +0.027 A 
ATOM     24  C   UNL     1       1.966   1.313  23.099  0.00  0.00    +0.009 A 
ATOM     26  C   UNL     1       4.179  -0.355  23.427  0.00  0.00    +0.052 A 
ATOM     27  C   UNL     1       3.208   1.694  22.591  0.00  0.00    +0.002 A 
ATOM     28  C   UNL     1       4.315   0.861  22.754  0.00  0.00    +0.019 A 
BRANCH  26  30
ATOM      8  N   UNL     1       6.236  -1.900  23.732  0.00  0.00    -0.191 NA
ATOM     30  C   UNL     1       5.314  -1.207  23.595  0.00  0.00    +0.099 C 
ENDBRANCH  26  30
ENDBRANCH  19  22
BRANCH  18  21
ATOM     21  C   UNL     1      -3.759   2.838  25.678  0.00  0.00    +0.165 C 
BRANCH  21   1
ATOM      1  S   UNL     1      -3.419   4.454  24.965  0.00  0.00    -0.140 S 
BRANCH   1  25
ATOM     25  C   UNL     1      -1.680   4.609  25.438  0.00  0.00    +0.189 C 
BRANCH  25  29
ATOM      5  O   UNL     1      -0.938   2.866  23.947  0.00  0.00    -0.250 OA
ATOM     29  C   UNL     1      -0.949   3.349  25.073  0.00  0.00    +0.315 C 
BRANCH  29   4
ATOM      4  O   UNL     1      -0.283   2.806  26.123  0.00  0.00    -0.480 OA
ATOM     31  H   UNL     1      -0.810   2.847  26.950  0.00  0.00    +0.295 HD
ENDBRANCH  29   4
ENDBRANCH  25  29
ENDBRANCH   1  25
ENDBRANCH  21   1
ENDBRANCH  18  21
TORSDOF 7
ENDMDL
MODEL 6
REMARK VINA RESULT:       7.2      2.377      3.701
REMARK  Name = 11912213
REMARK  7 active torsions:
REMARK  status: ('A' for Active; 'I' for Inactive)
REMARK    1  A    between atoms: S_1  and  C_21
REMARK    2  A    between atoms: S_1  and  C_25
REMARK    3  A    between atoms: O_4  and  C_29
REMARK    4  A    between atoms: C_18  and  C_21
REMARK    5  A    between atoms: C_19  and  C_22
REMARK    6  A    between atoms: C_25  and  C_29
REMARK    7  A    between atoms: C_26  and  C_30
REMARK                            x       y       z     vdW  Elec       q    Type
REMARK                         _______ _______ _______ _____ _____    ______ ____
ROOT
ATOM      2  O   UNL     1      -1.863   1.839  21.918  0.00  0.00    -0.267 OA
ATOM      3  O   UNL     1      -3.023   5.310  25.816  0.00  0.00    -0.275 OA
ATOM      6  N   UNL     1      -4.271   3.365  26.051  0.00  0.00    -0.300 N 
ATOM      7  N   UNL     1      -3.276   1.418  23.724  0.00  0.00    -0.311 N 
ATOM      9  C   UNL     1      -5.521   2.611  24.024  0.00  0.00    +0.027 C 
ATOM     10  C   UNL     1      -4.786   0.957  25.688  0.00  0.00    +0.054 C 
ATOM     11  C   UNL     1      -5.937   1.346  24.764  0.00  0.00    +0.018 C 
ATOM     12  C   UNL     1      -5.236   3.750  25.019  0.00  0.00    +0.113 C 
ATOM     13  C   UNL     1      -4.304   2.295  23.147  0.00  0.00    +0.130 C 
ATOM     14  C   UNL     1      -4.545   2.082  26.715  0.00  0.00    +0.117 C 
ATOM     15  C   UNL     1      -3.515   0.702  24.900  0.00  0.00    +0.027 A 
ATOM     16  C   UNL     1      -2.610  -0.185  25.343  0.00  0.00    +0.022 A 
ATOM     17  C   UNL     1      -2.093   1.253  22.977  0.00  0.00    +0.259 A 
ATOM     18  C   UNL     1      -3.236   4.238  26.387  0.00  0.00    +0.225 C 
ATOM     19  C   UNL     1      -1.082   0.279  23.519  0.00  0.00    +0.047 A 
ATOM     20  C   UNL     1      -1.375  -0.393  24.643  0.00  0.00    +0.015 A 
ENDROOT
BRANCH  19  22
ATOM     22  C   UNL     1       0.209   0.064  22.843  0.00  0.00    -0.011 A 
ATOM     23  C   UNL     1       1.396   0.457  23.462  0.00  0.00    +0.027 A 
ATOM     24  C   UNL     1       0.246  -0.534  21.583  0.00  0.00    +0.009 A 
ATOM     26  C   UNL     1       2.619   0.254  22.822  0.00  0.00    +0.052 A 
ATOM     27  C   UNL     1       1.468  -0.738  20.942  0.00  0.00    +0.002 A 
ATOM     28  C   UNL     1       2.655  -0.344  21.561  0.00  0.00    +0.019 A 
BRANCH  26  30
ATOM      8  N   UNL     1       4.823   0.987  23.968  0.00  0.00    -0.191 NA
ATOM     30  C   UNL     1       3.835   0.658  23.454  0.00  0.00    +0.099 C 
ENDBRANCH  26  30
ENDBRANCH  19  22
BRANCH  18  21
ATOM     21  C   UNL     1      -2.334   3.812  27.518  0.00  0.00    +0.165 C 
BRANCH  21   1
ATOM      1  S   UNL     1      -0.847   3.105  26.794  0.00  0.00    -0.140 S 
BRANCH   1  25
ATOM     25  C   UNL     1      -1.284   3.264  25.045  0.00  0.00    +0.189 C 
BRANCH  25  29
ATOM      5  O   UNL     1      -0.257   5.408  24.649  0.00  0.00    -0.250 OA
ATOM     29  C   UNL     1      -0.335   4.217  24.377  0.00  0.00    +0.315 C 
BRANCH  29   4
ATOM      4  O   UNL     1       0.445   3.612  23.445  0.00  0.00    -0.480 OA
ATOM     31  H   UNL     1       0.999   2.904  23.837  0.00  0.00    +0.295 HD
ENDBRANCH  29   4
ENDBRANCH  25  29
ENDBRANCH   1  25
ENDBRANCH  21   1
ENDBRANCH  18  21
TORSDOF 7
ENDMDL
