MODEL 1
REMARK VINA RESULT:      -1.4      0.000      0.000
REMARK  Name = 56774925
REMARK  10 active torsions:
REMARK  status: ('A' for Active; 'I' for Inactive)
REMARK    1  A    between atoms: O_3  and  C_10
REMARK    2  A    between atoms: O_4  and  C_16
REMARK    3  A    between atoms: O_4  and  C_22
REMARK    4  A    between atoms: N_7  and  C_12
REMARK    5  A    between atoms: N_8  and  C_21
REMARK    6  A    between atoms: C_9  and  C_10
REMARK    7  A    between atoms: C_10  and  C_14
REMARK    8  A    between atoms: C_12  and  C_16
REMARK    9  A    between atoms: C_22  and  C_23
REMARK   10  A    between atoms: C_24  and  C_25
REMARK                            x       y       z     vdW  Elec       q    Type
REMARK                         _______ _______ _______ _____ _____    ______ ____
ROOT
ATOM     10  C   UNL     1      -3.338   3.182  24.454  0.00  0.00    +0.167 C 
ENDROOT
BRANCH  10   9
ATOM      2  O   UNL     1      -5.718   4.302  25.754  0.00  0.00    -0.369 OA
ATOM      5  O   UNL     1      -7.300   1.411  24.279  0.00  0.00    -0.273 OA
ATOM      7  N   UNL     1      -5.141   1.634  25.117  0.00  0.00    -0.289 N 
ATOM      9  C   UNL     1      -4.104   2.545  25.617  0.00  0.00    +0.135 C 
ATOM     11  C   UNL     1      -4.732   3.609  26.509  0.00  0.00    +0.185 C 
ATOM     13  C   UNL     1      -6.436   2.074  24.856  0.00  0.00    +0.242 C 
ATOM     15  C   UNL     1      -6.787   3.448  25.416  0.00  0.00    +0.255 C 
BRANCH   7  12
ATOM     12  C   UNL     1      -4.727   0.293  24.726  0.00  0.00    +0.136 C 
BRANCH  12  16
ATOM     16  C   UNL     1      -3.746  -0.299  25.721  0.00  0.00    +0.178 C 
BRANCH  16   4
ATOM      4  O   UNL     1      -3.705  -1.711  25.562  0.00  0.00    -0.378 OA
BRANCH   4  22
ATOM     22  C   UNL     1      -2.976  -2.084  24.400  0.00  0.00    +0.156 C 
ATOM     23  C   UNL     1      -1.494  -1.982  24.696  0.00  0.00    +0.034 C 
ENDBRANCH   4  22
ENDBRANCH  16   4
ENDBRANCH  12  16
ENDBRANCH   7  12
ENDBRANCH  10   9
BRANCH  10  14
ATOM     14  C   UNL     1      -1.935   2.643  24.344  0.00  0.00    -0.017 A 
ATOM     17  C   UNL     1      -0.955   3.062  25.243  0.00  0.00    +0.008 A 
ATOM     18  C   UNL     1      -1.618   1.723  23.344  0.00  0.00    +0.008 A 
ATOM     19  C   UNL     1       0.344   2.562  25.143  0.00  0.00    +0.023 A 
ATOM     20  C   UNL     1      -0.319   1.223  23.244  0.00  0.00    +0.023 A 
ATOM     21  C   UNL     1       0.662   1.643  24.143  0.00  0.00    +0.034 A 
BRANCH  21   8
ATOM      6  O   UNL     1       1.899  -0.133  22.068  0.00  0.00    -0.269 OA
ATOM      8  N   UNL     1       1.960   1.142  24.042  0.00  0.00    -0.281 N 
ATOM     24  C   UNL     1       2.490   0.311  23.046  0.00  0.00    +0.255 C 
ATOM     30  H   UNL     1       2.593   1.425  24.787  0.00  0.00    +0.155 HD
BRANCH  24  25
ATOM      1  S   UNL     1       4.356  -1.588  23.772  0.00  0.00    -0.092 S 
ATOM     25  C   UNL     1       3.928  -0.032  23.200  0.00  0.00    +0.074 A 
ATOM     26  C   UNL     1       5.034   0.746  22.942  0.00  0.00    +0.021 A 
ATOM     27  C   UNL     1       6.250   0.056  23.217  0.00  0.00    +0.008 A 
ATOM     28  C   UNL     1       6.026  -1.224  23.676  0.00  0.00    +0.046 A 
ENDBRANCH  24  25
ENDBRANCH  21   8
ENDBRANCH  10  14
BRANCH  10   3
ATOM      3  O   UNL     1      -4.039   2.937  23.239  0.00  0.00    -0.385 OA
ATOM     29  H   UNL     1      -3.412   2.626  22.564  0.00  0.00    +0.210 HD
ENDBRANCH  10   3
TORSDOF 9
ENDMDL
MODEL 2
REMARK VINA RESULT:      -1.0      1.445      3.190
REMARK  Name = 56774925
REMARK  10 active torsions:
REMARK  status: ('A' for Active; 'I' for Inactive)
REMARK    1  A    between atoms: O_3  and  C_10
REMARK    2  A    between atoms: O_4  and  C_16
REMARK    3  A    between atoms: O_4  and  C_22
REMARK    4  A    between atoms: N_7  and  C_12
REMARK    5  A    between atoms: N_8  and  C_21
REMARK    6  A    between atoms: C_9  and  C_10
REMARK    7  A    between atoms: C_10  and  C_14
REMARK    8  A    between atoms: C_12  and  C_16
REMARK    9  A    between atoms: C_22  and  C_23
REMARK   10  A    between atoms: C_24  and  C_25
REMARK                            x       y       z     vdW  Elec       q    Type
REMARK                         _______ _______ _______ _____ _____    ______ ____
ROOT
ATOM     10  C   UNL     1      -4.417   0.445  24.370  0.00  0.00    +0.167 C 
ENDROOT
BRANCH  10   9
ATOM      2  O   UNL     1      -6.526   1.812  25.885  0.00  0.00    -0.369 OA
ATOM      5  O   UNL     1      -3.763   3.880  26.947  0.00  0.00    -0.273 OA
ATOM      7  N   UNL     1      -4.111   2.836  24.896  0.00  0.00    -0.289 N 
ATOM      9  C   UNL     1      -4.910   1.875  24.125  0.00  0.00    +0.135 C 
ATOM     11  C   UNL     1      -6.384   2.017  24.484  0.00  0.00    +0.185 C 
ATOM     13  C   UNL     1      -4.472   3.218  26.186  0.00  0.00    +0.242 C 
ATOM     15  C   UNL     1      -5.885   2.836  26.612  0.00  0.00    +0.255 C 
BRANCH   7  12
ATOM     12  C   UNL     1      -2.826   3.242  24.341  0.00  0.00    +0.136 C 
BRANCH  12  16
ATOM     16  C   UNL     1      -2.527   4.699  24.638  0.00  0.00    +0.178 C 
BRANCH  16   4
ATOM      4  O   UNL     1      -1.261   4.801  25.279  0.00  0.00    -0.378 OA
BRANCH   4  22
ATOM     22  C   UNL     1      -0.451   3.664  25.013  0.00  0.00    +0.156 C 
ATOM     23  C   UNL     1      -0.197   2.926  26.311  0.00  0.00    +0.034 C 
ENDBRANCH   4  22
ENDBRANCH  16   4
ENDBRANCH  12  16
ENDBRANCH   7  12
ENDBRANCH  10   9
BRANCH  10  14
ATOM     14  C   UNL     1      -2.916   0.346  24.277  0.00  0.00    -0.017 A 
ATOM     17  C   UNL     1      -2.252   0.857  23.161  0.00  0.00    +0.008 A 
ATOM     18  C   UNL     1      -2.192  -0.254  25.306  0.00  0.00    +0.008 A 
ATOM     19  C   UNL     1      -0.862   0.766  23.075  0.00  0.00    +0.023 A 
ATOM     20  C   UNL     1      -0.802  -0.345  25.220  0.00  0.00    +0.023 A 
ATOM     21  C   UNL     1      -0.137   0.165  24.105  0.00  0.00    +0.034 A 
BRANCH  21   8
ATOM      6  O   UNL     1       1.636  -0.234  21.721  0.00  0.00    -0.269 OA
ATOM      8  N   UNL     1       1.252   0.075  24.019  0.00  0.00    -0.281 N 
ATOM     24  C   UNL     1       2.036  -0.113  22.874  0.00  0.00    +0.255 C 
ATOM     30  H   UNL     1       1.748   0.160  24.904  0.00  0.00    +0.155 HD
BRANCH  24  25
ATOM      1  S   UNL     1       4.214  -1.535  23.797  0.00  0.00    -0.092 S 
ATOM     25  C   UNL     1       3.505  -0.140  23.103  0.00  0.00    +0.074 A 
ATOM     26  C   UNL     1       4.439   0.834  22.830  0.00  0.00    +0.021 A 
ATOM     27  C   UNL     1       5.755   0.429  23.196  0.00  0.00    +0.008 A 
ATOM     28  C   UNL     1       5.776  -0.838  23.735  0.00  0.00    +0.046 A 
ENDBRANCH  24  25
ENDBRANCH  21   8
ENDBRANCH  10  14
BRANCH  10   3
ATOM      3  O   UNL     1      -4.843   0.015  25.658  0.00  0.00    -0.385 OA
ATOM     29  H   UNL     1      -5.313   0.741  26.100  0.00  0.00    +0.210 HD
ENDBRANCH  10   3
TORSDOF 9
ENDMDL
MODEL 3
REMARK VINA RESULT:      -0.0      1.484      1.958
REMARK  Name = 56774925
REMARK  10 active torsions:
REMARK  status: ('A' for Active; 'I' for Inactive)
REMARK    1  A    between atoms: O_3  and  C_10
REMARK    2  A    between atoms: O_4  and  C_16
REMARK    3  A    between atoms: O_4  and  C_22
REMARK    4  A    between atoms: N_7  and  C_12
REMARK    5  A    between atoms: N_8  and  C_21
REMARK    6  A    between atoms: C_9  and  C_10
REMARK    7  A    between atoms: C_10  and  C_14
REMARK    8  A    between atoms: C_12  and  C_16
REMARK    9  A    between atoms: C_22  and  C_23
REMARK   10  A    between atoms: C_24  and  C_25
REMARK                            x       y       z     vdW  Elec       q    Type
REMARK                         _______ _______ _______ _____ _____    ______ ____
ROOT
ATOM     10  C   UNL     1      -3.568   3.440  26.247  0.00  0.00    +0.167 C 
ENDROOT
BRANCH  10   9
ATOM      2  O   UNL     1      -3.677   4.250  23.429  0.00  0.00    -0.369 OA
ATOM      5  O   UNL     1      -3.286   0.702  22.887  0.00  0.00    -0.273 OA
ATOM      7  N   UNL     1      -4.410   1.810  24.597  0.00  0.00    -0.289 N 
ATOM      9  C   UNL     1      -4.686   3.091  25.259  0.00  0.00    +0.135 C 
ATOM     11  C   UNL     1      -4.860   4.189  24.217  0.00  0.00    +0.185 C 
ATOM     13  C   UNL     1      -3.698   1.743  23.402  0.00  0.00    +0.242 C 
ATOM     15  C   UNL     1      -3.511   3.071  22.675  0.00  0.00    +0.255 C 
BRANCH   7  12
ATOM     12  C   UNL     1      -4.744   0.591  25.323  0.00  0.00    +0.136 C 
BRANCH  12  16
ATOM     16  C   UNL     1      -4.401  -0.649  24.518  0.00  0.00    +0.178 C 
BRANCH  16   4
ATOM      4  O   UNL     1      -3.679  -1.559  25.337  0.00  0.00    -0.378 OA
BRANCH   4  22
ATOM     22  C   UNL     1      -3.071  -2.586  24.564  0.00  0.00    +0.156 C 
ATOM     23  C   UNL     1      -1.573  -2.368  24.548  0.00  0.00    +0.034 C 
ENDBRANCH   4  22
ENDBRANCH  16   4
ENDBRANCH  12  16
ENDBRANCH   7  12
ENDBRANCH  10   9
BRANCH  10  14
ATOM     14  C   UNL     1      -2.231   2.923  25.784  0.00  0.00    -0.017 A 
ATOM     17  C   UNL     1      -1.305   3.796  25.212  0.00  0.00    +0.008 A 
ATOM     18  C   UNL     1      -1.917   1.571  25.929  0.00  0.00    +0.008 A 
ATOM     19  C   UNL     1      -0.066   3.318  24.784  0.00  0.00    +0.023 A 
ATOM     20  C   UNL     1      -0.678   1.093  25.501  0.00  0.00    +0.023 A 
ATOM     21  C   UNL     1       0.247   1.966  24.929  0.00  0.00    +0.034 A 
BRANCH  21   8
ATOM      6  O   UNL     1       0.925  -0.015  22.784  0.00  0.00    -0.269 OA
ATOM      8  N   UNL     1       1.486   1.488  24.502  0.00  0.00    -0.281 N 
ATOM     24  C   UNL     1       1.749   0.556  23.488  0.00  0.00    +0.255 C 
ATOM     30  H   UNL     1       2.292   1.872  24.991  0.00  0.00    +0.155 HD
BRANCH  24  25
ATOM      1  S   UNL     1       3.838  -1.223  23.780  0.00  0.00    -0.092 S 
ATOM     25  C   UNL     1       3.187   0.267  23.245  0.00  0.00    +0.074 A 
ATOM     26  C   UNL     1       4.132   1.051  22.623  0.00  0.00    +0.021 A 
ATOM     27  C   UNL     1       5.409   0.421  22.584  0.00  0.00    +0.008 A 
ATOM     28  C   UNL     1       5.391  -0.822  23.179  0.00  0.00    +0.046 A 
ENDBRANCH  24  25
ENDBRANCH  21   8
ENDBRANCH  10  14
BRANCH  10   3
ATOM      3  O   UNL     1      -3.503   4.853  26.404  0.00  0.00    -0.385 OA
ATOM     29  H   UNL     1      -3.273   5.064  27.324  0.00  0.00    +0.210 HD
ENDBRANCH  10   3
TORSDOF 9
ENDMDL
