MODEL 1
REMARK VINA RESULT:      -2.5      0.000      0.000
REMARK  Name = 45784167
REMARK  13 active torsions:
REMARK  status: ('A' for Active; 'I' for Inactive)
REMARK    1  A    between atoms: N_4  and  C_14
REMARK    2  A    between atoms: C_7  and  C_11
REMARK    3  A    between atoms: C_8  and  C_14
REMARK    4  A    between atoms: C_10  and  C_15
REMARK    5  A    between atoms: C_11  and  C_16
REMARK    6  A    between atoms: C_11  and  C_17
REMARK    7  A    between atoms: C_12  and  C_18
REMARK    8  A    between atoms: C_15  and  C_19
REMARK    9  A    between atoms: C_20  and  C_21
REMARK   10  A    between atoms: C_21  and  C_22
REMARK   11  A    between atoms: C_21  and  C_23
REMARK   12  A    between atoms: C_21  and  C_24
REMARK   13  A    between atoms: C_25  and  C_26
REMARK                            x       y       z     vdW  Elec       q    Type
REMARK                         _______ _______ _______ _____ _____    ______ ____
ROOT
ATOM      7  C   UNL     1      -3.742   2.340  25.229  0.00  0.00    +0.000 C 
ATOM      8  C   UNL     1      -3.561   2.572  23.708  0.00  0.00    +0.032 C 
ATOM      9  C   UNL     1      -3.459   3.634  26.006  0.00  0.00    +0.012 C 
ATOM     10  C   UNL     1      -2.033   4.162  25.759  0.00  0.00    +0.024 C 
ATOM     12  C   UNL     1      -1.682   4.166  24.284  0.00  0.00    -0.073 C 
ATOM     13  C   UNL     1      -2.385   3.460  23.381  0.00  0.00    -0.022 C 
ATOM     18  C   UNL     1      -0.531   5.039  23.865  0.00  0.00    +0.039 C 
ENDROOT
BRANCH   7  11
ATOM     11  C   UNL     1      -5.148   1.832  25.564  0.00  0.00    -0.013 C 
ATOM     16  C   UNL     1      -6.013   1.795  24.308  0.00  0.00    +0.007 C 
ATOM     17  C   UNL     1      -5.789   2.706  26.637  0.00  0.00    +0.007 C 
ENDBRANCH   7  11
BRANCH   8  14
ATOM     14  C   UNL     1      -3.421   1.241  22.959  0.00  0.00    +0.112 C 
BRANCH  14   4
ATOM      3  O   UNL     1      -4.564  -1.365  23.111  0.00  0.00    -0.275 OA
ATOM      4  N   UNL     1      -3.030   0.196  23.852  0.00  0.00    -0.314 N 
ATOM     20  C   UNL     1      -3.641  -1.058  23.866  0.00  0.00    +0.218 C 
ATOM     32  H   UNL     1      -2.236   0.365  24.462  0.00  0.00    +0.149 HD
BRANCH  20  21
ATOM     21  C   UNL     1      -3.065  -2.044  24.905  0.00  0.00    +0.039 C 
ATOM     22  C   UNL     1      -3.281  -1.501  26.325  0.00  0.00    +0.020 C 
ATOM     23  C   UNL     1      -3.791  -3.396  24.782  0.00  0.00    +0.020 C 
ATOM     24  C   UNL     1      -1.567  -2.267  24.646  0.00  0.00    +0.020 C 
ENDBRANCH  20  21
ENDBRANCH  14   4
ENDBRANCH   8  14
BRANCH  10  15
ATOM     15  C   UNL     1      -1.002   3.365  26.565  0.00  0.00    +0.105 C 
BRANCH  15  19
ATOM      2  O   UNL     1       0.441   2.242  24.948  0.00  0.00    -0.420 OA
ATOM      5  N   UNL     1      -1.055   0.898  25.930  0.00  0.00    -0.112 NA
ATOM      6  N   UNL     1      -0.313   0.138  25.046  0.00  0.00    -0.107 NA
ATOM     19  C   UNL     1      -0.581   2.119  25.839  0.00  0.00    +0.218 A 
ATOM     25  C   UNL     1       0.548   0.963  24.497  0.00  0.00    +0.251 A 
BRANCH  25  26
ATOM      1  F   UNL     1       0.113  -0.697  22.280  0.00  0.00    -0.205 F 
ATOM     26  C   UNL     1       1.564   0.728  23.512  0.00  0.00    +0.074 A 
ATOM     27  C   UNL     1       1.308  -0.106  22.423  0.00  0.00    +0.136 A 
ATOM     28  C   UNL     1       2.813   1.335  23.647  0.00  0.00    +0.016 A 
ATOM     29  C   UNL     1       2.300  -0.332  21.470  0.00  0.00    +0.039 A 
ATOM     30  C   UNL     1       3.805   1.109  22.693  0.00  0.00    +0.001 A 
ATOM     31  C   UNL     1       3.549   0.275  21.604  0.00  0.00    +0.003 A 
ENDBRANCH  25  26
ENDBRANCH  15  19
ENDBRANCH  10  15
TORSDOF 7
ENDMDL
MODEL 2
REMARK VINA RESULT:      -1.6      2.057      5.519
REMARK  Name = 45784167
REMARK  13 active torsions:
REMARK  status: ('A' for Active; 'I' for Inactive)
REMARK    1  A    between atoms: N_4  and  C_14
REMARK    2  A    between atoms: C_7  and  C_11
REMARK    3  A    between atoms: C_8  and  C_14
REMARK    4  A    between atoms: C_10  and  C_15
REMARK    5  A    between atoms: C_11  and  C_16
REMARK    6  A    between atoms: C_11  and  C_17
REMARK    7  A    between atoms: C_12  and  C_18
REMARK    8  A    between atoms: C_15  and  C_19
REMARK    9  A    between atoms: C_20  and  C_21
REMARK   10  A    between atoms: C_21  and  C_22
REMARK   11  A    between atoms: C_21  and  C_23
REMARK   12  A    between atoms: C_21  and  C_24
REMARK   13  A    between atoms: C_25  and  C_26
REMARK                            x       y       z     vdW  Elec       q    Type
REMARK                         _______ _______ _______ _____ _____    ______ ____
ROOT
ATOM      7  C   UNL     1      -1.807   2.304  23.882  0.00  0.00    +0.000 C 
ATOM      8  C   UNL     1      -0.478   3.081  24.057  0.00  0.00    +0.032 C 
ATOM      9  C   UNL     1      -2.936   3.259  23.469  0.00  0.00    +0.012 C 
ATOM     10  C   UNL     1      -3.159   4.380  24.502  0.00  0.00    +0.024 C 
ATOM     12  C   UNL     1      -1.853   5.019  24.929  0.00  0.00    -0.073 C 
ATOM     13  C   UNL     1      -0.664   4.430  24.709  0.00  0.00    -0.022 C 
ATOM     18  C   UNL     1      -1.942   6.375  25.574  0.00  0.00    +0.039 C 
ENDROOT
BRANCH   7  11
ATOM     11  C   UNL     1      -1.676   1.178  22.850  0.00  0.00    -0.013 C 
ATOM     16  C   UNL     1      -2.843   1.218  21.869  0.00  0.00    +0.007 C 
ATOM     17  C   UNL     1      -1.601  -0.176  23.547  0.00  0.00    +0.007 C 
ENDBRANCH   7  11
BRANCH   8  14
ATOM     14  C   UNL     1       0.540   2.261  24.859  0.00  0.00    +0.112 C 
BRANCH  14   4
ATOM      3  O   UNL     1       0.962  -0.445  24.074  0.00  0.00    -0.275 OA
ATOM      4  N   UNL     1       1.583   1.779  24.010  0.00  0.00    -0.314 N 
ATOM     20  C   UNL     1       1.724   0.433  23.670  0.00  0.00    +0.218 C 
ATOM     32  H   UNL     1       2.213   2.460  23.597  0.00  0.00    +0.149 HD
BRANCH  20  21
ATOM     21  C   UNL     1       2.915   0.125  22.738  0.00  0.00    +0.039 C 
ATOM     22  C   UNL     1       3.822   1.358  22.613  0.00  0.00    +0.020 C 
ATOM     23  C   UNL     1       3.740  -1.032  23.331  0.00  0.00    +0.020 C 
ATOM     24  C   UNL     1       2.404  -0.298  21.352  0.00  0.00    +0.020 C 
ENDBRANCH  20  21
ENDBRANCH  14   4
ENDBRANCH   8  14
BRANCH  10  15
ATOM     15  C   UNL     1      -3.940   3.864  25.716  0.00  0.00    +0.105 C 
BRANCH  15  19
ATOM      2  O   UNL     1      -3.892   1.460  25.296  0.00  0.00    -0.420 OA
ATOM      5  N   UNL     1      -5.937   2.364  25.210  0.00  0.00    -0.112 NA
ATOM      6  N   UNL     1      -6.057   1.011  24.956  0.00  0.00    -0.107 NA
ATOM     19  C   UNL     1      -4.657   2.581  25.403  0.00  0.00    +0.218 A 
ATOM     25  C   UNL     1      -4.839   0.524  25.017  0.00  0.00    +0.251 A 
BRANCH  25  26
ATOM      1  F   UNL     1      -3.324  -0.789  26.975  0.00  0.00    -0.205 F 
ATOM     26  C   UNL     1      -4.363  -0.816  24.837  0.00  0.00    +0.074 A 
ATOM     27  C   UNL     1      -3.611  -1.435  25.836  0.00  0.00    +0.136 A 
ATOM     28  C   UNL     1      -4.653  -1.502  23.657  0.00  0.00    +0.016 A 
ATOM     29  C   UNL     1      -3.149  -2.738  25.655  0.00  0.00    +0.039 A 
ATOM     30  C   UNL     1      -4.191  -2.806  23.476  0.00  0.00    +0.001 A 
ATOM     31  C   UNL     1      -3.440  -3.424  24.475  0.00  0.00    +0.003 A 
ENDBRANCH  25  26
ENDBRANCH  15  19
ENDBRANCH  10  15
TORSDOF 7
ENDMDL
MODEL 3
REMARK VINA RESULT:      -1.0      2.341      6.590
REMARK  Name = 45784167
REMARK  13 active torsions:
REMARK  status: ('A' for Active; 'I' for Inactive)
REMARK    1  A    between atoms: N_4  and  C_14
REMARK    2  A    between atoms: C_7  and  C_11
REMARK    3  A    between atoms: C_8  and  C_14
REMARK    4  A    between atoms: C_10  and  C_15
REMARK    5  A    between atoms: C_11  and  C_16
REMARK    6  A    between atoms: C_11  and  C_17
REMARK    7  A    between atoms: C_12  and  C_18
REMARK    8  A    between atoms: C_15  and  C_19
REMARK    9  A    between atoms: C_20  and  C_21
REMARK   10  A    between atoms: C_21  and  C_22
REMARK   11  A    between atoms: C_21  and  C_23
REMARK   12  A    between atoms: C_21  and  C_24
REMARK   13  A    between atoms: C_25  and  C_26
REMARK                            x       y       z     vdW  Elec       q    Type
REMARK                         _______ _______ _______ _____ _____    ______ ____
ROOT
ATOM      7  C   UNL     1      -0.858   0.472  24.641  0.00  0.00    +0.000 C 
ATOM      8  C   UNL     1       0.045  -0.731  24.269  0.00  0.00    +0.032 C 
ATOM      9  C   UNL     1      -1.902   0.054  25.687  0.00  0.00    +0.012 C 
ATOM     10  C   UNL     1      -2.799  -1.095  25.189  0.00  0.00    +0.024 C 
ATOM     12  C   UNL     1      -1.988  -2.210  24.559  0.00  0.00    -0.073 C 
ATOM     13  C   UNL     1      -0.714  -2.032  24.168  0.00  0.00    -0.022 C 
ATOM     18  C   UNL     1      -2.661  -3.549  24.433  0.00  0.00    +0.039 C 
ENDROOT
BRANCH   7  11
ATOM     11  C   UNL     1      -0.042   1.656  25.168  0.00  0.00    -0.013 C 
ATOM     16  C   UNL     1      -0.471   2.009  26.588  0.00  0.00    +0.007 C 
ATOM     17  C   UNL     1      -0.191   2.859  24.242  0.00  0.00    +0.007 C 
ENDBRANCH   7  11
BRANCH   8  14
ATOM     14  C   UNL     1       0.797  -0.473  22.958  0.00  0.00    +0.112 C 
BRANCH  14   4
ATOM      3  O   UNL     1       2.848   1.494  23.166  0.00  0.00    -0.275 OA
ATOM      4  N   UNL     1       2.195  -0.722  23.118  0.00  0.00    -0.314 N 
ATOM     20  C   UNL     1       3.141   0.300  23.212  0.00  0.00    +0.218 C 
ATOM     32  H   UNL     1       2.498  -1.685  23.220  0.00  0.00    +0.149 HD
BRANCH  20  21
ATOM     21  C   UNL     1       4.597  -0.184  23.385  0.00  0.00    +0.039 C 
ATOM     22  C   UNL     1       4.615  -1.641  23.871  0.00  0.00    +0.020 C 
ATOM     23  C   UNL     1       5.323  -0.110  22.030  0.00  0.00    +0.020 C 
ATOM     24  C   UNL     1       5.336   0.717  24.387  0.00  0.00    +0.020 C 
ENDBRANCH  20  21
ENDBRANCH  14   4
ENDBRANCH   8  14
BRANCH  10  15
ATOM     15  C   UNL     1      -3.869  -0.581  24.219  0.00  0.00    +0.105 C 
BRANCH  15  19
ATOM      2  O   UNL     1      -3.462   1.825  24.312  0.00  0.00    -0.420 OA
ATOM      5  N   UNL     1      -5.442   1.197  25.145  0.00  0.00    -0.112 NA
ATOM      6  N   UNL     1      -5.345   2.571  25.261  0.00  0.00    -0.107 NA
ATOM     19  C   UNL     1      -4.321   0.804  24.587  0.00  0.00    +0.218 A 
ATOM     25  C   UNL     1      -4.175   2.893  24.762  0.00  0.00    +0.251 A 
BRANCH  25  26
ATOM      1  F   UNL     1      -2.346   3.862  26.652  0.00  0.00    -0.205 F 
ATOM     26  C   UNL     1      -3.543   4.173  24.621  0.00  0.00    +0.074 A 
ATOM     27  C   UNL     1      -2.638   4.619  25.584  0.00  0.00    +0.136 A 
ATOM     28  C   UNL     1      -3.836   4.972  23.516  0.00  0.00    +0.016 A 
ATOM     29  C   UNL     1      -2.028   5.865  25.443  0.00  0.00    +0.039 A 
ATOM     30  C   UNL     1      -3.226   6.218  23.375  0.00  0.00    +0.001 A 
ATOM     31  C   UNL     1      -2.321   6.665  24.338  0.00  0.00    +0.003 A 
ENDBRANCH  25  26
ENDBRANCH  15  19
ENDBRANCH  10  15
TORSDOF 7
ENDMDL
MODEL 4
REMARK VINA RESULT:      -0.9      2.399      4.705
REMARK  Name = 45784167
REMARK  13 active torsions:
REMARK  status: ('A' for Active; 'I' for Inactive)
REMARK    1  A    between atoms: N_4  and  C_14
REMARK    2  A    between atoms: C_7  and  C_11
REMARK    3  A    between atoms: C_8  and  C_14
REMARK    4  A    between atoms: C_10  and  C_15
REMARK    5  A    between atoms: C_11  and  C_16
REMARK    6  A    between atoms: C_11  and  C_17
REMARK    7  A    between atoms: C_12  and  C_18
REMARK    8  A    between atoms: C_15  and  C_19
REMARK    9  A    between atoms: C_20  and  C_21
REMARK   10  A    between atoms: C_21  and  C_22
REMARK   11  A    between atoms: C_21  and  C_23
REMARK   12  A    between atoms: C_21  and  C_24
REMARK   13  A    between atoms: C_25  and  C_26
REMARK                            x       y       z     vdW  Elec       q    Type
REMARK                         _______ _______ _______ _____ _____    ______ ____
ROOT
ATOM      7  C   UNL     1      -3.316  -1.203  24.440  0.00  0.00    +0.000 C 
ATOM      8  C   UNL     1      -3.722  -0.309  25.639  0.00  0.00    +0.032 C 
ATOM      9  C   UNL     1      -1.822  -1.551  24.513  0.00  0.00    +0.012 C 
ATOM     10  C   UNL     1      -0.930  -0.295  24.509  0.00  0.00    +0.024 C 
ATOM     12  C   UNL     1      -1.429   0.753  25.484  0.00  0.00    -0.073 C 
ATOM     13  C   UNL     1      -2.676   0.722  25.989  0.00  0.00    -0.022 C 
ATOM     18  C   UNL     1      -0.447   1.812  25.902  0.00  0.00    +0.039 C 
ENDROOT
BRANCH   7  11
ATOM     11  C   UNL     1      -4.146  -2.489  24.383  0.00  0.00    -0.013 C 
ATOM     16  C   UNL     1      -3.294  -3.690  24.780  0.00  0.00    +0.007 C 
ATOM     17  C   UNL     1      -4.736  -2.680  22.989  0.00  0.00    +0.007 C 
ENDBRANCH   7  11
BRANCH   8  14
ATOM     14  C   UNL     1      -5.062   0.390  25.379  0.00  0.00    +0.112 C 
BRANCH  14   4
ATOM      3  O   UNL     1      -4.047   2.250  23.474  0.00  0.00    -0.275 OA
ATOM      4  N   UNL     1      -4.939   1.803  25.558  0.00  0.00    -0.314 N 
ATOM     20  C   UNL     1      -4.430   2.650  24.573  0.00  0.00    +0.218 C 
ATOM     32  H   UNL     1      -5.290   2.205  26.421  0.00  0.00    +0.149 HD
BRANCH  20  21
ATOM     21  C   UNL     1      -4.387   4.142  24.967  0.00  0.00    +0.039 C 
ATOM     22  C   UNL     1      -5.756   4.588  25.501  0.00  0.00    +0.020 C 
ATOM     23  C   UNL     1      -3.338   4.348  26.075  0.00  0.00    +0.020 C 
ATOM     24  C   UNL     1      -3.990   4.996  23.753  0.00  0.00    +0.020 C 
ENDBRANCH  20  21
ENDBRANCH  14   4
ENDBRANCH   8  14
BRANCH  10  15
ATOM     15  C   UNL     1      -0.801   0.287  23.097  0.00  0.00    +0.105 C 
BRANCH  15  19
ATOM      2  O   UNL     1       1.610   0.024  23.371  0.00  0.00    -0.420 OA
ATOM      5  N   UNL     1       0.891  -0.252  21.271  0.00  0.00    -0.112 NA
ATOM      6  N   UNL     1       2.262  -0.426  21.279  0.00  0.00    -0.107 NA
ATOM     19  C   UNL     1       0.554   0.009  22.512  0.00  0.00    +0.218 A 
ATOM     25  C   UNL     1       2.638  -0.257  22.526  0.00  0.00    +0.251 A 
BRANCH  25  26
ATOM      1  F   UNL     1       4.358   1.956  22.575  0.00  0.00    -0.205 F 
ATOM     26  C   UNL     1       3.941  -0.321  23.122  0.00  0.00    +0.074 A 
ATOM     27  C   UNL     1       4.767   0.803  23.125  0.00  0.00    +0.136 A 
ATOM     28  C   UNL     1       4.382  -1.512  23.698  0.00  0.00    +0.016 A 
ATOM     29  C   UNL     1       6.035   0.736  23.705  0.00  0.00    +0.039 A 
ATOM     30  C   UNL     1       5.649  -1.580  24.277  0.00  0.00    +0.001 A 
ATOM     31  C   UNL     1       6.475  -0.456  24.281  0.00  0.00    +0.003 A 
ENDBRANCH  25  26
ENDBRANCH  15  19
ENDBRANCH  10  15
TORSDOF 7
ENDMDL
MODEL 5
REMARK VINA RESULT:       0.2      1.837      2.559
REMARK  Name = 45784167
REMARK  13 active torsions:
REMARK  status: ('A' for Active; 'I' for Inactive)
REMARK    1  A    between atoms: N_4  and  C_14
REMARK    2  A    between atoms: C_7  and  C_11
REMARK    3  A    between atoms: C_8  and  C_14
REMARK    4  A    between atoms: C_10  and  C_15
REMARK    5  A    between atoms: C_11  and  C_16
REMARK    6  A    between atoms: C_11  and  C_17
REMARK    7  A    between atoms: C_12  and  C_18
REMARK    8  A    between atoms: C_15  and  C_19
REMARK    9  A    between atoms: C_20  and  C_21
REMARK   10  A    between atoms: C_21  and  C_22
REMARK   11  A    between atoms: C_21  and  C_23
REMARK   12  A    between atoms: C_21  and  C_24
REMARK   13  A    between atoms: C_25  and  C_26
REMARK                            x       y       z     vdW  Elec       q    Type
REMARK                         _______ _______ _______ _____ _____    ______ ____
ROOT
ATOM      7  C   UNL     1      -3.647   2.957  25.402  0.00  0.00    +0.000 C 
ATOM      8  C   UNL     1      -4.487   2.182  24.356  0.00  0.00    +0.032 C 
ATOM      9  C   UNL     1      -2.569   3.800  24.706  0.00  0.00    +0.012 C 
ATOM     10  C   UNL     1      -1.616   2.941  23.855  0.00  0.00    +0.024 C 
ATOM     12  C   UNL     1      -2.371   1.956  22.985  0.00  0.00    -0.073 C 
ATOM     13  C   UNL     1      -3.658   1.640  23.217  0.00  0.00    -0.022 C 
ATOM     18  C   UNL     1      -1.626   1.377  21.814  0.00  0.00    +0.039 C 
ENDROOT
BRANCH   7  11
ATOM     11  C   UNL     1      -4.523   3.856  26.281  0.00  0.00    -0.013 C 
ATOM     16  C   UNL     1      -5.657   4.461  25.460  0.00  0.00    +0.007 C 
ATOM     17  C   UNL     1      -3.680   4.950  26.929  0.00  0.00    +0.007 C 
ENDBRANCH   7  11
BRANCH   8  14
ATOM     14  C   UNL     1      -5.267   1.036  25.011  0.00  0.00    +0.112 C 
BRANCH  14   4
ATOM      3  O   UNL     1      -3.068  -0.332  26.200  0.00  0.00    -0.275 OA
ATOM      4  N   UNL     1      -4.740  -0.230  24.609  0.00  0.00    -0.314 N 
ATOM     20  C   UNL     1      -3.656  -0.837  25.244  0.00  0.00    +0.218 C 
ATOM     32  H   UNL     1      -5.215  -0.727  23.862  0.00  0.00    +0.149 HD
BRANCH  20  21
ATOM     21  C   UNL     1      -3.247  -2.205  24.656  0.00  0.00    +0.039 C 
ATOM     22  C   UNL     1      -1.810  -2.141  24.118  0.00  0.00    +0.020 C 
ATOM     23  C   UNL     1      -3.310  -3.275  25.761  0.00  0.00    +0.020 C 
ATOM     24  C   UNL     1      -4.216  -2.606  23.532  0.00  0.00    +0.020 C 
ENDBRANCH  20  21
ENDBRANCH  14   4
ENDBRANCH   8  14
BRANCH  10  15
ATOM     15  C   UNL     1      -0.588   2.220  24.734  0.00  0.00    +0.105 C 
BRANCH  15  19
ATOM      2  O   UNL     1       1.596   1.269  24.200  0.00  0.00    -0.420 OA
ATOM      5  N   UNL     1      -0.087   0.446  22.976  0.00  0.00    -0.112 NA
ATOM      6  N   UNL     1       1.079  -0.175  22.572  0.00  0.00    -0.107 NA
ATOM     19  C   UNL     1       0.261   1.280  23.927  0.00  0.00    +0.218 A 
ATOM     25  C   UNL     1       2.035   0.335  23.313  0.00  0.00    +0.251 A 
BRANCH  25  26
ATOM      1  F   UNL     1       3.069  -2.101  24.235  0.00  0.00    -0.205 F 
ATOM     26  C   UNL     1       3.443   0.066  23.332  0.00  0.00    +0.074 A 
ATOM     27  C   UNL     1       3.918  -1.160  23.798  0.00  0.00    +0.136 A 
ATOM     28  C   UNL     1       4.340   1.036  22.881  0.00  0.00    +0.016 A 
ATOM     29  C   UNL     1       5.289  -1.416  23.815  0.00  0.00    +0.039 A 
ATOM     30  C   UNL     1       5.711   0.780  22.898  0.00  0.00    +0.001 A 
ATOM     31  C   UNL     1       6.186  -0.446  23.365  0.00  0.00    +0.003 A 
ENDBRANCH  25  26
ENDBRANCH  15  19
ENDBRANCH  10  15
TORSDOF 7
ENDMDL
MODEL 6
REMARK VINA RESULT:       0.4      1.274      1.954
REMARK  Name = 45784167
REMARK  13 active torsions:
REMARK  status: ('A' for Active; 'I' for Inactive)
REMARK    1  A    between atoms: N_4  and  C_14
REMARK    2  A    between atoms: C_7  and  C_11
REMARK    3  A    between atoms: C_8  and  C_14
REMARK    4  A    between atoms: C_10  and  C_15
REMARK    5  A    between atoms: C_11  and  C_16
REMARK    6  A    between atoms: C_11  and  C_17
REMARK    7  A    between atoms: C_12  and  C_18
REMARK    8  A    between atoms: C_15  and  C_19
REMARK    9  A    between atoms: C_20  and  C_21
REMARK   10  A    between atoms: C_21  and  C_22
REMARK   11  A    between atoms: C_21  and  C_23
REMARK   12  A    between atoms: C_21  and  C_24
REMARK   13  A    between atoms: C_25  and  C_26
REMARK                            x       y       z     vdW  Elec       q    Type
REMARK                         _______ _______ _______ _____ _____    ______ ____
ROOT
ATOM      7  C   UNL     1      -4.579   3.262  25.541  0.00  0.00    +0.000 C 
ATOM      8  C   UNL     1      -4.855   1.948  24.768  0.00  0.00    +0.032 C 
ATOM      9  C   UNL     1      -4.158   4.376  24.572  0.00  0.00    +0.012 C 
ATOM     10  C   UNL     1      -2.895   4.006  23.771  0.00  0.00    +0.024 C 
ATOM     12  C   UNL     1      -2.983   2.606  23.197  0.00  0.00    -0.073 C 
ATOM     13  C   UNL     1      -3.875   1.705  23.646  0.00  0.00    -0.022 C 
ATOM     18  C   UNL     1      -2.052   2.281  22.061  0.00  0.00    +0.039 C 
ENDROOT
BRANCH   7  11
ATOM     11  C   UNL     1      -5.798   3.712  26.352  0.00  0.00    -0.013 C 
ATOM     16  C   UNL     1      -6.750   2.541  26.575  0.00  0.00    +0.007 C 
ATOM     17  C   UNL     1      -6.510   4.862  25.647  0.00  0.00    +0.007 C 
ENDBRANCH   7  11
BRANCH   8  14
ATOM     14  C   UNL     1      -4.860   0.740  25.712  0.00  0.00    +0.112 C 
BRANCH  14   4
ATOM      3  O   UNL     1      -2.697  -0.961  26.452  0.00  0.00    -0.275 OA
ATOM      4  N   UNL     1      -4.440  -0.441  25.027  0.00  0.00    -0.314 N 
ATOM     20  C   UNL     1      -3.367  -1.224  25.453  0.00  0.00    +0.218 C 
ATOM     32  H   UNL     1      -4.985  -0.746  24.227  0.00  0.00    +0.149 HD
BRANCH  20  21
ATOM     21  C   UNL     1      -3.081  -2.460  24.573  0.00  0.00    +0.039 C 
ATOM     22  C   UNL     1      -4.022  -2.473  23.359  0.00  0.00    +0.020 C 
ATOM     23  C   UNL     1      -1.628  -2.400  24.067  0.00  0.00    +0.020 C 
ATOM     24  C   UNL     1      -3.260  -3.745  25.395  0.00  0.00    +0.020 C 
ENDBRANCH  20  21
ENDBRANCH  14   4
ENDBRANCH   8  14
BRANCH  10  15
ATOM     15  C   UNL     1      -1.632   4.170  24.624  0.00  0.00    +0.105 C 
BRANCH  15  19
ATOM      2  O   UNL     1       0.134   2.709  23.786  0.00  0.00    -0.420 OA
ATOM      5  N   UNL     1      -0.979   1.885  25.543  0.00  0.00    -0.112 NA
ATOM      6  N   UNL     1      -0.018   0.963  25.176  0.00  0.00    -0.107 NA
ATOM     19  C   UNL     1      -0.854   2.887  24.705  0.00  0.00    +0.218 A 
ATOM     25  C   UNL     1       0.608   1.486  24.147  0.00  0.00    +0.251 A 
BRANCH  25  26
ATOM      1  F   UNL     1       0.223  -0.478  22.185  0.00  0.00    -0.205 F 
ATOM     26  C   UNL     1       1.693   0.976  23.360  0.00  0.00    +0.074 A 
ATOM     27  C   UNL     1       1.460  -0.002  22.393  0.00  0.00    +0.136 A 
ATOM     28  C   UNL     1       2.985   1.460  23.564  0.00  0.00    +0.016 A 
ATOM     29  C   UNL     1       2.519  -0.496  21.631  0.00  0.00    +0.039 A 
ATOM     30  C   UNL     1       4.044   0.966  22.802  0.00  0.00    +0.001 A 
ATOM     31  C   UNL     1       3.811  -0.012  21.836  0.00  0.00    +0.003 A 
ENDBRANCH  25  26
ENDBRANCH  15  19
ENDBRANCH  10  15
TORSDOF 7
ENDMDL
