MODEL 1
REMARK VINA RESULT:       4.8      0.000      0.000
REMARK  Name = 25389803
REMARK  9 active torsions:
REMARK  status: ('A' for Active; 'I' for Inactive)
REMARK    1  A    between atoms: O_1  and  C_19
REMARK    2  A    between atoms: O_1  and  C_31
REMARK    3  A    between atoms: O_3  and  C_25
REMARK    4  A    between atoms: O_3  and  C_32
REMARK    5  A    between atoms: N_5  and  C_10
REMARK    6  A    between atoms: N_5  and  C_20
REMARK    7  A    between atoms: C_8  and  C_16
REMARK    8  A    between atoms: C_12  and  C_19
REMARK    9  A    between atoms: C_20  and  C_25
REMARK                            x       y       z     vdW  Elec       q    Type
REMARK                         _______ _______ _______ _____ _____    ______ ____
ROOT
ATOM      4  N   UNL     1      -1.108   1.477  25.903  0.00  0.00    -0.274 NA
ATOM      6  N   UNL     1      -3.825  -0.091  23.836  0.00  0.00    -0.356 N 
ATOM      7  C   UNL     1      -2.144   1.566  24.827  0.00  0.00    +0.106 C 
ATOM      8  C   UNL     1      -0.506   2.800  26.205  0.00  0.00    +0.090 C 
ATOM      9  C   UNL     1      -3.257   2.548  25.226  0.00  0.00    +0.044 C 
ATOM     10  C   UNL     1      -2.676   3.934  25.498  0.00  0.00    +0.057 C 
ATOM     11  C   UNL     1      -1.595   3.835  26.574  0.00  0.00    +0.042 C 
ATOM     12  C   UNL     1      -0.126   0.382  25.671  0.00  0.00    +0.172 C 
ATOM     13  C   UNL     1      -2.688   0.199  24.537  0.00  0.00    +0.038 A 
ATOM     14  C   UNL     1      -0.794  -1.016  25.627  0.00  0.00    +0.068 C 
ATOM     15  C   UNL     1      -2.078  -0.989  24.878  0.00  0.00    -0.016 A 
ATOM     17  C   UNL     1      -2.894  -2.048  24.396  0.00  0.00    +0.003 A 
ATOM     18  C   UNL     1      -3.983  -1.458  23.748  0.00  0.00    +0.047 A 
ATOM     23  C   UNL     1      -2.814  -3.455  24.440  0.00  0.00    +0.010 A 
ATOM     24  C   UNL     1      -4.998  -2.208  23.143  0.00  0.00    +0.026 A 
ATOM     26  C   UNL     1      -3.824  -4.216  23.841  0.00  0.00    +0.001 A 
ATOM     29  C   UNL     1      -4.899  -3.601  23.203  0.00  0.00    +0.002 A 
ATOM     34  H   UNL     1      -4.461   0.589  23.441  0.00  0.00    +0.166 HD
ENDROOT
BRANCH   8  16
ATOM     16  C   UNL     1       0.512   2.776  27.342  0.00  0.00    -0.030 A 
ATOM     21  C   UNL     1       0.120   2.381  28.621  0.00  0.00    +0.005 A 
ATOM     22  C   UNL     1       1.835   3.148  27.102  0.00  0.00    +0.005 A 
ATOM     27  C   UNL     1       1.050   2.359  29.661  0.00  0.00    +0.000 A 
ATOM     28  C   UNL     1       2.765   3.126  28.141  0.00  0.00    +0.000 A 
ATOM     30  C   UNL     1       2.372   2.731  29.421  0.00  0.00    +0.000 A 
ENDBRANCH   8  16
BRANCH  12  19
ATOM      2  O   UNL     1       1.189   1.711  24.148  0.00  0.00    -0.249 OA
ATOM     19  C   UNL     1       0.663   0.639  24.418  0.00  0.00    +0.325 C 
BRANCH  19   1
ATOM      1  O   UNL     1       0.692  -0.492  23.658  0.00  0.00    -0.467 OA
ATOM     31  C   UNL     1       1.383  -0.375  22.409  0.00  0.00    +0.280 C 
ENDBRANCH  19   1
ENDBRANCH  12  19
BRANCH  10   5
ATOM      5  N   UNL     1      -3.737   4.852  25.907  0.00  0.00    -0.311 NA
ATOM     33  H   UNL     1      -4.011   4.659  26.871  0.00  0.00    +0.122 HD
BRANCH   5  20
ATOM     20  C   UNL     1      -4.904   4.707  25.050  0.00  0.00    +0.109 C 
BRANCH  20  25
ATOM     25  C   UNL     1      -6.108   4.248  25.857  0.00  0.00    +0.174 C 
BRANCH  25   3
ATOM      3  O   UNL     1      -5.891   2.908  26.280  0.00  0.00    -0.382 OA
ATOM     32  C   UNL     1      -6.383   1.974  25.328  0.00  0.00    +0.194 C 
ENDBRANCH  25   3
ENDBRANCH  20  25
ENDBRANCH   5  20
ENDBRANCH  10   5
TORSDOF 7
ENDMDL
MODEL 2
REMARK VINA RESULT:       5.8      1.969      5.821
REMARK  Name = 25389803
REMARK  9 active torsions:
REMARK  status: ('A' for Active; 'I' for Inactive)
REMARK    1  A    between atoms: O_1  and  C_19
REMARK    2  A    between atoms: O_1  and  C_31
REMARK    3  A    between atoms: O_3  and  C_25
REMARK    4  A    between atoms: O_3  and  C_32
REMARK    5  A    between atoms: N_5  and  C_10
REMARK    6  A    between atoms: N_5  and  C_20
REMARK    7  A    between atoms: C_8  and  C_16
REMARK    8  A    between atoms: C_12  and  C_19
REMARK    9  A    between atoms: C_20  and  C_25
REMARK                            x       y       z     vdW  Elec       q    Type
REMARK                         _______ _______ _______ _____ _____    ______ ____
ROOT
ATOM      4  N   UNL     1      -0.774   1.005  24.375  0.00  0.00    -0.274 NA
ATOM      6  N   UNL     1      -4.145   1.789  25.835  0.00  0.00    -0.356 N 
ATOM      7  C   UNL     1      -1.835   0.772  25.403  0.00  0.00    +0.106 C 
ATOM      8  C   UNL     1       0.326   0.013  24.478  0.00  0.00    +0.090 C 
ATOM      9  C   UNL     1      -2.418  -0.643  25.271  0.00  0.00    +0.044 C 
ATOM     10  C   UNL     1      -1.317  -1.692  25.421  0.00  0.00    +0.057 C 
ATOM     11  C   UNL     1      -0.219  -1.433  24.391  0.00  0.00    +0.042 C 
ATOM     12  C   UNL     1      -0.331   2.424  24.311  0.00  0.00    +0.172 C 
ATOM     13  C   UNL     1      -2.898   1.823  25.276  0.00  0.00    +0.038 A 
ATOM     14  C   UNL     1      -1.483   3.390  23.936  0.00  0.00    +0.068 C 
ATOM     15  C   UNL     1      -2.750   3.030  24.628  0.00  0.00    -0.016 A 
ATOM     17  C   UNL     1      -3.968   3.748  24.766  0.00  0.00    +0.003 A 
ATOM     18  C   UNL     1      -4.827   2.948  25.526  0.00  0.00    +0.047 A 
ATOM     23  C   UNL     1      -4.430   5.005  24.324  0.00  0.00    +0.010 A 
ATOM     24  C   UNL     1      -6.126   3.343  25.864  0.00  0.00    +0.026 A 
ATOM     26  C   UNL     1      -5.728   5.411  24.654  0.00  0.00    +0.001 A 
ATOM     29  C   UNL     1      -6.562   4.592  25.412  0.00  0.00    +0.002 A 
ATOM     34  H   UNL     1      -4.519   1.032  26.390  0.00  0.00    +0.166 HD
ENDROOT
BRANCH   8  16
ATOM     16  C   UNL     1       1.405   0.165  23.409  0.00  0.00    -0.030 A 
ATOM     21  C   UNL     1       2.552   0.912  23.678  0.00  0.00    +0.005 A 
ATOM     22  C   UNL     1       1.245  -0.442  22.164  0.00  0.00    +0.005 A 
ATOM     27  C   UNL     1       3.539   1.051  22.702  0.00  0.00    +0.000 A 
ATOM     28  C   UNL     1       2.231  -0.303  21.188  0.00  0.00    +0.000 A 
ATOM     30  C   UNL     1       3.378   0.444  21.457  0.00  0.00    +0.000 A 
ENDBRANCH   8  16
BRANCH  12  19
ATOM      2  O   UNL     1       0.889   3.899  25.778  0.00  0.00    -0.249 OA
ATOM     19  C   UNL     1       0.313   2.833  25.606  0.00  0.00    +0.325 C 
BRANCH  19   1
ATOM      1  O   UNL     1       0.150   1.843  26.529  0.00  0.00    -0.467 OA
ATOM     31  C   UNL     1       0.536   2.179  27.865  0.00  0.00    +0.280 C 
ENDBRANCH  19   1
ENDBRANCH  12  19
BRANCH  10   5
ATOM      5  N   UNL     1      -1.876  -3.034  25.262  0.00  0.00    -0.311 NA
ATOM     33  H   UNL     1      -1.509  -3.464  24.414  0.00  0.00    +0.122 HD
BRANCH   5  20
ATOM     20  C   UNL     1      -3.327  -2.980  25.170  0.00  0.00    +0.109 C 
BRANCH  20  25
ATOM     25  C   UNL     1      -3.786  -3.268  23.750  0.00  0.00    +0.174 C 
BRANCH  25   3
ATOM      3  O   UNL     1      -4.890  -2.425  23.446  0.00  0.00    -0.382 OA
ATOM     32  C   UNL     1      -4.648  -1.084  23.849  0.00  0.00    +0.194 C 
ENDBRANCH  25   3
ENDBRANCH  20  25
ENDBRANCH   5  20
ENDBRANCH  10   5
TORSDOF 7
ENDMDL
MODEL 3
REMARK VINA RESULT:       6.5      2.960      6.240
REMARK  Name = 25389803
REMARK  9 active torsions:
REMARK  status: ('A' for Active; 'I' for Inactive)
REMARK    1  A    between atoms: O_1  and  C_19
REMARK    2  A    between atoms: O_1  and  C_31
REMARK    3  A    between atoms: O_3  and  C_25
REMARK    4  A    between atoms: O_3  and  C_32
REMARK    5  A    between atoms: N_5  and  C_10
REMARK    6  A    between atoms: N_5  and  C_20
REMARK    7  A    between atoms: C_8  and  C_16
REMARK    8  A    between atoms: C_12  and  C_19
REMARK    9  A    between atoms: C_20  and  C_25
REMARK                            x       y       z     vdW  Elec       q    Type
REMARK                         _______ _______ _______ _____ _____    ______ ____
ROOT
ATOM      4  N   UNL     1      -1.974   1.240  24.479  0.00  0.00    -0.274 NA
ATOM      6  N   UNL     1       1.033  -0.882  23.729  0.00  0.00    -0.356 N 
ATOM      7  C   UNL     1      -1.367  -0.077  24.110  0.00  0.00    +0.106 C 
ATOM      8  C   UNL     1      -3.432   1.125  24.740  0.00  0.00    +0.090 C 
ATOM      9  C   UNL     1      -1.601  -1.113  25.220  0.00  0.00    +0.044 C 
ATOM     10  C   UNL     1      -3.096  -1.291  25.479  0.00  0.00    +0.057 C 
ATOM     11  C   UNL     1      -3.721   0.060  25.824  0.00  0.00    +0.042 C 
ATOM     12  C   UNL     1      -1.590   2.336  23.548  0.00  0.00    +0.172 C 
ATOM     13  C   UNL     1       0.094   0.106  23.821  0.00  0.00    +0.038 A 
ATOM     14  C   UNL     1      -0.061   2.584  23.520  0.00  0.00    +0.068 C 
ATOM     15  C   UNL     1       0.703   1.308  23.533  0.00  0.00    -0.016 A 
ATOM     17  C   UNL     1       2.079   1.048  23.288  0.00  0.00    +0.003 A 
ATOM     18  C   UNL     1       2.260  -0.332  23.419  0.00  0.00    +0.047 A 
ATOM     23  C   UNL     1       3.193   1.849  22.963  0.00  0.00    +0.010 A 
ATOM     24  C   UNL     1       3.503  -0.951  23.240  0.00  0.00    +0.026 A 
ATOM     26  C   UNL     1       4.441   1.243  22.785  0.00  0.00    +0.001 A 
ATOM     29  C   UNL     1       4.593  -0.136  22.922  0.00  0.00    +0.002 A 
ATOM     34  H   UNL     1       0.864  -1.869  23.868  0.00  0.00    +0.166 HD
ENDROOT
BRANCH   8  16
ATOM     16  C   UNL     1      -4.090   2.428  25.184  0.00  0.00    -0.030 A 
ATOM     21  C   UNL     1      -5.479   2.553  25.157  0.00  0.00    +0.005 A 
ATOM     22  C   UNL     1      -3.303   3.495  25.618  0.00  0.00    +0.005 A 
ATOM     27  C   UNL     1      -6.081   3.743  25.563  0.00  0.00    +0.000 A 
ATOM     28  C   UNL     1      -3.905   4.686  26.024  0.00  0.00    +0.000 A 
ATOM     30  C   UNL     1      -5.294   4.810  25.997  0.00  0.00    +0.000 A 
ENDBRANCH   8  16
BRANCH  12  19
ATOM      2  O   UNL     1      -2.032   0.977  21.605  0.00  0.00    -0.249 OA
ATOM     19  C   UNL     1      -2.115   2.061  22.167  0.00  0.00    +0.325 C 
BRANCH  19   1
ATOM      1  O   UNL     1      -2.684   3.193  21.663  0.00  0.00    -0.467 OA
ATOM     31  C   UNL     1      -4.027   3.447  22.087  0.00  0.00    +0.280 C 
ENDBRANCH  19   1
ENDBRANCH  12  19
BRANCH  10   5
ATOM      5  N   UNL     1      -3.308  -2.255  26.558  0.00  0.00    -0.311 NA
ATOM     33  H   UNL     1      -2.574  -2.156  27.260  0.00  0.00    +0.122 HD
BRANCH   5  20
ATOM     20  C   UNL     1      -3.285  -3.616  26.044  0.00  0.00    +0.109 C 
BRANCH  20  25
ATOM     25  C   UNL     1      -3.140  -3.616  24.531  0.00  0.00    +0.174 C 
BRANCH  25   3
ATOM      3  O   UNL     1      -4.430  -3.481  23.948  0.00  0.00    -0.382 OA
ATOM     32  C   UNL     1      -4.547  -2.268  23.217  0.00  0.00    +0.194 C 
ENDBRANCH  25   3
ENDBRANCH  20  25
ENDBRANCH   5  20
ENDBRANCH  10   5
TORSDOF 7
ENDMDL
