MODEL 1
REMARK VINA RESULT:      -3.1      0.000      0.000
REMARK  Name = 45783411
REMARK  9 active torsions:
REMARK  status: ('A' for Active; 'I' for Inactive)
REMARK    1  A    between atoms: O_2  and  C_22
REMARK    2  A    between atoms: O_2  and  C_26
REMARK    3  A    between atoms: O_3  and  C_27
REMARK    4  A    between atoms: O_3  and  C_28
REMARK    5  A    between atoms: N_4  and  C_9
REMARK    6  A    between atoms: C_8  and  C_9
REMARK    7  A    between atoms: C_10  and  C_19
REMARK    8  A    between atoms: C_20  and  C_21
REMARK    9  A    between atoms: C_26  and  C_27
REMARK                            x       y       z     vdW  Elec       q    Type
REMARK                         _______ _______ _______ _____ _____    ______ ____
ROOT
ATOM      1  O   UNL     1      -1.438   1.488  22.643  0.00  0.00    -0.336 OA
ATOM      5  N   UNL     1      -1.949   1.376  24.822  0.00  0.00    -0.190 NA
ATOM      6  N   UNL     1      -2.745   1.978  22.763  0.00  0.00    -0.056 NA
ATOM     19  C   UNL     1      -1.044   1.157  23.901  0.00  0.00    +0.245 A 
ATOM     20  C   UNL     1      -2.975   1.880  24.076  0.00  0.00    +0.207 A 
ENDROOT
BRANCH  20  21
ATOM      7  N   UNL     1      -5.628   4.008  25.600  0.00  0.00    -0.221 NA
ATOM     21  C   UNL     1      -4.217   2.276  24.674  0.00  0.00    +0.084 A 
ATOM     22  C   UNL     1      -4.473   3.589  25.034  0.00  0.00    +0.226 A 
ATOM     23  C   UNL     1      -5.209   1.332  24.908  0.00  0.00    +0.018 A 
ATOM     24  C   UNL     1      -6.411   1.723  25.488  0.00  0.00    +0.021 A 
ATOM     25  C   UNL     1      -6.570   3.061  25.812  0.00  0.00    +0.114 A 
BRANCH  22   2
ATOM      2  O   UNL     1      -3.525   4.557  24.824  0.00  0.00    -0.474 OA
BRANCH   2  26
ATOM     26  C   UNL     1      -2.454   4.616  25.758  0.00  0.00    +0.258 C 
BRANCH  26  27
ATOM     27  C   UNL     1      -1.226   5.178  25.067  0.00  0.00    +0.200 C 
BRANCH  27   3
ATOM      3  O   UNL     1      -0.230   4.166  24.994  0.00  0.00    -0.380 OA
ATOM     28  C   UNL     1      -0.198   3.379  26.176  0.00  0.00    +0.194 C 
ENDBRANCH  27   3
ENDBRANCH  26  27
ENDBRANCH   2  26
ENDBRANCH  22   2
ENDBRANCH  20  21
BRANCH  19  10
ATOM      4  N   UNL     1       0.388  -0.878  23.937  0.00  0.00    -0.291 NA
ATOM     10  C   UNL     1       0.354   0.595  24.043  0.00  0.00    +0.146 C 
ATOM     13  C   UNL     1       1.701  -1.223  23.391  0.00  0.00    +0.085 C 
ATOM     14  C   UNL     1       1.308   1.088  22.939  0.00  0.00    +0.030 C 
ATOM     15  C   UNL     1       1.875  -0.177  22.309  0.00  0.00    +0.017 C 
BRANCH   4   9
ATOM      9  C   UNL     1       0.127  -1.550  25.204  0.00  0.00    +0.088 C 
BRANCH   9   8
ATOM      8  C   UNL     1      -1.299  -2.097  25.245  0.00  0.00    +0.003 C 
ATOM     11  C   UNL     1      -2.234  -1.121  25.972  0.00  0.00    +0.005 C 
ATOM     12  C   UNL     1      -1.809  -2.386  23.826  0.00  0.00    +0.005 C 
ATOM     16  C   UNL     1      -3.676  -1.621  25.979  0.00  0.00    +0.000 C 
ATOM     17  C   UNL     1      -3.253  -2.884  23.838  0.00  0.00    +0.000 C 
ATOM     18  C   UNL     1      -4.176  -1.916  24.569  0.00  0.00    +0.000 C 
ENDBRANCH   9   8
ENDBRANCH   4   9
ENDBRANCH  19  10
TORSDOF 8
ENDMDL
MODEL 2
REMARK VINA RESULT:      -2.8      1.330      5.194
REMARK  Name = 45783411
REMARK  9 active torsions:
REMARK  status: ('A' for Active; 'I' for Inactive)
REMARK    1  A    between atoms: O_2  and  C_22
REMARK    2  A    between atoms: O_2  and  C_26
REMARK    3  A    between atoms: O_3  and  C_27
REMARK    4  A    between atoms: O_3  and  C_28
REMARK    5  A    between atoms: N_4  and  C_9
REMARK    6  A    between atoms: C_8  and  C_9
REMARK    7  A    between atoms: C_10  and  C_19
REMARK    8  A    between atoms: C_20  and  C_21
REMARK    9  A    between atoms: C_26  and  C_27
REMARK                            x       y       z     vdW  Elec       q    Type
REMARK                         _______ _______ _______ _____ _____    ______ ____
ROOT
ATOM      1  O   UNL     1      -3.130   2.353  22.100  0.00  0.00    -0.336 OA
ATOM      5  N   UNL     1      -2.146   1.448  23.898  0.00  0.00    -0.190 NA
ATOM      6  N   UNL     1      -1.834   2.003  21.700  0.00  0.00    -0.056 NA
ATOM     19  C   UNL     1      -3.231   1.992  23.407  0.00  0.00    +0.245 A 
ATOM     20  C   UNL     1      -1.317   1.476  22.814  0.00  0.00    +0.207 A 
ENDROOT
BRANCH  20  21
ATOM      7  N   UNL     1       2.270   1.117  23.761  0.00  0.00    -0.221 NA
ATOM     21  C   UNL     1       0.024   0.969  22.878  0.00  0.00    +0.084 A 
ATOM     22  C   UNL     1       0.995   1.560  23.670  0.00  0.00    +0.226 A 
ATOM     23  C   UNL     1       0.383  -0.147  22.131  0.00  0.00    +0.018 A 
ATOM     24  C   UNL     1       1.684  -0.632  22.198  0.00  0.00    +0.021 A 
ATOM     25  C   UNL     1       2.582   0.029  23.020  0.00  0.00    +0.114 A 
BRANCH  22   2
ATOM      2  O   UNL     1       0.690   2.662  24.425  0.00  0.00    -0.474 OA
BRANCH   2  26
ATOM     26  C   UNL     1       0.155   2.422  25.721  0.00  0.00    +0.258 C 
BRANCH  26  27
ATOM     27  C   UNL     1      -0.954   3.422  25.991  0.00  0.00    +0.200 C 
BRANCH  27   3
ATOM      3  O   UNL     1      -1.010   4.355  24.920  0.00  0.00    -0.380 OA
ATOM     28  C   UNL     1      -1.792   5.491  25.259  0.00  0.00    +0.194 C 
ENDBRANCH  27   3
ENDBRANCH  26  27
ENDBRANCH   2  26
ENDBRANCH  22   2
ENDBRANCH  20  21
BRANCH  19  10
ATOM      4  N   UNL     1      -4.736   1.487  25.323  0.00  0.00    -0.291 NA
ATOM     10  C   UNL     1      -4.557   2.268  24.082  0.00  0.00    +0.146 C 
ATOM     13  C   UNL     1      -5.597   2.286  26.195  0.00  0.00    +0.085 C 
ATOM     14  C   UNL     1      -4.707   3.737  24.520  0.00  0.00    +0.030 C 
ATOM     15  C   UNL     1      -5.028   3.678  26.007  0.00  0.00    +0.017 C 
BRANCH   4   9
ATOM      9  C   UNL     1      -5.277   0.154  25.089  0.00  0.00    +0.088 C 
BRANCH   9   8
ATOM      8  C   UNL     1      -4.207  -0.914  25.312  0.00  0.00    +0.003 C 
ATOM     11  C   UNL     1      -3.960  -1.710  24.023  0.00  0.00    +0.005 C 
ATOM     12  C   UNL     1      -2.906  -0.279  25.820  0.00  0.00    +0.005 C 
ATOM     16  C   UNL     1      -2.856  -2.748  24.205  0.00  0.00    +0.000 C 
ATOM     17  C   UNL     1      -1.804  -1.321  25.999  0.00  0.00    +0.000 C 
ATOM     18  C   UNL     1      -1.567  -2.115  24.719  0.00  0.00    +0.000 C 
ENDBRANCH   9   8
ENDBRANCH   4   9
ENDBRANCH  19  10
TORSDOF 8
ENDMDL
MODEL 3
REMARK VINA RESULT:      -2.6      1.823      6.091
REMARK  Name = 45783411
REMARK  9 active torsions:
REMARK  status: ('A' for Active; 'I' for Inactive)
REMARK    1  A    between atoms: O_2  and  C_22
REMARK    2  A    between atoms: O_2  and  C_26
REMARK    3  A    between atoms: O_3  and  C_27
REMARK    4  A    between atoms: O_3  and  C_28
REMARK    5  A    between atoms: N_4  and  C_9
REMARK    6  A    between atoms: C_8  and  C_9
REMARK    7  A    between atoms: C_10  and  C_19
REMARK    8  A    between atoms: C_20  and  C_21
REMARK    9  A    between atoms: C_26  and  C_27
REMARK                            x       y       z     vdW  Elec       q    Type
REMARK                         _______ _______ _______ _____ _____    ______ ____
ROOT
ATOM      1  O   UNL     1      -0.579   2.967  25.772  0.00  0.00    -0.336 OA
ATOM      5  N   UNL     1      -0.754   2.261  23.653  0.00  0.00    -0.190 NA
ATOM      6  N   UNL     1       0.640   2.352  25.464  0.00  0.00    -0.056 NA
ATOM     19  C   UNL     1      -1.343   2.870  24.651  0.00  0.00    +0.245 A 
ATOM     20  C   UNL     1       0.460   1.961  24.198  0.00  0.00    +0.207 A 
ENDROOT
BRANCH  20  21
ATOM      7  N   UNL     1       2.115  -0.563  22.012  0.00  0.00    -0.221 NA
ATOM     21  C   UNL     1       1.471   1.270  23.452  0.00  0.00    +0.084 A 
ATOM     22  C   UNL     1       1.194   0.121  22.730  0.00  0.00    +0.226 A 
ATOM     23  C   UNL     1       2.776   1.750  23.439  0.00  0.00    +0.018 A 
ATOM     24  C   UNL     1       3.751   1.075  22.713  0.00  0.00    +0.021 A 
ATOM     25  C   UNL     1       3.374  -0.066  22.023  0.00  0.00    +0.114 A 
BRANCH  22   2
ATOM      2  O   UNL     1      -0.077  -0.391  22.712  0.00  0.00    -0.474 OA
BRANCH   2  26
ATOM     26  C   UNL     1      -0.362  -1.425  23.647  0.00  0.00    +0.258 C 
BRANCH  26  27
ATOM     27  C   UNL     1      -0.572  -0.810  25.017  0.00  0.00    +0.200 C 
BRANCH  27   3
ATOM      3  O   UNL     1      -0.231  -1.767  26.013  0.00  0.00    -0.380 OA
ATOM     28  C   UNL     1       0.477  -2.866  25.459  0.00  0.00    +0.194 C 
ENDBRANCH  27   3
ENDBRANCH  26  27
ENDBRANCH   2  26
ENDBRANCH  22   2
ENDBRANCH  20  21
BRANCH  19  10
ATOM      4  N   UNL     1      -3.745   2.499  25.182  0.00  0.00    -0.291 NA
ATOM     10  C   UNL     1      -2.731   3.470  24.727  0.00  0.00    +0.146 C 
ATOM     13  C   UNL     1      -4.780   3.272  25.869  0.00  0.00    +0.085 C 
ATOM     14  C   UNL     1      -2.822   4.631  25.735  0.00  0.00    +0.030 C 
ATOM     15  C   UNL     1      -3.954   4.250  26.678  0.00  0.00    +0.017 C 
BRANCH   4   9
ATOM      9  C   UNL     1      -4.292   1.690  24.099  0.00  0.00    +0.088 C 
BRANCH   9   8
ATOM      8  C   UNL     1      -4.470   0.238  24.540  0.00  0.00    +0.003 C 
ATOM     11  C   UNL     1      -4.148  -0.721  23.386  0.00  0.00    +0.005 C 
ATOM     12  C   UNL     1      -3.595  -0.066  25.763  0.00  0.00    +0.005 C 
ATOM     16  C   UNL     1      -4.266  -2.181  23.817  0.00  0.00    +0.000 C 
ATOM     17  C   UNL     1      -3.715  -1.528  26.191  0.00  0.00    +0.000 C 
ATOM     18  C   UNL     1      -3.403  -2.478  25.039  0.00  0.00    +0.000 C 
ENDBRANCH   9   8
ENDBRANCH   4   9
ENDBRANCH  19  10
TORSDOF 8
ENDMDL
MODEL 4
REMARK VINA RESULT:      -1.9      1.849      5.826
REMARK  Name = 45783411
REMARK  9 active torsions:
REMARK  status: ('A' for Active; 'I' for Inactive)
REMARK    1  A    between atoms: O_2  and  C_22
REMARK    2  A    between atoms: O_2  and  C_26
REMARK    3  A    between atoms: O_3  and  C_27
REMARK    4  A    between atoms: O_3  and  C_28
REMARK    5  A    between atoms: N_4  and  C_9
REMARK    6  A    between atoms: C_8  and  C_9
REMARK    7  A    between atoms: C_10  and  C_19
REMARK    8  A    between atoms: C_20  and  C_21
REMARK    9  A    between atoms: C_26  and  C_27
REMARK                            x       y       z     vdW  Elec       q    Type
REMARK                         _______ _______ _______ _____ _____    ______ ____
ROOT
ATOM      1  O   UNL     1      -0.746  -2.613  25.497  0.00  0.00    -0.336 OA
ATOM      5  N   UNL     1      -1.045  -0.901  24.083  0.00  0.00    -0.190 NA
ATOM      6  N   UNL     1       0.532  -2.118  25.208  0.00  0.00    -0.056 NA
ATOM     19  C   UNL     1      -1.616  -1.840  24.794  0.00  0.00    +0.245 A 
ATOM     20  C   UNL     1       0.273  -1.110  24.369  0.00  0.00    +0.207 A 
ENDROOT
BRANCH  20  21
ATOM      7  N   UNL     1       2.161   1.893  23.226  0.00  0.00    -0.221 NA
ATOM     21  C   UNL     1       1.306  -0.296  23.798  0.00  0.00    +0.084 A 
ATOM     22  C   UNL     1       1.212   1.086  23.754  0.00  0.00    +0.226 A 
ATOM     23  C   UNL     1       2.447  -0.888  23.269  0.00  0.00    +0.018 A 
ATOM     24  C   UNL     1       3.445  -0.092  22.718  0.00  0.00    +0.021 A 
ATOM     25  C   UNL     1       3.256   1.281  22.721  0.00  0.00    +0.114 A 
BRANCH  22   2
ATOM      2  O   UNL     1       0.106   1.717  24.263  0.00  0.00    -0.474 OA
BRANCH   2  26
ATOM     26  C   UNL     1       0.168   2.112  25.628  0.00  0.00    +0.258 C 
BRANCH  26  27
ATOM     27  C   UNL     1      -0.777   3.277  25.849  0.00  0.00    +0.200 C 
BRANCH  27   3
ATOM      3  O   UNL     1      -0.547   4.260  24.847  0.00  0.00    -0.380 OA
ATOM     28  C   UNL     1      -1.362   5.406  25.043  0.00  0.00    +0.194 C 
ENDBRANCH  27   3
ENDBRANCH  26  27
ENDBRANCH   2  26
ENDBRANCH  22   2
ENDBRANCH  20  21
BRANCH  19  10
ATOM      4  N   UNL     1      -3.966  -1.087  24.473  0.00  0.00    -0.291 NA
ATOM     10  C   UNL     1      -3.085  -2.176  24.939  0.00  0.00    +0.146 C 
ATOM     13  C   UNL     1      -5.196  -1.721  24.000  0.00  0.00    +0.085 C 
ATOM     14  C   UNL     1      -3.500  -3.400  24.100  0.00  0.00    +0.030 C 
ATOM     15  C   UNL     1      -4.658  -2.916  23.238  0.00  0.00    +0.017 C 
BRANCH   4   9
ATOM      9  C   UNL     1      -4.226  -0.082  25.497  0.00  0.00    +0.088 C 
BRANCH   9   8
ATOM      8  C   UNL     1      -3.790   1.304  25.022  0.00  0.00    +0.003 C 
ATOM     11  C   UNL     1      -3.460   1.284  23.523  0.00  0.00    +0.005 C 
ATOM     12  C   UNL     1      -4.873   2.346  25.329  0.00  0.00    +0.005 C 
ATOM     16  C   UNL     1      -3.073   2.670  23.013  0.00  0.00    +0.000 C 
ATOM     17  C   UNL     1      -4.483   3.731  24.815  0.00  0.00    +0.000 C 
ATOM     18  C   UNL     1      -4.147   3.706  23.328  0.00  0.00    +0.000 C 
ENDBRANCH   9   8
ENDBRANCH   4   9
ENDBRANCH  19  10
TORSDOF 8
ENDMDL
MODEL 5
REMARK VINA RESULT:      -1.5      1.793      5.595
REMARK  Name = 45783411
REMARK  9 active torsions:
REMARK  status: ('A' for Active; 'I' for Inactive)
REMARK    1  A    between atoms: O_2  and  C_22
REMARK    2  A    between atoms: O_2  and  C_26
REMARK    3  A    between atoms: O_3  and  C_27
REMARK    4  A    between atoms: O_3  and  C_28
REMARK    5  A    between atoms: N_4  and  C_9
REMARK    6  A    between atoms: C_8  and  C_9
REMARK    7  A    between atoms: C_10  and  C_19
REMARK    8  A    between atoms: C_20  and  C_21
REMARK    9  A    between atoms: C_26  and  C_27
REMARK                            x       y       z     vdW  Elec       q    Type
REMARK                         _______ _______ _______ _____ _____    ______ ____
ROOT
ATOM      1  O   UNL     1      -0.811   2.305  25.798  0.00  0.00    -0.336 OA
ATOM      5  N   UNL     1      -2.010   1.456  24.106  0.00  0.00    -0.190 NA
ATOM      6  N   UNL     1      -0.891   0.926  26.029  0.00  0.00    -0.056 NA
ATOM     19  C   UNL     1      -1.496   2.533  24.646  0.00  0.00    +0.245 A 
ATOM     20  C   UNL     1      -1.612   0.496  24.989  0.00  0.00    +0.207 A 
ENDROOT
BRANCH  20  21
ATOM      7  N   UNL     1      -1.309  -3.125  24.160  0.00  0.00    -0.221 NA
ATOM     21  C   UNL     1      -1.953  -0.885  24.805  0.00  0.00    +0.084 A 
ATOM     22  C   UNL     1      -1.032  -1.815  24.349  0.00  0.00    +0.226 A 
ATOM     23  C   UNL     1      -3.240  -1.328  25.086  0.00  0.00    +0.018 A 
ATOM     24  C   UNL     1      -3.563  -2.668  24.906  0.00  0.00    +0.021 A 
ATOM     25  C   UNL     1      -2.571  -3.519  24.445  0.00  0.00    +0.114 A 
BRANCH  22   2
ATOM      2  O   UNL     1       0.250  -1.426  24.057  0.00  0.00    -0.474 OA
BRANCH   2  26
ATOM     26  C   UNL     1       0.423  -0.607  22.907  0.00  0.00    +0.258 C 
BRANCH  26  27
ATOM     27  C   UNL     1       1.535   0.390  23.173  0.00  0.00    +0.200 C 
BRANCH  27   3
ATOM      3  O   UNL     1       2.622   0.118  22.297  0.00  0.00    -0.380 OA
ATOM     28  C   UNL     1       3.806   0.784  22.713  0.00  0.00    +0.194 C 
ENDBRANCH  27   3
ENDBRANCH  26  27
ENDBRANCH   2  26
ENDBRANCH  22   2
ENDBRANCH  20  21
BRANCH  19  10
ATOM      4  N   UNL     1      -2.364   4.827  25.063  0.00  0.00    -0.291 NA
ATOM     10  C   UNL     1      -1.558   3.969  24.171  0.00  0.00    +0.146 C 
ATOM     13  C   UNL     1      -1.806   6.175  24.956  0.00  0.00    +0.085 C 
ATOM     14  C   UNL     1      -0.173   4.642  24.129  0.00  0.00    +0.030 C 
ATOM     15  C   UNL     1      -0.316   5.899  24.975  0.00  0.00    +0.017 C 
BRANCH   4   9
ATOM      9  C   UNL     1      -3.789   4.797  24.755  0.00  0.00    +0.088 C 
BRANCH   9   8
ATOM      8  C   UNL     1      -4.409   3.467  25.180  0.00  0.00    +0.003 C 
ATOM     11  C   UNL     1      -5.690   3.702  25.993  0.00  0.00    +0.005 C 
ATOM     12  C   UNL     1      -4.694   2.586  23.956  0.00  0.00    +0.005 C 
ATOM     16  C   UNL     1      -6.358   2.387  26.385  0.00  0.00    +0.000 C 
ATOM     17  C   UNL     1      -5.364   1.272  24.352  0.00  0.00    +0.000 C 
ATOM     18  C   UNL     1      -6.631   1.510  25.167  0.00  0.00    +0.000 C 
ENDBRANCH   9   8
ENDBRANCH   4   9
ENDBRANCH  19  10
TORSDOF 8
ENDMDL
MODEL 6
REMARK VINA RESULT:      -1.2      1.497      3.930
REMARK  Name = 45783411
REMARK  9 active torsions:
REMARK  status: ('A' for Active; 'I' for Inactive)
REMARK    1  A    between atoms: O_2  and  C_22
REMARK    2  A    between atoms: O_2  and  C_26
REMARK    3  A    between atoms: O_3  and  C_27
REMARK    4  A    between atoms: O_3  and  C_28
REMARK    5  A    between atoms: N_4  and  C_9
REMARK    6  A    between atoms: C_8  and  C_9
REMARK    7  A    between atoms: C_10  and  C_19
REMARK    8  A    between atoms: C_20  and  C_21
REMARK    9  A    between atoms: C_26  and  C_27
REMARK                            x       y       z     vdW  Elec       q    Type
REMARK                         _______ _______ _______ _____ _____    ______ ____
ROOT
ATOM      1  O   UNL     1      -1.608   1.042  22.757  0.00  0.00    -0.336 OA
ATOM      5  N   UNL     1      -2.790   0.419  24.556  0.00  0.00    -0.190 NA
ATOM      6  N   UNL     1      -2.535   2.066  22.988  0.00  0.00    -0.056 NA
ATOM     19  C   UNL     1      -1.826   0.112  23.724  0.00  0.00    +0.245 A 
ATOM     20  C   UNL     1      -3.195   1.626  24.064  0.00  0.00    +0.207 A 
ENDROOT
BRANCH  20  21
ATOM      7  N   UNL     1      -5.145   4.466  25.487  0.00  0.00    -0.221 NA
ATOM     21  C   UNL     1      -4.262   2.367  24.672  0.00  0.00    +0.084 A 
ATOM     22  C   UNL     1      -4.165   3.727  24.917  0.00  0.00    +0.226 A 
ATOM     23  C   UNL     1      -5.439   1.723  25.033  0.00  0.00    +0.018 A 
ATOM     24  C   UNL     1      -6.470   2.447  25.621  0.00  0.00    +0.021 A 
ATOM     25  C   UNL     1      -6.275   3.804  25.825  0.00  0.00    +0.114 A 
BRANCH  22   2
ATOM      2  O   UNL     1      -3.024   4.407  24.579  0.00  0.00    -0.474 OA
BRANCH   2  26
ATOM     26  C   UNL     1      -2.026   4.522  25.587  0.00  0.00    +0.258 C 
BRANCH  26  27
ATOM     27  C   UNL     1      -0.666   4.255  24.970  0.00  0.00    +0.200 C 
BRANCH  27   3
ATOM      3  O   UNL     1       0.135   3.539  25.902  0.00  0.00    -0.380 OA
ATOM     28  C   UNL     1      -0.388   2.242  26.151  0.00  0.00    +0.194 C 
ENDBRANCH  27   3
ENDBRANCH  26  27
ENDBRANCH   2  26
ENDBRANCH  22   2
ENDBRANCH  20  21
BRANCH  19  10
ATOM      4  N   UNL     1       0.447  -0.822  24.116  0.00  0.00    -0.291 NA
ATOM     10  C   UNL     1      -0.937  -1.113  23.694  0.00  0.00    +0.146 C 
ATOM     13  C   UNL     1       0.967  -2.052  24.712  0.00  0.00    +0.085 C 
ATOM     14  C   UNL     1      -1.414  -2.217  24.657  0.00  0.00    +0.030 C 
ATOM     15  C   UNL     1      -0.212  -2.521  25.540  0.00  0.00    +0.017 C 
BRANCH   4   9
ATOM      9  C   UNL     1       1.289  -0.341  23.027  0.00  0.00    +0.088 C 
BRANCH   9   8
ATOM      8  C   UNL     1       2.711  -0.072  23.517  0.00  0.00    +0.003 C 
ATOM     11  C   UNL     1       3.518  -1.376  23.584  0.00  0.00    +0.005 C 
ATOM     12  C   UNL     1       3.409   0.956  22.616  0.00  0.00    +0.005 C 
ATOM     16  C   UNL     1       4.959  -1.126  24.020  0.00  0.00    +0.000 C 
ATOM     17  C   UNL     1       4.851   1.202  23.055  0.00  0.00    +0.000 C 
ATOM     18  C   UNL     1       5.646  -0.097  23.128  0.00  0.00    +0.000 C 
ENDBRANCH   9   8
ENDBRANCH   4   9
ENDBRANCH  19  10
TORSDOF 8
ENDMDL
MODEL 7
REMARK VINA RESULT:       0.3      1.495      3.101
REMARK  Name = 45783411
REMARK  9 active torsions:
REMARK  status: ('A' for Active; 'I' for Inactive)
REMARK    1  A    between atoms: O_2  and  C_22
REMARK    2  A    between atoms: O_2  and  C_26
REMARK    3  A    between atoms: O_3  and  C_27
REMARK    4  A    between atoms: O_3  and  C_28
REMARK    5  A    between atoms: N_4  and  C_9
REMARK    6  A    between atoms: C_8  and  C_9
REMARK    7  A    between atoms: C_10  and  C_19
REMARK    8  A    between atoms: C_20  and  C_21
REMARK    9  A    between atoms: C_26  and  C_27
REMARK                            x       y       z     vdW  Elec       q    Type
REMARK                         _______ _______ _______ _____ _____    ______ ____
ROOT
ATOM      1  O   UNL     1       0.885   2.271  25.802  0.00  0.00    -0.336 OA
ATOM      5  N   UNL     1      -0.719   1.935  24.275  0.00  0.00    -0.190 NA
ATOM      6  N   UNL     1      -0.177   3.110  26.161  0.00  0.00    -0.056 NA
ATOM     19  C   UNL     1       0.484   1.615  24.681  0.00  0.00    +0.245 A 
ATOM     20  C   UNL     1      -1.085   2.855  25.213  0.00  0.00    +0.207 A 
ENDROOT
BRANCH  20  21
ATOM      7  N   UNL     1      -4.551   3.744  24.173  0.00  0.00    -0.221 NA
ATOM     21  C   UNL     1      -2.364   3.502  25.176  0.00  0.00    +0.084 A 
ATOM     22  C   UNL     1      -3.333   3.162  24.245  0.00  0.00    +0.226 A 
ATOM     23  C   UNL     1      -2.665   4.504  26.092  0.00  0.00    +0.018 A 
ATOM     24  C   UNL     1      -3.907   5.126  26.050  0.00  0.00    +0.021 A 
ATOM     25  C   UNL     1      -4.808   4.714  25.080  0.00  0.00    +0.114 A 
BRANCH  22   2
ATOM      2  O   UNL     1      -3.083   2.181  23.321  0.00  0.00    -0.474 OA
BRANCH   2  26
ATOM     26  C   UNL     1      -3.602   0.887  23.607  0.00  0.00    +0.258 C 
BRANCH  26  27
ATOM     27  C   UNL     1      -5.023   1.025  24.119  0.00  0.00    +0.200 C 
BRANCH  27   3
ATOM      3  O   UNL     1      -5.033   0.812  25.525  0.00  0.00    -0.380 OA
ATOM     28  C   UNL     1      -6.097   1.513  26.151  0.00  0.00    +0.194 C 
ENDBRANCH  27   3
ENDBRANCH  26  27
ENDBRANCH   2  26
ENDBRANCH  22   2
ENDBRANCH  20  21
BRANCH  19  10
ATOM      4  N   UNL     1       0.810  -0.418  23.285  0.00  0.00    -0.291 NA
ATOM     10  C   UNL     1       1.470   0.633  24.085  0.00  0.00    +0.146 C 
ATOM     13  C   UNL     1       1.770  -0.818  22.256  0.00  0.00    +0.085 C 
ATOM     14  C   UNL     1       2.460   1.300  23.113  0.00  0.00    +0.030 C 
ATOM     15  C   UNL     1       2.330   0.519  21.814  0.00  0.00    +0.017 C 
BRANCH   4   9
ATOM      9  C   UNL     1       0.360  -1.551  24.085  0.00  0.00    +0.088 C 
BRANCH   9   8
ATOM      8  C   UNL     1      -1.126  -1.425  24.418  0.00  0.00    +0.003 C 
ATOM     11  C   UNL     1      -1.885  -2.691  23.997  0.00  0.00    +0.005 C 
ATOM     12  C   UNL     1      -1.323  -1.142  25.913  0.00  0.00    +0.005 C 
ATOM     16  C   UNL     1      -3.364  -2.611  24.368  0.00  0.00    +0.000 C 
ATOM     17  C   UNL     1      -2.804  -1.065  26.281  0.00  0.00    +0.000 C 
ATOM     18  C   UNL     1      -3.556  -2.320  25.853  0.00  0.00    +0.000 C 
ENDBRANCH   9   8
ENDBRANCH   4   9
ENDBRANCH  19  10
TORSDOF 8
ENDMDL
MODEL 8
REMARK VINA RESULT:       0.7      1.800      6.243
REMARK  Name = 45783411
REMARK  9 active torsions:
REMARK  status: ('A' for Active; 'I' for Inactive)
REMARK    1  A    between atoms: O_2  and  C_22
REMARK    2  A    between atoms: O_2  and  C_26
REMARK    3  A    between atoms: O_3  and  C_27
REMARK    4  A    between atoms: O_3  and  C_28
REMARK    5  A    between atoms: N_4  and  C_9
REMARK    6  A    between atoms: C_8  and  C_9
REMARK    7  A    between atoms: C_10  and  C_19
REMARK    8  A    between atoms: C_20  and  C_21
REMARK    9  A    between atoms: C_26  and  C_27
REMARK                            x       y       z     vdW  Elec       q    Type
REMARK                         _______ _______ _______ _____ _____    ______ ____
ROOT
ATOM      1  O   UNL     1      -0.337   2.802  26.333  0.00  0.00    -0.336 OA
ATOM      5  N   UNL     1      -0.521   2.688  24.103  0.00  0.00    -0.190 NA
ATOM      6  N   UNL     1       0.707   1.977  25.897  0.00  0.00    -0.056 NA
ATOM     19  C   UNL     1      -1.011   3.178  25.214  0.00  0.00    +0.245 A 
ATOM     20  C   UNL     1       0.532   1.958  24.572  0.00  0.00    +0.207 A 
ENDROOT
BRANCH  20  21
ATOM      7  N   UNL     1       1.790  -0.730  22.317  0.00  0.00    -0.221 NA
ATOM     21  C   UNL     1       1.390   1.220  23.690  0.00  0.00    +0.084 A 
ATOM     22  C   UNL     1       1.015  -0.000  23.152  0.00  0.00    +0.226 A 
ATOM     23  C   UNL     1       2.640   1.725  23.351  0.00  0.00    +0.018 A 
ATOM     24  C   UNL     1       3.465   1.004  22.495  0.00  0.00    +0.021 A 
ATOM     25  C   UNL     1       2.999  -0.207  22.010  0.00  0.00    +0.114 A 
BRANCH  22   2
ATOM      2  O   UNL     1      -0.208  -0.540  23.457  0.00  0.00    -0.474 OA
BRANCH   2  26
ATOM     26  C   UNL     1      -0.235  -1.515  24.493  0.00  0.00    +0.258 C 
BRANCH  26  27
ATOM     27  C   UNL     1      -0.826  -0.891  25.743  0.00  0.00    +0.200 C 
BRANCH  27   3
ATOM      3  O   UNL     1      -2.202  -1.240  25.831  0.00  0.00    -0.380 OA
ATOM     28  C   UNL     1      -2.419  -2.598  25.478  0.00  0.00    +0.194 C 
ENDBRANCH  27   3
ENDBRANCH  26  27
ENDBRANCH   2  26
ENDBRANCH  22   2
ENDBRANCH  20  21
BRANCH  19  10
ATOM      4  N   UNL     1      -3.490   3.381  25.268  0.00  0.00    -0.291 NA
ATOM     10  C   UNL     1      -2.203   4.089  25.419  0.00  0.00    +0.146 C 
ATOM     13  C   UNL     1      -4.448   4.078  26.127  0.00  0.00    +0.085 C 
ATOM     14  C   UNL     1      -2.252   4.693  26.834  0.00  0.00    +0.030 C 
ATOM     15  C   UNL     1      -3.627   4.325  27.376  0.00  0.00    +0.017 C 
BRANCH   4   9
ATOM      9  C   UNL     1      -3.946   3.307  23.886  0.00  0.00    +0.088 C 
BRANCH   9   8
ATOM      8  C   UNL     1      -4.327   1.874  23.515  0.00  0.00    +0.003 C 
ATOM     11  C   UNL     1      -3.098   1.096  23.025  0.00  0.00    +0.005 C 
ATOM     12  C   UNL     1      -4.984   1.164  24.706  0.00  0.00    +0.005 C 
ATOM     16  C   UNL     1      -3.443  -0.355  22.699  0.00  0.00    +0.000 C 
ATOM     17  C   UNL     1      -5.325  -0.288  24.377  0.00  0.00    +0.000 C 
ATOM     18  C   UNL     1      -4.104  -1.055  23.881  0.00  0.00    +0.000 C 
ENDBRANCH   9   8
ENDBRANCH   4   9
ENDBRANCH  19  10
TORSDOF 8
ENDMDL
