MODEL 1
REMARK VINA RESULT:       6.6      0.000      0.000
REMARK  Name = 25390800
REMARK  5 active torsions:
REMARK  status: ('A' for Active; 'I' for Inactive)
REMARK    1  A    between atoms: N_5  and  C_11
REMARK    2  A    between atoms: N_6  and  C_12
REMARK    3  A    between atoms: C_16  and  C_17
REMARK    4  A    between atoms: C_18  and  C_22
REMARK    5  A    between atoms: C_27  and  C_30
REMARK                            x       y       z     vdW  Elec       q    Type
REMARK                         _______ _______ _______ _____ _____    ______ ____
ROOT
ATOM      5  N   UNL     1      -4.875   0.821  24.231  0.00  0.00    -0.306 N 
ATOM      7  N   UNL     1      -2.760  -0.138  24.169  0.00  0.00    -0.214 NA
ATOM      8  N   UNL     1      -4.720  -1.462  24.631  0.00  0.00    -0.223 NA
ATOM     15  C   UNL     1      -4.084  -0.309  24.347  0.00  0.00    +0.216 A 
ATOM     18  C   UNL     1      -2.019  -1.258  24.294  0.00  0.00    +0.076 A 
ATOM     20  C   UNL     1      -3.919  -2.541  24.742  0.00  0.00    +0.116 A 
ATOM     21  C   UNL     1      -2.549  -2.499  24.582  0.00  0.00    +0.048 A 
ATOM     36  H   UNL     1      -5.865   0.708  24.416  0.00  0.00    +0.149 HD
ENDROOT
BRANCH   5  11
ATOM      1  O   UNL     1      -5.080   3.531  25.711  0.00  0.00    -0.370 OA
ATOM      2  O   UNL     1      -2.342   3.449  24.216  0.00  0.00    -0.370 OA
ATOM      9  C   UNL     1      -3.167   2.437  24.815  0.00  0.00    +0.171 C 
ATOM     10  C   UNL     1      -3.779   3.036  26.066  0.00  0.00    +0.171 C 
ATOM     11  C   UNL     1      -4.354   2.136  23.930  0.00  0.00    +0.130 C 
ATOM     12  C   UNL     1      -2.856   4.181  26.414  0.00  0.00    +0.130 C 
ATOM     13  C   UNL     1      -5.353   3.204  24.340  0.00  0.00    +0.185 C 
ATOM     14  C   UNL     1      -2.352   4.618  25.050  0.00  0.00    +0.185 C 
BRANCH  12   6
ATOM      3  O   UNL     1      -0.284   3.240  25.551  0.00  0.00    -0.267 OA
ATOM      6  N   UNL     1      -1.772   3.741  27.258  0.00  0.00    -0.301 N 
ATOM     16  C   UNL     1      -0.560   3.301  26.746  0.00  0.00    +0.280 C 
ATOM     37  H   UNL     1      -1.922   3.707  28.263  0.00  0.00    +0.150 HD
BRANCH  16  17
ATOM      4  O   UNL     1       1.759   3.034  27.449  0.00  0.00    -0.458 OA
ATOM     17  C   UNL     1       0.444   2.855  27.746  0.00  0.00    +0.189 A 
ATOM     19  C   UNL     1       0.303   2.267  28.981  0.00  0.00    +0.054 A 
ATOM     23  C   UNL     1       1.615   2.071  29.476  0.00  0.00    +0.042 A 
ATOM     24  C   UNL     1       2.464   2.554  28.507  0.00  0.00    +0.196 A 
ENDBRANCH  16  17
ENDBRANCH  12   6
ENDBRANCH   5  11
BRANCH  18  22
ATOM     22  C   UNL     1      -0.600  -1.079  24.104  0.00  0.00    +0.001 A 
ATOM     25  C   UNL     1       0.302  -1.927  24.747  0.00  0.00    +0.010 A 
ATOM     26  C   UNL     1      -0.130  -0.058  23.279  0.00  0.00    +0.010 A 
ATOM     27  C   UNL     1       2.144  -0.729  23.741  0.00  0.00    -0.018 A 
ATOM     28  C   UNL     1       1.674  -1.752  24.565  0.00  0.00    +0.009 A 
ATOM     29  C   UNL     1       1.242   0.117  23.097  0.00  0.00    +0.009 A 
BRANCH  27  30
ATOM     30  C   UNL     1       3.567  -0.548  23.552  0.00  0.00    -0.018 A 
ATOM     31  C   UNL     1       4.051   0.633  22.990  0.00  0.00    +0.008 A 
ATOM     32  C   UNL     1       4.455  -1.554  23.933  0.00  0.00    +0.008 A 
ATOM     33  C   UNL     1       5.423   0.809  22.809  0.00  0.00    +0.001 A 
ATOM     34  C   UNL     1       5.827  -1.378  23.753  0.00  0.00    +0.001 A 
ATOM     35  C   UNL     1       6.312  -0.197  23.191  0.00  0.00    +0.000 A 
ENDBRANCH  27  30
ENDBRANCH  18  22
TORSDOF 5
ENDMDL
