MODEL 1
REMARK VINA RESULT:      -5.1      0.000      0.000
REMARK  Name = 75367089
REMARK  6 active torsions:
REMARK  status: ('A' for Active; 'I' for Inactive)
REMARK    1  A    between atoms: O_3  and  C_9
REMARK    2  A    between atoms: N_5  and  C_8
REMARK    3  A    between atoms: N_5  and  C_10
REMARK    4  A    between atoms: N_7  and  C_17
REMARK    5  A    between atoms: C_11  and  C_17
REMARK    6  A    between atoms: C_18  and  C_19
REMARK                            x       y       z     vdW  Elec       q    Type
REMARK                         _______ _______ _______ _____ _____    ______ ____
ROOT
ATOM      2  O   UNL     1      -1.429  -2.169  23.607  0.00  0.00    -0.371 OA
ATOM      8  C   UNL     1       0.090  -0.717  24.716  0.00  0.00    +0.111 C 
ATOM      9  C   UNL     1      -1.194  -0.800  25.522  0.00  0.00    +0.164 C 
ATOM     11  C   UNL     1      -1.786  -2.101  24.997  0.00  0.00    +0.165 C 
ATOM     12  C   UNL     1      -0.373  -1.223  23.360  0.00  0.00    +0.181 C 
ENDROOT
BRANCH   9   3
ATOM      3  O   UNL     1      -0.961  -0.850  26.916  0.00  0.00    -0.388 OA
ATOM     27  H   UNL     1      -1.798  -1.070  27.358  0.00  0.00    +0.210 HD
ENDBRANCH   9   3
BRANCH   8   5
ATOM      5  N   UNL     1       0.659   0.619  24.659  0.00  0.00    -0.306 NA
ATOM     25  H   UNL     1       1.185   0.739  23.794  0.00  0.00    +0.123 HD
BRANCH   5  10
ATOM      6  N   UNL     1      -1.178   4.415  25.217  0.00  0.00    -0.316 NA
ATOM     10  C   UNL     1      -0.389   1.633  24.744  0.00  0.00    +0.056 C 
ATOM     13  C   UNL     1      -0.178   2.731  23.696  0.00  0.00    +0.034 C 
ATOM     14  C   UNL     1      -0.423   2.245  26.149  0.00  0.00    +0.034 C 
ATOM     15  C   UNL     1      -1.206   3.850  23.866  0.00  0.00    +0.082 C 
ATOM     16  C   UNL     1      -1.441   3.382  26.223  0.00  0.00    +0.082 C 
ATOM     26  H   UNL     1      -1.887   5.145  25.291  0.00  0.00    +0.122 HD
ENDBRANCH   5  10
ENDBRANCH   8   5
BRANCH  11  17
ATOM     17  C   UNL     1      -3.295  -2.175  25.144  0.00  0.00    +0.138 C 
BRANCH  17   7
ATOM      4  O   UNL     1      -3.780  -0.168  23.148  0.00  0.00    -0.270 OA
ATOM      7  N   UNL     1      -3.863  -0.874  25.357  0.00  0.00    -0.309 N 
ATOM     18  C   UNL     1      -4.063   0.038  24.326  0.00  0.00    +0.244 C 
ATOM     28  H   UNL     1      -4.054  -0.615  26.318  0.00  0.00    +0.149 HD
BRANCH  18  19
ATOM      1  F   UNL     1      -6.232   5.004  25.795  0.00  0.00    -0.205 F 
ATOM     19  C   UNL     1      -4.636   1.353  24.715  0.00  0.00    +0.037 A 
ATOM     20  C   UNL     1      -4.192   2.519  24.093  0.00  0.00    +0.016 A 
ATOM     21  C   UNL     1      -5.620   1.420  25.702  0.00  0.00    +0.016 A 
ATOM     22  C   UNL     1      -4.730   3.753  24.458  0.00  0.00    +0.039 A 
ATOM     23  C   UNL     1      -6.158   2.654  26.066  0.00  0.00    +0.039 A 
ATOM     24  C   UNL     1      -5.713   3.821  25.444  0.00  0.00    +0.123 A 
ENDBRANCH  18  19
ENDBRANCH  17   7
ENDBRANCH  11  17
TORSDOF 6
ENDMDL
MODEL 2
REMARK VINA RESULT:      -4.6      2.789      5.502
REMARK  Name = 75367089
REMARK  6 active torsions:
REMARK  status: ('A' for Active; 'I' for Inactive)
REMARK    1  A    between atoms: O_3  and  C_9
REMARK    2  A    between atoms: N_5  and  C_8
REMARK    3  A    between atoms: N_5  and  C_10
REMARK    4  A    between atoms: N_7  and  C_17
REMARK    5  A    between atoms: C_11  and  C_17
REMARK    6  A    between atoms: C_18  and  C_19
REMARK                            x       y       z     vdW  Elec       q    Type
REMARK                         _______ _______ _______ _____ _____    ______ ____
ROOT
ATOM      2  O   UNL     1       0.106   3.897  24.466  0.00  0.00    -0.371 OA
ATOM      8  C   UNL     1      -2.153   4.564  24.782  0.00  0.00    +0.111 C 
ATOM      9  C   UNL     1      -1.790   3.531  25.834  0.00  0.00    +0.164 C 
ATOM     11  C   UNL     1      -0.270   3.628  25.827  0.00  0.00    +0.165 C 
ATOM     12  C   UNL     1      -1.061   4.337  23.749  0.00  0.00    +0.181 C 
ENDROOT
BRANCH   9   3
ATOM      3  O   UNL     1      -2.332   3.833  27.104  0.00  0.00    -0.388 OA
ATOM     27  H   UNL     1      -2.649   3.006  27.506  0.00  0.00    +0.210 HD
ENDBRANCH   9   3
BRANCH   8   5
ATOM      5  N   UNL     1      -3.491   4.398  24.238  0.00  0.00    -0.306 NA
ATOM     25  H   UNL     1      -3.443   4.227  23.234  0.00  0.00    +0.123 HD
BRANCH   5  10
ATOM      6  N   UNL     1      -6.577   1.624  25.177  0.00  0.00    -0.316 NA
ATOM     10  C   UNL     1      -4.185   3.294  24.896  0.00  0.00    +0.056 C 
ATOM     13  C   UNL     1      -4.531   2.188  23.892  0.00  0.00    +0.034 C 
ATOM     14  C   UNL     1      -5.457   3.799  25.583  0.00  0.00    +0.034 C 
ATOM     15  C   UNL     1      -5.361   1.090  24.559  0.00  0.00    +0.082 C 
ATOM     16  C   UNL     1      -6.250   2.639  26.183  0.00  0.00    +0.082 C 
ATOM     26  H   UNL     1      -7.090   0.864  25.621  0.00  0.00    +0.122 HD
ENDBRANCH   5  10
ENDBRANCH   8   5
BRANCH  11  17
ATOM     17  C   UNL     1       0.414   2.360  26.307  0.00  0.00    +0.138 C 
BRANCH  17   7
ATOM      4  O   UNL     1       0.134   0.796  23.915  0.00  0.00    -0.270 OA
ATOM      7  N   UNL     1      -0.429   1.213  26.127  0.00  0.00    -0.309 N 
ATOM     18  C   UNL     1      -0.502   0.513  24.927  0.00  0.00    +0.244 C 
ATOM     28  H   UNL     1      -1.033   0.968  26.903  0.00  0.00    +0.149 HD
BRANCH  18  19
ATOM      1  F   UNL     1      -4.057  -3.830  24.800  0.00  0.00    -0.205 F 
ATOM     19  C   UNL     1      -1.443  -0.637  24.894  0.00  0.00    +0.037 A 
ATOM     20  C   UNL     1      -2.650  -0.571  25.591  0.00  0.00    +0.016 A 
ATOM     21  C   UNL     1      -1.120  -1.782  24.165  0.00  0.00    +0.016 A 
ATOM     22  C   UNL     1      -3.533  -1.650  25.559  0.00  0.00    +0.039 A 
ATOM     23  C   UNL     1      -2.003  -2.860  24.134  0.00  0.00    +0.039 A 
ATOM     24  C   UNL     1      -3.210  -2.795  24.832  0.00  0.00    +0.123 A 
ENDBRANCH  18  19
ENDBRANCH  17   7
ENDBRANCH  11  17
TORSDOF 6
ENDMDL
MODEL 3
REMARK VINA RESULT:      -4.1      2.548      4.932
REMARK  Name = 75367089
REMARK  6 active torsions:
REMARK  status: ('A' for Active; 'I' for Inactive)
REMARK    1  A    between atoms: O_3  and  C_9
REMARK    2  A    between atoms: N_5  and  C_8
REMARK    3  A    between atoms: N_5  and  C_10
REMARK    4  A    between atoms: N_7  and  C_17
REMARK    5  A    between atoms: C_11  and  C_17
REMARK    6  A    between atoms: C_18  and  C_19
REMARK                            x       y       z     vdW  Elec       q    Type
REMARK                         _______ _______ _______ _____ _____    ______ ____
ROOT
ATOM      2  O   UNL     1       0.212   3.502  23.600  0.00  0.00    -0.371 OA
ATOM      8  C   UNL     1      -1.077   4.128  25.495  0.00  0.00    +0.111 C 
ATOM      9  C   UNL     1      -0.647   2.680  25.645  0.00  0.00    +0.164 C 
ATOM     11  C   UNL     1       0.539   2.626  24.691  0.00  0.00    +0.165 C 
ATOM     12  C   UNL     1      -0.880   4.347  24.004  0.00  0.00    +0.181 C 
ENDROOT
BRANCH   9   3
ATOM      3  O   UNL     1      -0.274   2.356  26.970  0.00  0.00    -0.388 OA
ATOM     27  H   UNL     1       0.268   3.082  27.322  0.00  0.00    +0.210 HD
ENDBRANCH   9   3
BRANCH   8   5
ATOM      5  N   UNL     1      -2.441   4.380  25.930  0.00  0.00    -0.306 NA
ATOM     25  H   UNL     1      -2.774   5.263  25.545  0.00  0.00    +0.123 HD
BRANCH   5  10
ATOM      6  N   UNL     1      -5.944   2.402  24.545  0.00  0.00    -0.316 NA
ATOM     10  C   UNL     1      -3.327   3.295  25.515  0.00  0.00    +0.056 C 
ATOM     13  C   UNL     1      -3.757   3.465  24.054  0.00  0.00    +0.034 C 
ATOM     14  C   UNL     1      -4.558   3.237  26.425  0.00  0.00    +0.034 C 
ATOM     15  C   UNL     1      -4.776   2.395  23.660  0.00  0.00    +0.082 C 
ATOM     16  C   UNL     1      -5.546   2.178  25.938  0.00  0.00    +0.082 C 
ATOM     26  H   UNL     1      -6.588   1.666  24.257  0.00  0.00    +0.122 HD
ENDBRANCH   5  10
ENDBRANCH   8   5
BRANCH  11  17
ATOM     17  C   UNL     1       0.821   1.231  24.163  0.00  0.00    +0.138 C 
BRANCH  17   7
ATOM      4  O   UNL     1      -0.297  -0.713  25.956  0.00  0.00    -0.270 OA
ATOM      7  N   UNL     1      -0.394   0.490  23.975  0.00  0.00    -0.309 N 
ATOM     18  C   UNL     1      -0.862  -0.436  24.901  0.00  0.00    +0.244 C 
ATOM     28  H   UNL     1      -0.872   0.619  23.090  0.00  0.00    +0.149 HD
BRANCH  18  19
ATOM      1  F   UNL     1      -5.619  -3.098  23.557  0.00  0.00    -0.205 F 
ATOM     19  C   UNL     1      -2.121  -1.141  24.546  0.00  0.00    +0.037 A 
ATOM     20  C   UNL     1      -3.272  -0.408  24.254  0.00  0.00    +0.016 A 
ATOM     21  C   UNL     1      -2.153  -2.535  24.503  0.00  0.00    +0.016 A 
ATOM     22  C   UNL     1      -4.454  -1.069  23.921  0.00  0.00    +0.039 A 
ATOM     23  C   UNL     1      -3.335  -3.195  24.169  0.00  0.00    +0.039 A 
ATOM     24  C   UNL     1      -4.485  -2.462  23.878  0.00  0.00    +0.123 A 
ENDBRANCH  18  19
ENDBRANCH  17   7
ENDBRANCH  11  17
TORSDOF 6
ENDMDL
MODEL 4
REMARK VINA RESULT:      -3.8      2.753      5.328
REMARK  Name = 75367089
REMARK  6 active torsions:
REMARK  status: ('A' for Active; 'I' for Inactive)
REMARK    1  A    between atoms: O_3  and  C_9
REMARK    2  A    between atoms: N_5  and  C_8
REMARK    3  A    between atoms: N_5  and  C_10
REMARK    4  A    between atoms: N_7  and  C_17
REMARK    5  A    between atoms: C_11  and  C_17
REMARK    6  A    between atoms: C_18  and  C_19
REMARK                            x       y       z     vdW  Elec       q    Type
REMARK                         _______ _______ _______ _____ _____    ______ ____
ROOT
ATOM      2  O   UNL     1      -5.649   3.236  26.135  0.00  0.00    -0.371 OA
ATOM      8  C   UNL     1      -3.945   4.174  24.771  0.00  0.00    +0.111 C 
ATOM      9  C   UNL     1      -4.194   2.741  24.336  0.00  0.00    +0.164 C 
ATOM     11  C   UNL     1      -5.588   2.501  24.901  0.00  0.00    +0.165 C 
ATOM     12  C   UNL     1      -4.563   4.179  26.159  0.00  0.00    +0.181 C 
ENDROOT
BRANCH   9   3
ATOM      3  O   UNL     1      -4.159   2.582  22.932  0.00  0.00    -0.388 OA
ATOM     27  H   UNL     1      -3.265   2.803  22.621  0.00  0.00    +0.210 HD
ENDBRANCH   9   3
BRANCH   8   5
ATOM      5  N   UNL     1      -2.541   4.548  24.774  0.00  0.00    -0.306 NA
ATOM     25  H   UNL     1      -2.368   5.257  25.485  0.00  0.00    +0.123 HD
BRANCH   5  10
ATOM      6  N   UNL     1       0.949   2.261  25.606  0.00  0.00    -0.316 NA
ATOM     10  C   UNL     1      -1.694   3.383  25.020  0.00  0.00    +0.056 C 
ATOM     13  C   UNL     1      -1.075   3.442  26.422  0.00  0.00    +0.034 C 
ATOM     14  C   UNL     1      -0.592   3.293  23.960  0.00  0.00    +0.034 C 
ATOM     15  C   UNL     1      -0.097   2.285  26.632  0.00  0.00    +0.082 C 
ATOM     16  C   UNL     1       0.366   2.143  24.267  0.00  0.00    +0.082 C 
ATOM     26  H   UNL     1       1.567   1.468  25.775  0.00  0.00    +0.122 HD
ENDBRANCH   5  10
ENDBRANCH   8   5
BRANCH  11  17
ATOM     17  C   UNL     1      -5.886   1.035  25.161  0.00  0.00    +0.138 C 
BRANCH  17   7
ATOM      4  O   UNL     1      -4.446  -0.459  23.176  0.00  0.00    -0.270 OA
ATOM      7  N   UNL     1      -4.679   0.286  25.361  0.00  0.00    -0.309 N 
ATOM     18  C   UNL     1      -4.047  -0.412  24.337  0.00  0.00    +0.244 C 
ATOM     28  H   UNL     1      -4.334   0.226  26.313  0.00  0.00    +0.149 HD
BRANCH  18  19
ATOM      1  F   UNL     1       0.591  -3.240  25.755  0.00  0.00    -0.205 F 
ATOM     19  C   UNL     1      -2.820  -1.161  24.713  0.00  0.00    +0.037 A 
ATOM     20  C   UNL     1      -2.692  -2.507  24.371  0.00  0.00    +0.016 A 
ATOM     21  C   UNL     1      -1.794  -0.517  25.406  0.00  0.00    +0.016 A 
ATOM     22  C   UNL     1      -1.540  -3.210  24.724  0.00  0.00    +0.039 A 
ATOM     23  C   UNL     1      -0.642  -1.220  25.758  0.00  0.00    +0.039 A 
ATOM     24  C   UNL     1      -0.515  -2.567  25.417  0.00  0.00    +0.123 A 
ENDBRANCH  18  19
ENDBRANCH  17   7
ENDBRANCH  11  17
TORSDOF 6
ENDMDL
MODEL 5
REMARK VINA RESULT:      -3.8      2.932      5.132
REMARK  Name = 75367089
REMARK  6 active torsions:
REMARK  status: ('A' for Active; 'I' for Inactive)
REMARK    1  A    between atoms: O_3  and  C_9
REMARK    2  A    between atoms: N_5  and  C_8
REMARK    3  A    between atoms: N_5  and  C_10
REMARK    4  A    between atoms: N_7  and  C_17
REMARK    5  A    between atoms: C_11  and  C_17
REMARK    6  A    between atoms: C_18  and  C_19
REMARK                            x       y       z     vdW  Elec       q    Type
REMARK                         _______ _______ _______ _____ _____    ______ ____
ROOT
ATOM      2  O   UNL     1      -3.654   4.208  26.096  0.00  0.00    -0.371 OA
ATOM      8  C   UNL     1      -1.501   3.996  25.114  0.00  0.00    +0.111 C 
ATOM      9  C   UNL     1      -2.522   3.317  24.220  0.00  0.00    +0.164 C 
ATOM     11  C   UNL     1      -3.809   3.984  24.685  0.00  0.00    +0.165 C 
ATOM     12  C   UNL     1      -2.260   4.079  26.428  0.00  0.00    +0.181 C 
ENDROOT
BRANCH   9   3
ATOM      3  O   UNL     1      -2.278   3.541  22.845  0.00  0.00    -0.388 OA
ATOM     27  H   UNL     1      -3.015   4.063  22.485  0.00  0.00    +0.210 HD
ENDBRANCH   9   3
BRANCH   8   5
ATOM      5  N   UNL     1      -0.248   3.268  25.228  0.00  0.00    -0.306 NA
ATOM     25  H   UNL     1      -0.036   3.087  26.209  0.00  0.00    +0.123 HD
BRANCH   5  10
ATOM      6  N   UNL     1       0.667  -0.724  24.076  0.00  0.00    -0.316 NA
ATOM     10  C   UNL     1      -0.313   2.006  24.495  0.00  0.00    +0.056 C 
ATOM     13  C   UNL     1      -0.695   0.849  25.426  0.00  0.00    +0.034 C 
ATOM     14  C   UNL     1       1.030   1.715  23.818  0.00  0.00    +0.034 C 
ATOM     15  C   UNL     1      -0.646  -0.486  24.682  0.00  0.00    +0.082 C 
ATOM     16  C   UNL     1       1.012   0.347  23.137  0.00  0.00    +0.082 C 
ATOM     26  H   UNL     1       0.651  -1.614  23.579  0.00  0.00    +0.122 HD
ENDBRANCH   5  10
ENDBRANCH   8   5
BRANCH  11  17
ATOM     17  C   UNL     1      -5.047   3.142  24.432  0.00  0.00    +0.138 C 
BRANCH  17   7
ATOM      4  O   UNL     1      -5.106   1.092  26.442  0.00  0.00    -0.270 OA
ATOM      7  N   UNL     1      -4.709   1.758  24.256  0.00  0.00    -0.309 N 
ATOM     18  C   UNL     1      -4.767   0.831  25.291  0.00  0.00    +0.244 C 
ATOM     28  H   UNL     1      -4.353   1.491  23.345  0.00  0.00    +0.149 HD
BRANCH  18  19
ATOM      1  F   UNL     1      -3.223  -4.413  24.009  0.00  0.00    -0.205 F 
ATOM     19  C   UNL     1      -4.359  -0.557  24.951  0.00  0.00    +0.037 A 
ATOM     20  C   UNL     1      -4.646  -1.081  23.691  0.00  0.00    +0.016 A 
ATOM     21  C   UNL     1      -3.687  -1.337  25.893  0.00  0.00    +0.016 A 
ATOM     22  C   UNL     1      -4.264  -2.384  23.373  0.00  0.00    +0.039 A 
ATOM     23  C   UNL     1      -3.304  -2.639  25.574  0.00  0.00    +0.039 A 
ATOM     24  C   UNL     1      -3.592  -3.163  24.314  0.00  0.00    +0.123 A 
ENDBRANCH  18  19
ENDBRANCH  17   7
ENDBRANCH  11  17
TORSDOF 6
ENDMDL
MODEL 6
REMARK VINA RESULT:      -3.1      1.911      3.016
REMARK  Name = 75367089
REMARK  6 active torsions:
REMARK  status: ('A' for Active; 'I' for Inactive)
REMARK    1  A    between atoms: O_3  and  C_9
REMARK    2  A    between atoms: N_5  and  C_8
REMARK    3  A    between atoms: N_5  and  C_10
REMARK    4  A    between atoms: N_7  and  C_17
REMARK    5  A    between atoms: C_11  and  C_17
REMARK    6  A    between atoms: C_18  and  C_19
REMARK                            x       y       z     vdW  Elec       q    Type
REMARK                         _______ _______ _______ _____ _____    ______ ____
ROOT
ATOM      2  O   UNL     1      -1.612  -2.777  23.971  0.00  0.00    -0.371 OA
ATOM      8  C   UNL     1      -0.017  -1.032  24.203  0.00  0.00    +0.111 C 
ATOM      9  C   UNL     1      -1.182  -0.764  25.138  0.00  0.00    +0.164 C 
ATOM     11  C   UNL     1      -1.789  -2.157  25.255  0.00  0.00    +0.165 C 
ATOM     12  C   UNL     1      -0.632  -2.026  23.232  0.00  0.00    +0.181 C 
ENDROOT
BRANCH   9   3
ATOM      3  O   UNL     1      -0.771  -0.262  26.394  0.00  0.00    -0.388 OA
ATOM     27  H   UNL     1       0.164  -0.003  26.329  0.00  0.00    +0.210 HD
ENDBRANCH   9   3
BRANCH   8   5
ATOM      5  N   UNL     1       0.491   0.161  23.547  0.00  0.00    -0.306 NA
ATOM     25  H   UNL     1       0.481   0.949  24.195  0.00  0.00    +0.123 HD
BRANCH   5  10
ATOM      6  N   UNL     1       4.744   0.054  23.493  0.00  0.00    -0.316 NA
ATOM     10  C   UNL     1       1.848  -0.056  23.053  0.00  0.00    +0.056 C 
ATOM     13  C   UNL     1       2.584  -1.094  23.907  0.00  0.00    +0.034 C 
ATOM     14  C   UNL     1       2.627   1.264  23.041  0.00  0.00    +0.034 C 
ATOM     15  C   UNL     1       4.040  -1.231  23.461  0.00  0.00    +0.082 C 
ATOM     16  C   UNL     1       4.081   1.035  22.630  0.00  0.00    +0.082 C 
ATOM     26  H   UNL     1       5.703  -0.080  23.175  0.00  0.00    +0.122 HD
ENDBRANCH   5  10
ENDBRANCH   8   5
BRANCH  11  17
ATOM     17  C   UNL     1      -3.264  -2.139  25.617  0.00  0.00    +0.138 C 
BRANCH  17   7
ATOM      4  O   UNL     1      -4.129  -0.459  23.455  0.00  0.00    -0.270 OA
ATOM      7  N   UNL     1      -3.760  -0.796  25.721  0.00  0.00    -0.309 N 
ATOM     18  C   UNL     1      -4.159  -0.054  24.614  0.00  0.00    +0.244 C 
ATOM     28  H   UNL     1      -3.744  -0.377  26.643  0.00  0.00    +0.149 HD
BRANCH  18  19
ATOM      1  F   UNL     1      -5.917   5.178  25.640  0.00  0.00    -0.205 F 
ATOM     19  C   UNL     1      -4.623   1.331  24.886  0.00  0.00    +0.037 A 
ATOM     20  C   UNL     1      -3.826   2.418  24.526  0.00  0.00    +0.016 A 
ATOM     21  C   UNL     1      -5.858   1.545  25.500  0.00  0.00    +0.016 A 
ATOM     22  C   UNL     1      -4.263   3.718  24.781  0.00  0.00    +0.039 A 
ATOM     23  C   UNL     1      -6.294   2.844  25.754  0.00  0.00    +0.039 A 
ATOM     24  C   UNL     1      -5.496   3.931  25.396  0.00  0.00    +0.123 A 
ENDBRANCH  18  19
ENDBRANCH  17   7
ENDBRANCH  11  17
TORSDOF 6
ENDMDL
MODEL 7
REMARK VINA RESULT:      -2.4      2.013      3.124
REMARK  Name = 75367089
REMARK  6 active torsions:
REMARK  status: ('A' for Active; 'I' for Inactive)
REMARK    1  A    between atoms: O_3  and  C_9
REMARK    2  A    between atoms: N_5  and  C_8
REMARK    3  A    between atoms: N_5  and  C_10
REMARK    4  A    between atoms: N_7  and  C_17
REMARK    5  A    between atoms: C_11  and  C_17
REMARK    6  A    between atoms: C_18  and  C_19
REMARK                            x       y       z     vdW  Elec       q    Type
REMARK                         _______ _______ _______ _____ _____    ______ ____
ROOT
ATOM      2  O   UNL     1      -3.830  -2.433  23.574  0.00  0.00    -0.371 OA
ATOM      8  C   UNL     1      -1.949  -2.417  25.025  0.00  0.00    +0.111 C 
ATOM      9  C   UNL     1      -2.834  -1.227  25.349  0.00  0.00    +0.164 C 
ATOM     11  C   UNL     1      -4.160  -1.677  24.751  0.00  0.00    +0.165 C 
ATOM     12  C   UNL     1      -2.436  -2.785  23.633  0.00  0.00    +0.181 C 
ENDROOT
BRANCH   9   3
ATOM      3  O   UNL     1      -2.937  -0.986  26.739  0.00  0.00    -0.388 OA
ATOM     27  H   UNL     1      -3.552  -1.636  27.117  0.00  0.00    +0.210 HD
ENDBRANCH   9   3
BRANCH   8   5
ATOM      5  N   UNL     1      -0.528  -2.117  25.068  0.00  0.00    -0.306 NA
ATOM     25  H   UNL     1       0.010  -2.915  24.731  0.00  0.00    +0.123 HD
BRANCH   5  10
ATOM      6  N   UNL     1       1.418   1.444  23.789  0.00  0.00    -0.316 NA
ATOM     10  C   UNL     1      -0.222  -0.939  24.260  0.00  0.00    +0.056 C 
ATOM     13  C   UNL     1       1.194  -1.024  23.678  0.00  0.00    +0.034 C 
ATOM     14  C   UNL     1      -0.371   0.334  25.100  0.00  0.00    +0.034 C 
ATOM     15  C   UNL     1       1.553   0.262  22.933  0.00  0.00    +0.082 C 
ATOM     16  C   UNL     1       0.050   1.567  24.300  0.00  0.00    +0.082 C 
ATOM     26  H   UNL     1       1.651   2.278  23.251  0.00  0.00    +0.122 HD
ENDBRANCH   5  10
ENDBRANCH   8   5
BRANCH  11  17
ATOM     17  C   UNL     1      -5.073  -0.522  24.379  0.00  0.00    +0.138 C 
BRANCH  17   7
ATOM      4  O   UNL     1      -5.661   1.750  26.033  0.00  0.00    -0.270 OA
ATOM      7  N   UNL     1      -4.368   0.728  24.401  0.00  0.00    -0.309 N 
ATOM     18  C   UNL     1      -4.724   1.779  25.240  0.00  0.00    +0.244 C 
ATOM     28  H   UNL     1      -3.626   0.842  23.720  0.00  0.00    +0.149 HD
BRANCH  18  19
ATOM      1  F   UNL     1      -1.646   6.453  24.797  0.00  0.00    -0.205 F 
ATOM     19  C   UNL     1      -3.910   3.016  25.123  0.00  0.00    +0.037 A 
ATOM     20  C   UNL     1      -3.080   3.407  26.174  0.00  0.00    +0.016 A 
ATOM     21  C   UNL     1      -3.974   3.787  23.962  0.00  0.00    +0.016 A 
ATOM     22  C   UNL     1      -2.316   4.569  26.064  0.00  0.00    +0.039 A 
ATOM     23  C   UNL     1      -3.209   4.948  23.853  0.00  0.00    +0.039 A 
ATOM     24  C   UNL     1      -2.380   5.339  24.904  0.00  0.00    +0.123 A 
ENDBRANCH  18  19
ENDBRANCH  17   7
ENDBRANCH  11  17
TORSDOF 6
ENDMDL
MODEL 8
REMARK VINA RESULT:      -1.6      1.754      4.356
REMARK  Name = 75367089
REMARK  6 active torsions:
REMARK  status: ('A' for Active; 'I' for Inactive)
REMARK    1  A    between atoms: O_3  and  C_9
REMARK    2  A    between atoms: N_5  and  C_8
REMARK    3  A    between atoms: N_5  and  C_10
REMARK    4  A    between atoms: N_7  and  C_17
REMARK    5  A    between atoms: C_11  and  C_17
REMARK    6  A    between atoms: C_18  and  C_19
REMARK                            x       y       z     vdW  Elec       q    Type
REMARK                         _______ _______ _______ _____ _____    ______ ____
ROOT
ATOM      2  O   UNL     1      -1.884  -2.347  25.334  0.00  0.00    -0.371 OA
ATOM      8  C   UNL     1      -3.882  -1.510  24.359  0.00  0.00    +0.111 C 
ATOM      9  C   UNL     1      -2.704  -0.704  23.843  0.00  0.00    +0.164 C 
ATOM     11  C   UNL     1      -1.552  -1.662  24.115  0.00  0.00    +0.165 C 
ATOM     12  C   UNL     1      -3.285  -2.156  25.599  0.00  0.00    +0.181 C 
ENDROOT
BRANCH   9   3
ATOM      3  O   UNL     1      -2.817  -0.392  22.468  0.00  0.00    -0.388 OA
ATOM     27  H   UNL     1      -2.546   0.533  22.341  0.00  0.00    +0.210 HD
ENDBRANCH   9   3
BRANCH   8   5
ATOM      5  N   UNL     1      -5.058  -0.706  24.649  0.00  0.00    -0.306 NA
ATOM     25  H   UNL     1      -5.585  -1.120  25.418  0.00  0.00    +0.123 HD
BRANCH   5  10
ATOM      6  N   UNL     1      -5.243   3.537  24.895  0.00  0.00    -0.316 NA
ATOM     10  C   UNL     1      -4.679   0.663  24.990  0.00  0.00    +0.056 C 
ATOM     13  C   UNL     1      -5.735   1.318  25.888  0.00  0.00    +0.034 C 
ATOM     14  C   UNL     1      -4.482   1.492  23.717  0.00  0.00    +0.034 C 
ATOM     15  C   UNL     1      -5.395   2.786  26.144  0.00  0.00    +0.082 C 
ATOM     16  C   UNL     1      -4.192   2.953  24.058  0.00  0.00    +0.082 C 
ATOM     26  H   UNL     1      -5.003   4.504  25.111  0.00  0.00    +0.122 HD
ENDBRANCH   5  10
ENDBRANCH   8   5
BRANCH  11  17
ATOM     17  C   UNL     1      -0.214  -0.962  24.268  0.00  0.00    +0.138 C 
BRANCH  17   7
ATOM      4  O   UNL     1      -1.086   0.620  26.501  0.00  0.00    -0.270 OA
ATOM      7  N   UNL     1      -0.372   0.464  24.299  0.00  0.00    -0.309 N 
ATOM     18  C   UNL     1      -0.801   1.150  25.430  0.00  0.00    +0.244 C 
ATOM     28  H   UNL     1      -0.221   0.956  23.426  0.00  0.00    +0.149 HD
BRANCH  18  19
ATOM      1  F   UNL     1      -1.319   6.716  24.908  0.00  0.00    -0.205 F 
ATOM     19  C   UNL     1      -0.939   2.623  25.292  0.00  0.00    +0.037 A 
ATOM     20  C   UNL     1      -1.819   3.323  26.118  0.00  0.00    +0.016 A 
ATOM     21  C   UNL     1      -0.187   3.308  24.336  0.00  0.00    +0.016 A 
ATOM     22  C   UNL     1      -1.948   4.705  25.988  0.00  0.00    +0.039 A 
ATOM     23  C   UNL     1      -0.316   4.690  24.207  0.00  0.00    +0.039 A 
ATOM     24  C   UNL     1      -1.197   5.389  25.033  0.00  0.00    +0.123 A 
ENDBRANCH  18  19
ENDBRANCH  17   7
ENDBRANCH  11  17
TORSDOF 6
ENDMDL
MODEL 9
REMARK VINA RESULT:      -1.5      1.993      4.173
REMARK  Name = 75367089
REMARK  6 active torsions:
REMARK  status: ('A' for Active; 'I' for Inactive)
REMARK    1  A    between atoms: O_3  and  C_9
REMARK    2  A    between atoms: N_5  and  C_8
REMARK    3  A    between atoms: N_5  and  C_10
REMARK    4  A    between atoms: N_7  and  C_17
REMARK    5  A    between atoms: C_11  and  C_17
REMARK    6  A    between atoms: C_18  and  C_19
REMARK                            x       y       z     vdW  Elec       q    Type
REMARK                         _______ _______ _______ _____ _____    ______ ____
ROOT
ATOM      2  O   UNL     1       1.171   2.517  24.055  0.00  0.00    -0.371 OA
ATOM      8  C   UNL     1       0.365   0.372  23.426  0.00  0.00    +0.111 C 
ATOM      9  C   UNL     1      -0.809   1.328  23.538  0.00  0.00    +0.164 C 
ATOM     11  C   UNL     1      -0.104   2.672  23.409  0.00  0.00    +0.165 C 
ATOM     12  C   UNL     1       1.432   1.111  24.217  0.00  0.00    +0.181 C 
ENDROOT
BRANCH   9   3
ATOM      3  O   UNL     1      -1.768   1.135  22.517  0.00  0.00    -0.388 OA
ATOM     27  H   UNL     1      -1.875   0.180  22.375  0.00  0.00    +0.210 HD
ENDBRANCH   9   3
BRANCH   8   5
ATOM      5  N   UNL     1       0.089  -0.955  23.951  0.00  0.00    -0.306 NA
ATOM     25  H   UNL     1       0.676  -1.140  24.764  0.00  0.00    +0.123 HD
BRANCH   5  10
ATOM      6  N   UNL     1      -3.406  -2.402  25.899  0.00  0.00    -0.316 NA
ATOM     10  C   UNL     1      -1.319  -1.086  24.316  0.00  0.00    +0.056 C 
ATOM     13  C   UNL     1      -1.531  -0.780  25.804  0.00  0.00    +0.034 C 
ATOM     14  C   UNL     1      -1.824  -2.496  23.991  0.00  0.00    +0.034 C 
ATOM     15  C   UNL     1      -2.983  -1.033  26.209  0.00  0.00    +0.082 C 
ATOM     16  C   UNL     1      -3.264  -2.682  24.468  0.00  0.00    +0.082 C 
ATOM     26  H   UNL     1      -4.381  -2.523  26.170  0.00  0.00    +0.122 HD
ENDBRANCH   5  10
ENDBRANCH   8   5
BRANCH  11  17
ATOM     17  C   UNL     1      -0.870   3.814  24.054  0.00  0.00    +0.138 C 
BRANCH  17   7
ATOM      4  O   UNL     1      -3.461   3.387  22.893  0.00  0.00    -0.270 OA
ATOM      7  N   UNL     1      -2.044   3.339  24.729  0.00  0.00    -0.309 N 
ATOM     18  C   UNL     1      -3.263   3.161  24.084  0.00  0.00    +0.244 C 
ATOM     28  H   UNL     1      -1.966   3.200  25.730  0.00  0.00    +0.149 HD
BRANCH  18  19
ATOM      1  F   UNL     1      -7.523   1.374  27.275  0.00  0.00    -0.205 F 
ATOM     19  C   UNL     1      -4.390   2.688  24.929  0.00  0.00    +0.037 A 
ATOM     20  C   UNL     1      -4.887   3.501  25.949  0.00  0.00    +0.016 A 
ATOM     21  C   UNL     1      -4.953   1.432  24.702  0.00  0.00    +0.016 A 
ATOM     22  C   UNL     1      -5.945   3.056  26.742  0.00  0.00    +0.039 A 
ATOM     23  C   UNL     1      -6.011   0.989  25.495  0.00  0.00    +0.039 A 
ATOM     24  C   UNL     1      -6.507   1.801  26.515  0.00  0.00    +0.123 A 
ENDBRANCH  18  19
ENDBRANCH  17   7
ENDBRANCH  11  17
TORSDOF 6
ENDMDL
MODEL 10
REMARK VINA RESULT:      -1.4      4.219      7.264
REMARK  Name = 75367089
REMARK  6 active torsions:
REMARK  status: ('A' for Active; 'I' for Inactive)
REMARK    1  A    between atoms: O_3  and  C_9
REMARK    2  A    between atoms: N_5  and  C_8
REMARK    3  A    between atoms: N_5  and  C_10
REMARK    4  A    between atoms: N_7  and  C_17
REMARK    5  A    between atoms: C_11  and  C_17
REMARK    6  A    between atoms: C_18  and  C_19
REMARK                            x       y       z     vdW  Elec       q    Type
REMARK                         _______ _______ _______ _____ _____    ______ ____
ROOT
ATOM      2  O   UNL     1      -2.207   1.531  22.358  0.00  0.00    -0.371 OA
ATOM      8  C   UNL     1      -2.473   3.436  23.753  0.00  0.00    +0.111 C 
ATOM      9  C   UNL     1      -1.543   2.450  24.435  0.00  0.00    +0.164 C 
ATOM     11  C   UNL     1      -1.081   1.613  23.248  0.00  0.00    +0.165 C 
ATOM     12  C   UNL     1      -3.157   2.546  22.729  0.00  0.00    +0.181 C 
ENDROOT
BRANCH   9   3
ATOM      3  O   UNL     1      -0.459   3.083  25.087  0.00  0.00    -0.388 OA
ATOM     27  H   UNL     1      -0.222   3.879  24.583  0.00  0.00    +0.210 HD
ENDBRANCH   9   3
BRANCH   8   5
ATOM      5  N   UNL     1      -3.409   4.079  24.660  0.00  0.00    -0.306 NA
ATOM     25  H   UNL     1      -4.047   4.679  24.139  0.00  0.00    +0.123 HD
BRANCH   5  10
ATOM      6  N   UNL     1      -6.563   1.417  25.693  0.00  0.00    -0.316 NA
ATOM     10  C   UNL     1      -4.169   3.084  25.413  0.00  0.00    +0.056 C 
ATOM     13  C   UNL     1      -4.379   1.811  24.584  0.00  0.00    +0.034 C 
ATOM     14  C   UNL     1      -5.521   3.662  25.843  0.00  0.00    +0.034 C 
ATOM     15  C   UNL     1      -5.275   0.820  25.328  0.00  0.00    +0.082 C 
ATOM     16  C   UNL     1      -6.372   2.599  26.537  0.00  0.00    +0.082 C 
ATOM     26  H   UNL     1      -7.120   0.729  26.198  0.00  0.00    +0.122 HD
ENDBRANCH   5  10
ENDBRANCH   8   5
BRANCH  11  17
ATOM     17  C   UNL     1      -0.632   0.217  23.638  0.00  0.00    +0.138 C 
BRANCH  17   7
ATOM      4  O   UNL     1       1.305  -0.322  21.587  0.00  0.00    -0.270 OA
ATOM      7  N   UNL     1       0.793   0.153  23.799  0.00  0.00    -0.309 N 
ATOM     18  C   UNL     1       1.659  -0.115  22.745  0.00  0.00    +0.244 C 
ATOM     28  H   UNL     1       1.146   0.245  24.745  0.00  0.00    +0.149 HD
BRANCH  18  19
ATOM      1  F   UNL     1       7.123  -0.333  24.016  0.00  0.00    -0.205 F 
ATOM     19  C   UNL     1       3.105  -0.173  23.082  0.00  0.00    +0.037 A 
ATOM     20  C   UNL     1       3.647  -1.333  23.636  0.00  0.00    +0.016 A 
ATOM     21  C   UNL     1       3.922   0.932  22.843  0.00  0.00    +0.016 A 
ATOM     22  C   UNL     1       5.004  -1.387  23.952  0.00  0.00    +0.039 A 
ATOM     23  C   UNL     1       5.279   0.877  23.159  0.00  0.00    +0.039 A 
ATOM     24  C   UNL     1       5.820  -0.282  23.714  0.00  0.00    +0.123 A 
ENDBRANCH  18  19
ENDBRANCH  17   7
ENDBRANCH  11  17
TORSDOF 6
ENDMDL
