MODEL 1
REMARK VINA RESULT:      -3.2      0.000      0.000
REMARK  Name = 38029438
REMARK  10 active torsions:
REMARK  status: ('A' for Active; 'I' for Inactive)
REMARK    1  A    between atoms: S_1  and  N_5
REMARK    2  A    between atoms: S_1  and  C_21
REMARK    3  A    between atoms: N_5  and  C_15
REMARK    4  A    between atoms: C_8  and  C_12
REMARK    5  A    between atoms: C_9  and  C_15
REMARK    6  A    between atoms: C_11  and  C_16
REMARK    7  A    between atoms: C_12  and  C_17
REMARK    8  A    between atoms: C_12  and  C_18
REMARK    9  A    between atoms: C_13  and  C_19
REMARK   10  A    between atoms: C_16  and  C_20
REMARK                            x       y       z     vdW  Elec       q    Type
REMARK                         _______ _______ _______ _____ _____    ______ ____
ROOT
ATOM      8  C   UNL     1      -2.080   3.272  24.868  0.00  0.00    +0.000 C 
ATOM      9  C   UNL     1      -3.210   3.691  23.896  0.00  0.00    +0.030 C 
ATOM     10  C   UNL     1      -0.827   2.852  24.083  0.00  0.00    +0.012 C 
ATOM     11  C   UNL     1      -1.106   1.680  23.124  0.00  0.00    +0.023 C 
ATOM     13  C   UNL     1      -2.368   1.902  22.315  0.00  0.00    -0.073 C 
ATOM     14  C   UNL     1      -3.291   2.816  22.669  0.00  0.00    -0.023 C 
ATOM     19  C   UNL     1      -2.524   1.083  21.064  0.00  0.00    +0.039 C 
ENDROOT
BRANCH   8  12
ATOM     12  C   UNL     1      -1.725   4.395  25.849  0.00  0.00    -0.013 C 
ATOM     17  C   UNL     1      -2.832   4.564  26.884  0.00  0.00    +0.007 C 
ATOM     18  C   UNL     1      -1.482   5.699  25.098  0.00  0.00    +0.007 C 
ENDBRANCH   8  12
BRANCH   9  15
ATOM     15  C   UNL     1      -4.571   3.704  24.604  0.00  0.00    +0.113 C 
BRANCH  15   5
ATOM      5  N   UNL     1      -4.627   2.696  25.614  0.00  0.00    -0.189 NA
ATOM     32  H   UNL     1      -3.762   2.494  26.131  0.00  0.00    +0.148 HD
BRANCH   5   1
ATOM      1  S   UNL     1      -5.808   1.439  25.565  0.00  0.00    +0.058 S 
ATOM      3  O   UNL     1      -6.660   1.652  24.410  0.00  0.00    -0.153 OA
ATOM      4  O   UNL     1      -6.394   1.246  26.878  0.00  0.00    -0.153 OA
BRANCH   1  21
ATOM     21  C   UNL     1      -4.793   0.028  25.241  0.00  0.00    +0.105 A 
ATOM     23  C   UNL     1      -4.862  -0.611  24.003  0.00  0.00    +0.028 A 
ATOM     24  C   UNL     1      -3.924  -0.446  26.224  0.00  0.00    +0.028 A 
ATOM     26  C   UNL     1      -4.063  -1.726  23.749  0.00  0.00    +0.002 A 
ATOM     27  C   UNL     1      -3.124  -1.561  25.969  0.00  0.00    +0.002 A 
ATOM     28  C   UNL     1      -3.194  -2.201  24.732  0.00  0.00    +0.000 A 
ENDBRANCH   1  21
ENDBRANCH   5   1
ENDBRANCH  15   5
ENDBRANCH   9  15
BRANCH  11  16
ATOM     16  C   UNL     1      -1.168   0.349  23.880  0.00  0.00    +0.104 C 
BRANCH  16  20
ATOM      2  O   UNL     1       0.323  -1.482  24.363  0.00  0.00    -0.275 OA
ATOM      6  N   UNL     1       1.176   0.519  23.477  0.00  0.00    -0.270 N 
ATOM      7  N   UNL     1       3.368   1.229  22.889  0.00  0.00    -0.240 NA
ATOM     20  C   UNL     1       0.184  -0.336  23.947  0.00  0.00    +0.219 C 
ATOM     22  C   UNL     1       2.563   0.259  23.376  0.00  0.00    +0.125 A 
ATOM     25  C   UNL     1       3.011  -0.987  23.786  0.00  0.00    +0.044 A 
ATOM     29  C   UNL     1       4.373  -1.253  23.691  0.00  0.00    +0.005 A 
ATOM     30  C   UNL     1       4.685   0.936  22.812  0.00  0.00    +0.113 A 
ATOM     31  C   UNL     1       5.232  -0.279  23.195  0.00  0.00    +0.020 A 
ATOM     33  H   UNL     1       0.913   1.447  23.155  0.00  0.00    +0.156 HD
ENDBRANCH  16  20
ENDBRANCH  11  16
TORSDOF 7
ENDMDL
MODEL 2
REMARK VINA RESULT:      -3.1      1.874      6.698
REMARK  Name = 38029438
REMARK  10 active torsions:
REMARK  status: ('A' for Active; 'I' for Inactive)
REMARK    1  A    between atoms: S_1  and  N_5
REMARK    2  A    between atoms: S_1  and  C_21
REMARK    3  A    between atoms: N_5  and  C_15
REMARK    4  A    between atoms: C_8  and  C_12
REMARK    5  A    between atoms: C_9  and  C_15
REMARK    6  A    between atoms: C_11  and  C_16
REMARK    7  A    between atoms: C_12  and  C_17
REMARK    8  A    between atoms: C_12  and  C_18
REMARK    9  A    between atoms: C_13  and  C_19
REMARK   10  A    between atoms: C_16  and  C_20
REMARK                            x       y       z     vdW  Elec       q    Type
REMARK                         _______ _______ _______ _____ _____    ______ ____
ROOT
ATOM      8  C   UNL     1      -2.674   2.305  23.807  0.00  0.00    +0.000 C 
ATOM      9  C   UNL     1      -1.388   2.763  24.540  0.00  0.00    +0.030 C 
ATOM     10  C   UNL     1      -3.722   3.428  23.814  0.00  0.00    +0.012 C 
ATOM     11  C   UNL     1      -4.102   3.863  25.241  0.00  0.00    +0.023 C 
ATOM     13  C   UNL     1      -2.879   4.075  26.110  0.00  0.00    -0.073 C 
ATOM     14  C   UNL     1      -1.671   3.587  25.773  0.00  0.00    -0.023 C 
ATOM     19  C   UNL     1      -3.066   4.900  27.353  0.00  0.00    +0.039 C 
ENDROOT
BRANCH   8  12
ATOM     12  C   UNL     1      -2.385   1.873  22.366  0.00  0.00    -0.013 C 
ATOM     17  C   UNL     1      -3.064   2.820  21.381  0.00  0.00    +0.007 C 
ATOM     18  C   UNL     1      -2.843   0.437  22.139  0.00  0.00    +0.007 C 
ENDBRANCH   8  12
BRANCH   9  15
ATOM     15  C   UNL     1      -0.511   1.563  24.918  0.00  0.00    +0.113 C 
BRANCH  15   5
ATOM      5  N   UNL     1       0.553   1.396  23.979  0.00  0.00    -0.189 NA
ATOM     32  H   UNL     1       0.842   2.222  23.440  0.00  0.00    +0.148 HD
BRANCH   5   1
ATOM      1  S   UNL     1       0.905  -0.142  23.283  0.00  0.00    +0.058 S 
ATOM      3  O   UNL     1       0.497  -0.124  21.891  0.00  0.00    -0.153 OA
ATOM      4  O   UNL     1       0.456  -1.207  24.160  0.00  0.00    -0.153 OA
BRANCH   1  21
ATOM     21  C   UNL     1       2.673  -0.145  23.333  0.00  0.00    +0.105 A 
ATOM     23  C   UNL     1       3.356  -1.278  23.776  0.00  0.00    +0.028 A 
ATOM     24  C   UNL     1       3.383   0.986  22.930  0.00  0.00    +0.028 A 
ATOM     26  C   UNL     1       4.750  -1.278  23.817  0.00  0.00    +0.002 A 
ATOM     27  C   UNL     1       4.778   0.984  22.971  0.00  0.00    +0.002 A 
ATOM     28  C   UNL     1       5.461  -0.148  23.415  0.00  0.00    +0.000 A 
ENDBRANCH   1  21
ENDBRANCH   5   1
ENDBRANCH  15   5
ENDBRANCH   9  15
BRANCH  11  16
ATOM     16  C   UNL     1      -5.066   2.860  25.886  0.00  0.00    +0.104 C 
BRANCH  16  20
ATOM      2  O   UNL     1      -5.914   1.307  24.252  0.00  0.00    -0.275 OA
ATOM      6  N   UNL     1      -4.109   0.693  25.622  0.00  0.00    -0.270 N 
ATOM      7  N   UNL     1      -2.799  -1.285  25.793  0.00  0.00    -0.240 NA
ATOM     20  C   UNL     1      -5.103   1.540  25.142  0.00  0.00    +0.219 C 
ATOM     22  C   UNL     1      -3.814  -0.623  25.194  0.00  0.00    +0.125 A 
ATOM     25  C   UNL     1      -4.592  -1.153  24.175  0.00  0.00    +0.044 A 
ATOM     29  C   UNL     1      -4.310  -2.445  23.747  0.00  0.00    +0.005 A 
ATOM     30  C   UNL     1      -2.555  -2.539  25.350  0.00  0.00    +0.113 A 
ATOM     31  C   UNL     1      -3.274  -3.157  24.340  0.00  0.00    +0.020 A 
ATOM     33  H   UNL     1      -3.499   1.023  26.366  0.00  0.00    +0.156 HD
ENDBRANCH  16  20
ENDBRANCH  11  16
TORSDOF 7
ENDMDL
MODEL 3
REMARK VINA RESULT:      -2.9      1.583      4.461
REMARK  Name = 38029438
REMARK  10 active torsions:
REMARK  status: ('A' for Active; 'I' for Inactive)
REMARK    1  A    between atoms: S_1  and  N_5
REMARK    2  A    between atoms: S_1  and  C_21
REMARK    3  A    between atoms: N_5  and  C_15
REMARK    4  A    between atoms: C_8  and  C_12
REMARK    5  A    between atoms: C_9  and  C_15
REMARK    6  A    between atoms: C_11  and  C_16
REMARK    7  A    between atoms: C_12  and  C_17
REMARK    8  A    between atoms: C_12  and  C_18
REMARK    9  A    between atoms: C_13  and  C_19
REMARK   10  A    between atoms: C_16  and  C_20
REMARK                            x       y       z     vdW  Elec       q    Type
REMARK                         _______ _______ _______ _____ _____    ______ ____
ROOT
ATOM      8  C   UNL     1      -2.531  -1.505  24.239  0.00  0.00    +0.000 C 
ATOM      9  C   UNL     1      -3.237  -0.608  25.286  0.00  0.00    +0.030 C 
ATOM     10  C   UNL     1      -1.060  -1.725  24.627  0.00  0.00    +0.012 C 
ATOM     11  C   UNL     1      -0.283  -0.400  24.739  0.00  0.00    +0.023 C 
ATOM     13  C   UNL     1      -1.047   0.635  25.541  0.00  0.00    -0.073 C 
ATOM     14  C   UNL     1      -2.364   0.518  25.786  0.00  0.00    -0.023 C 
ATOM     19  C   UNL     1      -0.251   1.785  26.093  0.00  0.00    +0.039 C 
ENDROOT
BRANCH   8  12
ATOM     12  C   UNL     1      -3.234  -2.857  24.080  0.00  0.00    -0.013 C 
ATOM     17  C   UNL     1      -4.581  -2.678  23.387  0.00  0.00    +0.007 C 
ATOM     18  C   UNL     1      -3.409  -3.528  25.438  0.00  0.00    +0.007 C 
ENDBRANCH   8  12
BRANCH   9  15
ATOM     15  C   UNL     1      -4.544  -0.031  24.728  0.00  0.00    +0.113 C 
BRANCH  15   5
ATOM      5  N   UNL     1      -5.310   0.585  25.764  0.00  0.00    -0.189 NA
ATOM     32  H   UNL     1      -5.819  -0.033  26.408  0.00  0.00    +0.148 HD
BRANCH   5   1
ATOM      1  S   UNL     1      -5.909   2.195  25.603  0.00  0.00    +0.058 S 
ATOM      3  O   UNL     1      -6.405   2.634  26.894  0.00  0.00    -0.153 OA
ATOM      4  O   UNL     1      -6.747   2.306  24.424  0.00  0.00    -0.153 OA
BRANCH   1  21
ATOM     21  C   UNL     1      -4.418   3.083  25.262  0.00  0.00    +0.105 A 
ATOM     23  C   UNL     1      -3.776   3.786  26.281  0.00  0.00    +0.028 A 
ATOM     24  C   UNL     1      -3.885   3.080  23.973  0.00  0.00    +0.028 A 
ATOM     26  C   UNL     1      -2.602   4.487  26.011  0.00  0.00    +0.002 A 
ATOM     27  C   UNL     1      -2.710   3.782  23.703  0.00  0.00    +0.002 A 
ATOM     28  C   UNL     1      -2.068   4.486  24.722  0.00  0.00    +0.000 A 
ENDBRANCH   1  21
ENDBRANCH   5   1
ENDBRANCH  15   5
ENDBRANCH   9  15
BRANCH  11  16
ATOM     16  C   UNL     1       0.087   0.143  23.355  0.00  0.00    +0.104 C 
BRANCH  16  20
ATOM      2  O   UNL     1       1.884   1.714  23.026  0.00  0.00    -0.275 OA
ATOM      6  N   UNL     1       2.369  -0.531  23.518  0.00  0.00    -0.270 N 
ATOM      7  N   UNL     1       4.404  -1.729  23.793  0.00  0.00    -0.240 NA
ATOM     20  C   UNL     1       1.542   0.562  23.274  0.00  0.00    +0.219 C 
ATOM     22  C   UNL     1       3.783  -0.557  23.533  0.00  0.00    +0.125 A 
ATOM     25  C   UNL     1       4.447   0.633  23.280  0.00  0.00    +0.044 A 
ATOM     29  C   UNL     1       5.837   0.617  23.292  0.00  0.00    +0.005 A 
ATOM     30  C   UNL     1       5.756  -1.706  23.796  0.00  0.00    +0.113 A 
ATOM     31  C   UNL     1       6.511  -0.570  23.555  0.00  0.00    +0.020 A 
ATOM     33  H   UNL     1       1.944  -1.433  23.717  0.00  0.00    +0.156 HD
ENDBRANCH  16  20
ENDBRANCH  11  16
TORSDOF 7
ENDMDL
MODEL 4
REMARK VINA RESULT:      -1.6      2.255      6.898
REMARK  Name = 38029438
REMARK  10 active torsions:
REMARK  status: ('A' for Active; 'I' for Inactive)
REMARK    1  A    between atoms: S_1  and  N_5
REMARK    2  A    between atoms: S_1  and  C_21
REMARK    3  A    between atoms: N_5  and  C_15
REMARK    4  A    between atoms: C_8  and  C_12
REMARK    5  A    between atoms: C_9  and  C_15
REMARK    6  A    between atoms: C_11  and  C_16
REMARK    7  A    between atoms: C_12  and  C_17
REMARK    8  A    between atoms: C_12  and  C_18
REMARK    9  A    between atoms: C_13  and  C_19
REMARK   10  A    between atoms: C_16  and  C_20
REMARK                            x       y       z     vdW  Elec       q    Type
REMARK                         _______ _______ _______ _____ _____    ______ ____
ROOT
ATOM      8  C   UNL     1      -1.753  -0.682  25.176  0.00  0.00    +0.000 C 
ATOM      9  C   UNL     1      -1.402  -2.059  24.558  0.00  0.00    +0.030 C 
ATOM     10  C   UNL     1      -3.111  -0.748  25.893  0.00  0.00    +0.012 C 
ATOM     11  C   UNL     1      -4.251  -1.163  24.945  0.00  0.00    +0.023 C 
ATOM     13  C   UNL     1      -3.873  -2.364  24.101  0.00  0.00    -0.073 C 
ATOM     14  C   UNL     1      -2.595  -2.757  23.951  0.00  0.00    -0.023 C 
ATOM     19  C   UNL     1      -5.003  -3.131  23.471  0.00  0.00    +0.039 C 
ENDROOT
BRANCH   8  12
ATOM     12  C   UNL     1      -0.673  -0.204  26.152  0.00  0.00    -0.013 C 
ATOM     17  C   UNL     1      -0.914  -0.789  27.539  0.00  0.00    +0.007 C 
ATOM     18  C   UNL     1      -0.642   1.319  26.205  0.00  0.00    +0.007 C 
ENDBRANCH   8  12
BRANCH   9  15
ATOM     15  C   UNL     1      -0.298  -1.925  23.502  0.00  0.00    +0.113 C 
BRANCH  15   5
ATOM      5  N   UNL     1       0.715  -1.017  23.940  0.00  0.00    -0.189 NA
ATOM     32  H   UNL     1       0.728  -0.767  24.937  0.00  0.00    +0.148 HD
BRANCH   5   1
ATOM      1  S   UNL     1       1.449   0.103  22.853  0.00  0.00    +0.058 S 
ATOM      3  O   UNL     1       1.084   1.448  23.260  0.00  0.00    -0.153 OA
ATOM      4  O   UNL     1       1.250  -0.322  21.480  0.00  0.00    -0.153 OA
BRANCH   1  21
ATOM     21  C   UNL     1       3.162  -0.132  23.222  0.00  0.00    +0.105 A 
ATOM     23  C   UNL     1       3.610  -1.364  23.699  0.00  0.00    +0.028 A 
ATOM     24  C   UNL     1       4.065   0.915  23.037  0.00  0.00    +0.028 A 
ATOM     26  C   UNL     1       4.960  -1.548  23.992  0.00  0.00    +0.002 A 
ATOM     27  C   UNL     1       5.416   0.730  23.329  0.00  0.00    +0.002 A 
ATOM     28  C   UNL     1       5.864  -0.502  23.808  0.00  0.00    +0.000 A 
ENDBRANCH   1  21
ENDBRANCH   5   1
ENDBRANCH  15   5
ENDBRANCH   9  15
BRANCH  11  16
ATOM     16  C   UNL     1      -4.692   0.010  24.063  0.00  0.00    +0.104 C 
BRANCH  16  20
ATOM      2  O   UNL     1      -5.062   1.883  25.533  0.00  0.00    -0.275 OA
ATOM      6  N   UNL     1      -3.168   1.841  24.145  0.00  0.00    -0.270 N 
ATOM      7  N   UNL     1      -1.361   3.353  23.818  0.00  0.00    -0.240 NA
ATOM     20  C   UNL     1      -4.354   1.352  24.683  0.00  0.00    +0.219 C 
ATOM     22  C   UNL     1      -2.515   3.057  24.457  0.00  0.00    +0.125 A 
ATOM     25  C   UNL     1      -3.107   3.874  25.408  0.00  0.00    +0.044 A 
ATOM     29  C   UNL     1      -2.474   5.072  25.721  0.00  0.00    +0.005 A 
ATOM     30  C   UNL     1      -0.775   4.525  24.148  0.00  0.00    +0.113 A 
ATOM     31  C   UNL     1      -1.285   5.410  25.085  0.00  0.00    +0.020 A 
ATOM     33  H   UNL     1      -2.680   1.287  23.445  0.00  0.00    +0.156 HD
ENDBRANCH  16  20
ENDBRANCH  11  16
TORSDOF 7
ENDMDL
MODEL 5
REMARK VINA RESULT:      -0.6      2.124      4.626
REMARK  Name = 38029438
REMARK  10 active torsions:
REMARK  status: ('A' for Active; 'I' for Inactive)
REMARK    1  A    between atoms: S_1  and  N_5
REMARK    2  A    between atoms: S_1  and  C_21
REMARK    3  A    between atoms: N_5  and  C_15
REMARK    4  A    between atoms: C_8  and  C_12
REMARK    5  A    between atoms: C_9  and  C_15
REMARK    6  A    between atoms: C_11  and  C_16
REMARK    7  A    between atoms: C_12  and  C_17
REMARK    8  A    between atoms: C_12  and  C_18
REMARK    9  A    between atoms: C_13  and  C_19
REMARK   10  A    between atoms: C_16  and  C_20
REMARK                            x       y       z     vdW  Elec       q    Type
REMARK                         _______ _______ _______ _____ _____    ______ ____
ROOT
ATOM      8  C   UNL     1      -2.942  -1.170  24.456  0.00  0.00    +0.000 C 
ATOM      9  C   UNL     1      -3.361  -0.020  25.405  0.00  0.00    +0.030 C 
ATOM     10  C   UNL     1      -1.550  -1.699  24.839  0.00  0.00    +0.012 C 
ATOM     11  C   UNL     1      -0.473  -0.601  24.780  0.00  0.00    +0.023 C 
ATOM     13  C   UNL     1      -0.926   0.670  25.470  0.00  0.00    -0.073 C 
ATOM     14  C   UNL     1      -2.221   0.906  25.753  0.00  0.00    -0.023 C 
ATOM     19  C   UNL     1       0.147   1.644  25.869  0.00  0.00    +0.039 C 
ENDROOT
BRANCH   8  12
ATOM     12  C   UNL     1      -3.956  -2.319  24.471  0.00  0.00    -0.013 C 
ATOM     17  C   UNL     1      -3.298  -3.601  24.971  0.00  0.00    +0.007 C 
ATOM     18  C   UNL     1      -4.550  -2.521  23.081  0.00  0.00    +0.007 C 
ENDBRANCH   8  12
BRANCH   9  15
ATOM     15  C   UNL     1      -4.516   0.794  24.809  0.00  0.00    +0.113 C 
BRANCH  15   5
ATOM      5  N   UNL     1      -4.312   1.017  23.412  0.00  0.00    -0.189 NA
ATOM     32  H   UNL     1      -4.350   0.198  22.792  0.00  0.00    +0.148 HD
BRANCH   5   1
ATOM      1  S   UNL     1      -3.423   2.379  22.840  0.00  0.00    +0.058 S 
ATOM      3  O   UNL     1      -4.250   3.107  21.896  0.00  0.00    -0.153 OA
ATOM      4  O   UNL     1      -2.075   1.984  22.474  0.00  0.00    -0.153 OA
BRANCH   1  21
ATOM     21  C   UNL     1      -3.294   3.348  24.313  0.00  0.00    +0.105 A 
ATOM     23  C   UNL     1      -2.092   3.982  24.628  0.00  0.00    +0.028 A 
ATOM     24  C   UNL     1      -4.395   3.479  25.160  0.00  0.00    +0.028 A 
ATOM     26  C   UNL     1      -1.991   4.745  25.790  0.00  0.00    +0.002 A 
ATOM     27  C   UNL     1      -4.292   4.243  26.323  0.00  0.00    +0.002 A 
ATOM     28  C   UNL     1      -3.090   4.876  26.638  0.00  0.00    +0.000 A 
ENDBRANCH   1  21
ENDBRANCH   5   1
ENDBRANCH  15   5
ENDBRANCH   9  15
BRANCH  11  16
ATOM     16  C   UNL     1      -0.049  -0.319  23.335  0.00  0.00    +0.104 C 
BRANCH  16  20
ATOM      2  O   UNL     1       1.591   1.409  22.971  0.00  0.00    -0.275 OA
ATOM      6  N   UNL     1       2.286  -0.765  23.525  0.00  0.00    -0.270 N 
ATOM      7  N   UNL     1       4.425  -1.755  23.840  0.00  0.00    -0.240 NA
ATOM     20  C   UNL     1       1.360   0.237  23.249  0.00  0.00    +0.219 C 
ATOM     22  C   UNL     1       3.696  -0.655  23.547  0.00  0.00    +0.125 A 
ATOM     25  C   UNL     1       4.244   0.586  23.264  0.00  0.00    +0.044 A 
ATOM     29  C   UNL     1       5.629   0.705  23.282  0.00  0.00    +0.005 A 
ATOM     30  C   UNL     1       5.768  -1.601  23.849  0.00  0.00    +0.113 A 
ATOM     31  C   UNL     1       6.412  -0.404  23.580  0.00  0.00    +0.020 A 
ATOM     33  H   UNL     1       1.948  -1.699  23.747  0.00  0.00    +0.156 HD
ENDBRANCH  16  20
ENDBRANCH  11  16
TORSDOF 7
ENDMDL
MODEL 6
REMARK VINA RESULT:      -0.2      2.141      6.994
REMARK  Name = 38029438
REMARK  10 active torsions:
REMARK  status: ('A' for Active; 'I' for Inactive)
REMARK    1  A    between atoms: S_1  and  N_5
REMARK    2  A    between atoms: S_1  and  C_21
REMARK    3  A    between atoms: N_5  and  C_15
REMARK    4  A    between atoms: C_8  and  C_12
REMARK    5  A    between atoms: C_9  and  C_15
REMARK    6  A    between atoms: C_11  and  C_16
REMARK    7  A    between atoms: C_12  and  C_17
REMARK    8  A    between atoms: C_12  and  C_18
REMARK    9  A    between atoms: C_13  and  C_19
REMARK   10  A    between atoms: C_16  and  C_20
REMARK                            x       y       z     vdW  Elec       q    Type
REMARK                         _______ _______ _______ _____ _____    ______ ____
ROOT
ATOM      8  C   UNL     1      -2.929  -1.072  25.041  0.00  0.00    +0.000 C 
ATOM      9  C   UNL     1      -1.872  -0.535  24.045  0.00  0.00    +0.030 C 
ATOM     10  C   UNL     1      -4.341  -0.932  24.450  0.00  0.00    +0.012 C 
ATOM     11  C   UNL     1      -4.688   0.529  24.110  0.00  0.00    +0.023 C 
ATOM     13  C   UNL     1      -3.568   1.213  23.353  0.00  0.00    -0.073 C 
ATOM     14  C   UNL     1      -2.318   0.715  23.324  0.00  0.00    -0.023 C 
ATOM     19  C   UNL     1      -3.926   2.458  22.591  0.00  0.00    +0.039 C 
ENDROOT
BRANCH   8  12
ATOM     12  C   UNL     1      -2.667  -2.534  25.418  0.00  0.00    -0.013 C 
ATOM     17  C   UNL     1      -1.216  -2.905  25.127  0.00  0.00    +0.007 C 
ATOM     18  C   UNL     1      -3.622  -3.455  24.669  0.00  0.00    +0.007 C 
ENDBRANCH   8  12
BRANCH   9  15
ATOM     15  C   UNL     1      -0.535  -0.269  24.748  0.00  0.00    +0.113 C 
BRANCH  15   5
ATOM      5  N   UNL     1       0.554  -0.784  23.980  0.00  0.00    -0.189 NA
ATOM     32  H   UNL     1       1.100  -1.552  24.389  0.00  0.00    +0.148 HD
BRANCH   5   1
ATOM      1  S   UNL     1       1.347   0.178  22.788  0.00  0.00    +0.058 S 
ATOM      3  O   UNL     1       1.051   1.574  23.050  0.00  0.00    -0.153 OA
ATOM      4  O   UNL     1       1.129  -0.377  21.466  0.00  0.00    -0.153 OA
BRANCH   1  21
ATOM     21  C   UNL     1       3.045  -0.105  23.193  0.00  0.00    +0.105 A 
ATOM     23  C   UNL     1       3.453  -1.357  23.653  0.00  0.00    +0.028 A 
ATOM     24  C   UNL     1       3.976   0.925  23.053  0.00  0.00    +0.028 A 
ATOM     26  C   UNL     1       4.791  -1.579  23.974  0.00  0.00    +0.002 A 
ATOM     27  C   UNL     1       5.315   0.702  23.374  0.00  0.00    +0.002 A 
ATOM     28  C   UNL     1       5.723  -0.550  23.835  0.00  0.00    +0.000 A 
ENDBRANCH   1  21
ENDBRANCH   5   1
ENDBRANCH  15   5
ENDBRANCH   9  15
BRANCH  11  16
ATOM     16  C   UNL     1      -5.059   1.317  25.370  0.00  0.00    +0.104 C 
BRANCH  16  20
ATOM      2  O   UNL     1      -5.187   3.720  25.503  0.00  0.00    -0.275 OA
ATOM      6  N   UNL     1      -3.111   2.676  25.163  0.00  0.00    -0.270 N 
ATOM      7  N   UNL     1      -0.899   3.509  24.894  0.00  0.00    -0.240 NA
ATOM     20  C   UNL     1      -4.488   2.722  25.357  0.00  0.00    +0.219 C 
ATOM     22  C   UNL     1      -2.212   3.766  25.089  0.00  0.00    +0.125 A 
ATOM     25  C   UNL     1      -2.741   5.040  25.225  0.00  0.00    +0.044 A 
ATOM     29  C   UNL     1      -1.866   6.119  25.153  0.00  0.00    +0.005 A 
ATOM     30  C   UNL     1      -0.080   4.582  24.830  0.00  0.00    +0.113 A 
ATOM     31  C   UNL     1      -0.509   5.893  24.953  0.00  0.00    +0.020 A 
ATOM     33  H   UNL     1      -2.658   1.770  25.062  0.00  0.00    +0.156 HD
ENDBRANCH  16  20
ENDBRANCH  11  16
TORSDOF 7
ENDMDL
MODEL 7
REMARK VINA RESULT:      -0.1      1.535      3.763
REMARK  Name = 38029438
REMARK  10 active torsions:
REMARK  status: ('A' for Active; 'I' for Inactive)
REMARK    1  A    between atoms: S_1  and  N_5
REMARK    2  A    between atoms: S_1  and  C_21
REMARK    3  A    between atoms: N_5  and  C_15
REMARK    4  A    between atoms: C_8  and  C_12
REMARK    5  A    between atoms: C_9  and  C_15
REMARK    6  A    between atoms: C_11  and  C_16
REMARK    7  A    between atoms: C_12  and  C_17
REMARK    8  A    between atoms: C_12  and  C_18
REMARK    9  A    between atoms: C_13  and  C_19
REMARK   10  A    between atoms: C_16  and  C_20
REMARK                            x       y       z     vdW  Elec       q    Type
REMARK                         _______ _______ _______ _____ _____    ______ ____
ROOT
ATOM      8  C   UNL     1      -3.070   1.329  23.645  0.00  0.00    +0.000 C 
ATOM      9  C   UNL     1      -4.532   0.848  23.818  0.00  0.00    +0.030 C 
ATOM     10  C   UNL     1      -2.203   0.205  23.057  0.00  0.00    +0.012 C 
ATOM     11  C   UNL     1      -2.201  -1.054  23.944  0.00  0.00    +0.023 C 
ATOM     13  C   UNL     1      -3.600  -1.437  24.381  0.00  0.00    -0.073 C 
ATOM     14  C   UNL     1      -4.632  -0.578  24.305  0.00  0.00    -0.023 C 
ATOM     19  C   UNL     1      -3.795  -2.848  24.865  0.00  0.00    +0.039 C 
ENDROOT
BRANCH   8  12
ATOM     12  C   UNL     1      -2.981   2.573  22.754  0.00  0.00    -0.013 C 
ATOM     17  C   UNL     1      -4.340   3.259  22.663  0.00  0.00    +0.007 C 
ATOM     18  C   UNL     1      -2.470   2.198  21.368  0.00  0.00    +0.007 C 
ENDBRANCH   8  12
BRANCH   9  15
ATOM     15  C   UNL     1      -5.307   1.768  24.770  0.00  0.00    +0.113 C 
BRANCH  15   5
ATOM      5  N   UNL     1      -4.512   2.104  25.910  0.00  0.00    -0.189 NA
ATOM     32  H   UNL     1      -4.493   1.433  26.688  0.00  0.00    +0.148 HD
BRANCH   5   1
ATOM      1  S   UNL     1      -4.142   3.744  26.294  0.00  0.00    +0.058 S 
ATOM      3  O   UNL     1      -4.171   3.897  27.737  0.00  0.00    -0.153 OA
ATOM      4  O   UNL     1      -4.904   4.645  25.450  0.00  0.00    -0.153 OA
BRANCH   1  21
ATOM     21  C   UNL     1      -2.456   3.847  25.770  0.00  0.00    +0.105 A 
ATOM     23  C   UNL     1      -1.992   5.001  25.138  0.00  0.00    +0.028 A 
ATOM     24  C   UNL     1      -1.592   2.774  25.987  0.00  0.00    +0.028 A 
ATOM     26  C   UNL     1      -0.664   5.081  24.723  0.00  0.00    +0.002 A 
ATOM     27  C   UNL     1      -0.262   2.855  25.572  0.00  0.00    +0.002 A 
ATOM     28  C   UNL     1       0.202   4.008  24.939  0.00  0.00    +0.000 A 
ENDBRANCH   1  21
ENDBRANCH   5   1
ENDBRANCH  15   5
ENDBRANCH   9  15
BRANCH  11  16
ATOM     16  C   UNL     1      -1.278  -0.876  25.154  0.00  0.00    +0.104 C 
BRANCH  16  20
ATOM      2  O   UNL     1       0.704  -2.246  25.126  0.00  0.00    -0.275 OA
ATOM      6  N   UNL     1       0.745  -0.109  24.153  0.00  0.00    -0.270 N 
ATOM      7  N   UNL     1       2.440   1.137  23.042  0.00  0.00    -0.240 NA
ATOM     20  C   UNL     1       0.170  -1.184  24.823  0.00  0.00    +0.219 C 
ATOM     22  C   UNL     1       2.072  -0.001  23.673  0.00  0.00    +0.125 A 
ATOM     25  C   UNL     1       2.917  -1.080  23.883  0.00  0.00    +0.044 A 
ATOM     29  C   UNL     1       4.223  -0.983  23.416  0.00  0.00    +0.005 A 
ATOM     30  C   UNL     1       3.716   1.194  22.602  0.00  0.00    +0.113 A 
ATOM     31  C   UNL     1       4.638   0.171  22.762  0.00  0.00    +0.020 A 
ATOM     33  H   UNL     1       0.177   0.713  23.962  0.00  0.00    +0.156 HD
ENDBRANCH  16  20
ENDBRANCH  11  16
TORSDOF 7
ENDMDL
