MODEL 1
REMARK VINA RESULT:      14.6      0.000      0.000
REMARK  Name = 11885145
REMARK  3 active torsions:
REMARK  status: ('A' for Active; 'I' for Inactive)
REMARK    1  A    between atoms: C_15  and  C_18
REMARK    2  A    between atoms: C_16  and  C_19
REMARK    3  A    between atoms: C_29  and  C_34
REMARK                            x       y       z     vdW  Elec       q    Type
REMARK                         _______ _______ _______ _____ _____    ______ ____
ROOT
ATOM      1  O   UNL     1       0.453   2.254  25.425  0.00  0.00    -0.267 OA
ATOM      2  O   UNL     1      -3.947   0.458  27.137  0.00  0.00    -0.270 OA
ATOM      3  N   UNL     1      -4.476   1.693  25.248  0.00  0.00    -0.297 N 
ATOM      4  N   UNL     1      -1.581   2.538  24.322  0.00  0.00    -0.311 N 
ATOM      6  C   UNL     1      -3.479   3.971  25.277  0.00  0.00    +0.027 C 
ATOM      7  C   UNL     1      -3.787   2.799  23.135  0.00  0.00    +0.054 C 
ATOM      8  C   UNL     1      -3.880   4.161  23.818  0.00  0.00    +0.018 C 
ATOM      9  C   UNL     1      -4.422   2.967  25.966  0.00  0.00    +0.113 C 
ATOM     10  C   UNL     1      -2.015   3.517  25.330  0.00  0.00    +0.130 C 
ATOM     11  C   UNL     1      -4.765   1.813  23.808  0.00  0.00    +0.117 C 
ATOM     12  C   UNL     1      -2.377   2.245  23.211  0.00  0.00    +0.027 A 
ATOM     13  C   UNL     1      -1.912   1.442  22.241  0.00  0.00    +0.022 A 
ATOM     14  C   UNL     1      -0.291   1.995  24.479  0.00  0.00    +0.259 A 
ATOM     15  C   UNL     1      -4.181   0.497  25.928  0.00  0.00    +0.247 C 
ATOM     16  C   UNL     1       0.183   1.061  23.399  0.00  0.00    +0.047 A 
ATOM     17  C   UNL     1      -0.614   0.839  22.343  0.00  0.00    +0.015 A 
ENDROOT
BRANCH  16  19
ATOM     19  C   UNL     1       1.488   0.385  23.495  0.00  0.00    -0.012 A 
ATOM     22  C   UNL     1       2.667   1.119  23.350  0.00  0.00    +0.017 A 
ATOM     23  C   UNL     1       1.547  -0.985  23.731  0.00  0.00    +0.009 A 
ATOM     24  C   UNL     1       3.919   0.489  23.439  0.00  0.00    -0.017 A 
ATOM     25  C   UNL     1       2.782  -1.627  23.823  0.00  0.00    +0.009 A 
ATOM     26  C   UNL     1       3.977  -0.904  23.680  0.00  0.00    -0.018 A 
ATOM     30  C   UNL     1       5.114   1.212  23.295  0.00  0.00    +0.008 A 
ATOM     31  C   UNL     1       5.230  -1.534  23.768  0.00  0.00    +0.008 A 
ATOM     32  C   UNL     1       6.350   0.570  23.386  0.00  0.00    +0.001 A 
ATOM     33  C   UNL     1       6.407  -0.801  23.622  0.00  0.00    +0.001 A 
ENDBRANCH  16  19
BRANCH  15  18
ATOM     18  C   UNL     1      -4.128  -0.723  25.134  0.00  0.00    +0.037 A 
ATOM     20  C   UNL     1      -4.835  -0.803  23.937  0.00  0.00    +0.014 A 
ATOM     21  C   UNL     1      -3.370  -1.805  25.576  0.00  0.00    +0.014 A 
ATOM     27  C   UNL     1      -4.784  -1.972  23.177  0.00  0.00    +0.019 A 
ATOM     28  C   UNL     1      -3.318  -2.973  24.817  0.00  0.00    +0.019 A 
ATOM     29  C   UNL     1      -4.026  -3.057  23.618  0.00  0.00    +0.052 A 
BRANCH  29  34
ATOM      5  N   UNL     1      -3.933  -5.229  22.207  0.00  0.00    -0.191 NA
ATOM     34  C   UNL     1      -3.975  -4.255  22.840  0.00  0.00    +0.099 C 
ENDBRANCH  29  34
ENDBRANCH  15  18
TORSDOF 3
ENDMDL
MODEL 2
REMARK VINA RESULT:      17.4      2.051      4.973
REMARK  Name = 11885145
REMARK  3 active torsions:
REMARK  status: ('A' for Active; 'I' for Inactive)
REMARK    1  A    between atoms: C_15  and  C_18
REMARK    2  A    between atoms: C_16  and  C_19
REMARK    3  A    between atoms: C_29  and  C_34
REMARK                            x       y       z     vdW  Elec       q    Type
REMARK                         _______ _______ _______ _____ _____    ______ ____
ROOT
ATOM      1  O   UNL     1       0.096  -2.207  22.742  0.00  0.00    -0.267 OA
ATOM      2  O   UNL     1      -4.186   0.359  21.969  0.00  0.00    -0.270 OA
ATOM      3  N   UNL     1      -4.335  -0.455  24.135  0.00  0.00    -0.297 N 
ATOM      4  N   UNL     1      -1.515  -1.845  24.388  0.00  0.00    -0.311 N 
ATOM      6  C   UNL     1      -3.852  -2.891  24.283  0.00  0.00    +0.027 C 
ATOM      7  C   UNL     1      -3.255  -1.410  26.156  0.00  0.00    +0.054 C 
ATOM      8  C   UNL     1      -3.814  -2.787  25.804  0.00  0.00    +0.018 C 
ATOM      9  C   UNL     1      -4.751  -1.787  23.693  0.00  0.00    +0.113 C 
ATOM     10  C   UNL     1      -2.417  -2.814  23.747  0.00  0.00    +0.130 C 
ATOM     11  C   UNL     1      -4.184  -0.314  25.594  0.00  0.00    +0.117 C 
ATOM     12  C   UNL     1      -1.859  -1.227  25.594  0.00  0.00    +0.027 A 
ATOM     13  C   UNL     1      -0.972  -0.441  26.225  0.00  0.00    +0.022 A 
ATOM     14  C   UNL     1      -0.257  -1.655  23.785  0.00  0.00    +0.259 A 
ATOM     15  C   UNL     1      -4.039   0.535  23.180  0.00  0.00    +0.247 C 
ATOM     16  C   UNL     1       0.697  -0.731  24.491  0.00  0.00    +0.047 A 
ATOM     17  C   UNL     1       0.322  -0.188  25.660  0.00  0.00    +0.015 A 
ENDROOT
BRANCH  16  19
ATOM     19  C   UNL     1       2.013  -0.408  23.915  0.00  0.00    -0.012 A 
ATOM     22  C   UNL     1       3.146  -1.116  24.320  0.00  0.00    +0.017 A 
ATOM     23  C   UNL     1       2.129   0.603  22.965  0.00  0.00    +0.009 A 
ATOM     24  C   UNL     1       4.408  -0.820  23.780  0.00  0.00    -0.017 A 
ATOM     25  C   UNL     1       3.375   0.910  22.418  0.00  0.00    +0.009 A 
ATOM     26  C   UNL     1       4.524   0.207  22.814  0.00  0.00    -0.018 A 
ATOM     30  C   UNL     1       5.558  -1.523  24.178  0.00  0.00    +0.008 A 
ATOM     31  C   UNL     1       5.787   0.503  22.275  0.00  0.00    +0.008 A 
ATOM     32  C   UNL     1       6.803  -1.216  23.630  0.00  0.00    +0.001 A 
ATOM     33  C   UNL     1       6.918  -0.204  22.681  0.00  0.00    +0.001 A 
ENDBRANCH  16  19
BRANCH  15  18
ATOM     18  C   UNL     1      -3.512   1.800  23.675  0.00  0.00    +0.037 A 
ATOM     20  C   UNL     1      -4.386   2.802  24.087  0.00  0.00    +0.014 A 
ATOM     21  C   UNL     1      -2.135   1.999  23.736  0.00  0.00    +0.014 A 
ATOM     27  C   UNL     1      -3.880   4.013  24.562  0.00  0.00    +0.019 A 
ATOM     28  C   UNL     1      -1.630   3.208  24.212  0.00  0.00    +0.019 A 
ATOM     29  C   UNL     1      -2.502   4.215  24.624  0.00  0.00    +0.052 A 
BRANCH  29  34
ATOM      5  N   UNL     1      -1.562   6.466  25.500  0.00  0.00    -0.191 NA
ATOM     34  C   UNL     1      -1.984   5.456  25.108  0.00  0.00    +0.099 C 
ENDBRANCH  29  34
ENDBRANCH  15  18
TORSDOF 3
ENDMDL
MODEL 3
REMARK VINA RESULT:      17.7      2.584      4.734
REMARK  Name = 11885145
REMARK  3 active torsions:
REMARK  status: ('A' for Active; 'I' for Inactive)
REMARK    1  A    between atoms: C_15  and  C_18
REMARK    2  A    between atoms: C_16  and  C_19
REMARK    3  A    between atoms: C_29  and  C_34
REMARK                            x       y       z     vdW  Elec       q    Type
REMARK                         _______ _______ _______ _____ _____    ______ ____
ROOT
ATOM      1  O   UNL     1      -0.863   1.715  21.912  0.00  0.00    -0.267 OA
ATOM      2  O   UNL     1      -2.399   5.049  25.381  0.00  0.00    -0.270 OA
ATOM      3  N   UNL     1      -3.698   3.160  25.722  0.00  0.00    -0.297 N 
ATOM      4  N   UNL     1      -2.432   1.234  23.568  0.00  0.00    -0.311 N 
ATOM      6  C   UNL     1      -4.750   2.325  23.628  0.00  0.00    +0.027 C 
ATOM      7  C   UNL     1      -4.099   0.732  25.389  0.00  0.00    +0.054 C 
ATOM      8  C   UNL     1      -5.175   1.053  24.354  0.00  0.00    +0.018 C 
ATOM      9  C   UNL     1      -4.611   3.490  24.627  0.00  0.00    +0.113 C 
ATOM     10  C   UNL     1      -3.442   2.050  22.876  0.00  0.00    +0.130 C 
ATOM     11  C   UNL     1      -3.996   1.889  26.405  0.00  0.00    +0.117 C 
ATOM     12  C   UNL     1      -2.751   0.519  24.726  0.00  0.00    +0.027 A 
ATOM     13  C   UNL     1      -1.852  -0.315  25.272  0.00  0.00    +0.022 A 
ATOM     14  C   UNL     1      -1.171   1.128  22.950  0.00  0.00    +0.259 A 
ATOM     15  C   UNL     1      -2.597   3.995  25.987  0.00  0.00    +0.247 C 
ATOM     16  C   UNL     1      -0.169   0.223  23.613  0.00  0.00    +0.047 A 
ATOM     17  C   UNL     1      -0.541  -0.459  24.707  0.00  0.00    +0.015 A 
ENDROOT
BRANCH  16  19
ATOM     19  C   UNL     1       1.201   0.090  23.090  0.00  0.00    -0.012 A 
ATOM     22  C   UNL     1       2.294   0.252  23.944  0.00  0.00    +0.017 A 
ATOM     23  C   UNL     1       1.408  -0.200  21.744  0.00  0.00    +0.009 A 
ATOM     24  C   UNL     1       3.606   0.128  23.460  0.00  0.00    -0.017 A 
ATOM     25  C   UNL     1       2.705  -0.327  21.247  0.00  0.00    +0.009 A 
ATOM     26  C   UNL     1       3.815  -0.167  22.092  0.00  0.00    -0.018 A 
ATOM     30  C   UNL     1       4.716   0.290  24.305  0.00  0.00    +0.008 A 
ATOM     31  C   UNL     1       5.128  -0.290  21.609  0.00  0.00    +0.008 A 
ATOM     32  C   UNL     1       6.013   0.163  23.808  0.00  0.00    +0.001 A 
ATOM     33  C   UNL     1       6.219  -0.126  22.462  0.00  0.00    +0.001 A 
ENDBRANCH  16  19
BRANCH  15  18
ATOM     18  C   UNL     1      -1.655   3.550  27.005  0.00  0.00    +0.037 A 
ATOM     20  C   UNL     1      -1.957   3.725  28.353  0.00  0.00    +0.014 A 
ATOM     21  C   UNL     1      -0.457   2.949  26.626  0.00  0.00    +0.014 A 
ATOM     27  C   UNL     1      -1.055   3.299  29.328  0.00  0.00    +0.019 A 
ATOM     28  C   UNL     1       0.444   2.522  27.600  0.00  0.00    +0.019 A 
ATOM     29  C   UNL     1       0.146   2.697  28.951  0.00  0.00    +0.052 A 
BRANCH  29  34
ATOM      5  N   UNL     1       1.823   1.906  30.761  0.00  0.00    -0.191 NA
ATOM     34  C   UNL     1       1.071   2.261  29.949  0.00  0.00    +0.099 C 
ENDBRANCH  29  34
ENDBRANCH  15  18
TORSDOF 3
ENDMDL
