MODEL 1
REMARK VINA RESULT:      17.6      0.000      0.000
REMARK  Name = 9421208
REMARK  12 active torsions:
REMARK  status: ('A' for Active; 'I' for Inactive)
REMARK    1  A    between atoms: O_4  and  C_28
REMARK    2  A    between atoms: O_6  and  C_36
REMARK    3  A    between atoms: O_6  and  C_37
REMARK    4  A    between atoms: N_8  and  C_10
REMARK    5  A    between atoms: C_16  and  C_17
REMARK    6  A    between atoms: C_16  and  C_21
REMARK    7  A    between atoms: C_16  and  C_22
REMARK    8  A    between atoms: C_16  and  C_23
REMARK    9  A    between atoms: C_17  and  C_18
REMARK   10  A    between atoms: C_21  and  C_28
REMARK   11  A    between atoms: C_26  and  C_29
REMARK   12  A    between atoms: C_30  and  C_31
REMARK                            x       y       z     vdW  Elec       q    Type
REMARK                         _______ _______ _______ _____ _____    ______ ____
ROOT
ATOM      1  O   UNL     1      -2.741   2.365  23.737  0.00  0.00    -0.273 OA
ATOM      2  O   UNL     1       0.380  -1.615  25.391  0.00  0.00    -0.270 OA
ATOM      7  N   UNL     1      -1.386  -0.634  24.294  0.00  0.00    -0.284 N 
ATOM      9  N   UNL     1      -0.486   2.098  23.634  0.00  0.00    -0.283 N 
ATOM     10  C   UNL     1      -3.735  -0.835  24.497  0.00  0.00    +0.092 C 
ATOM     11  C   UNL     1      -1.938   0.154  23.211  0.00  0.00    +0.164 C 
ATOM     12  C   UNL     1      -3.394  -0.311  23.099  0.00  0.00    +0.055 C 
ATOM     13  C   UNL     1      -2.412  -1.425  24.965  0.00  0.00    +0.131 C 
ATOM     14  C   UNL     1      -1.775   1.613  23.592  0.00  0.00    +0.238 C 
ATOM     15  C   UNL     1      -0.046  -0.805  24.566  0.00  0.00    +0.249 C 
ATOM     19  C   UNL     1       0.935   0.042  23.840  0.00  0.00    +0.059 A 
ATOM     20  C   UNL     1       0.730   1.391  23.511  0.00  0.00    +0.046 A 
ATOM     24  C   UNL     1       2.204  -0.533  23.635  0.00  0.00    +0.022 A 
ATOM     25  C   UNL     1       1.821   2.150  23.047  0.00  0.00    +0.024 A 
ATOM     26  C   UNL     1       3.261   0.222  23.130  0.00  0.00    -0.024 A 
ATOM     27  C   UNL     1       3.072   1.568  22.849  0.00  0.00    +0.010 A 
ATOM     39  H   UNL     1      -0.407   3.113  23.663  0.00  0.00    +0.155 HD
ENDROOT
BRANCH  10   8
ATOM      3  O   UNL     1      -5.904   0.996  24.017  0.00  0.00    -0.276 OA
ATOM      8  N   UNL     1      -4.189   0.216  25.373  0.00  0.00    -0.311 N 
ATOM     18  C   UNL     1      -5.248   1.052  25.055  0.00  0.00    +0.214 C 
ATOM     38  H   UNL     1      -3.741   0.314  26.279  0.00  0.00    +0.149 HD
BRANCH  18  17
ATOM     17  C   UNL     1      -5.545   2.080  26.136  0.00  0.00    +0.102 C 
BRANCH  17  16
ATOM     16  C   UNL     1      -5.046   3.514  25.826  0.00  0.00    -0.017 C 
ATOM     22  C   UNL     1      -4.516   3.598  24.378  0.00  0.00    +0.012 C 
ATOM     23  C   UNL     1      -6.253   4.470  25.931  0.00  0.00    +0.012 C 
BRANCH  16  21
ATOM     21  C   UNL     1      -3.915   3.976  26.775  0.00  0.00    +0.127 C 
BRANCH  21  28
ATOM      5  O   UNL     1      -2.240   5.137  25.465  0.00  0.00    -0.251 OA
ATOM     28  C   UNL     1      -2.564   4.151  26.114  0.00  0.00    +0.305 C 
BRANCH  28   4
ATOM      4  O   UNL     1      -1.741   3.091  26.311  0.00  0.00    -0.481 OA
ATOM     40  H   UNL     1      -0.985   3.094  25.687  0.00  0.00    +0.295 HD
ENDBRANCH  28   4
ENDBRANCH  21  28
ENDBRANCH  16  21
ENDBRANCH  17  16
ENDBRANCH  18  17
ENDBRANCH  10   8
BRANCH  26  29
ATOM     29  C   UNL     1       4.563  -0.391  22.923  0.00  0.00    +0.008 C 
ATOM     30  C   UNL     1       5.750   0.259  22.987  0.00  0.00    +0.008 C 
BRANCH  30  31
ATOM     31  C   UNL     1       7.071  -0.366  22.794  0.00  0.00    -0.025 A 
ATOM     32  C   UNL     1       8.215   0.253  23.300  0.00  0.00    +0.011 A 
ATOM     33  C   UNL     1       7.178  -1.573  22.107  0.00  0.00    +0.011 A 
ATOM     34  C   UNL     1       9.465  -0.337  23.117  0.00  0.00    +0.046 A 
ATOM     35  C   UNL     1       8.428  -2.164  21.925  0.00  0.00    +0.046 A 
ATOM     36  C   UNL     1       9.572  -1.546  22.429  0.00  0.00    +0.120 A 
BRANCH  36   6
ATOM      6  O   UNL     1      10.793  -2.122  22.252  0.00  0.00    -0.495 OA
ATOM     37  C   UNL     1      10.839  -3.317  21.473  0.00  0.00    +0.277 C 
ENDBRANCH  36   6
ENDBRANCH  30  31
ENDBRANCH  26  29
TORSDOF 9
ENDMDL
MODEL 2
REMARK VINA RESULT:      18.9      1.427      1.752
REMARK  Name = 9421208
REMARK  12 active torsions:
REMARK  status: ('A' for Active; 'I' for Inactive)
REMARK    1  A    between atoms: O_4  and  C_28
REMARK    2  A    between atoms: O_6  and  C_36
REMARK    3  A    between atoms: O_6  and  C_37
REMARK    4  A    between atoms: N_8  and  C_10
REMARK    5  A    between atoms: C_16  and  C_17
REMARK    6  A    between atoms: C_16  and  C_21
REMARK    7  A    between atoms: C_16  and  C_22
REMARK    8  A    between atoms: C_16  and  C_23
REMARK    9  A    between atoms: C_17  and  C_18
REMARK   10  A    between atoms: C_21  and  C_28
REMARK   11  A    between atoms: C_26  and  C_29
REMARK   12  A    between atoms: C_30  and  C_31
REMARK                            x       y       z     vdW  Elec       q    Type
REMARK                         _______ _______ _______ _____ _____    ______ ____
ROOT
ATOM      1  O   UNL     1      -4.100  -0.186  22.881  0.00  0.00    -0.273 OA
ATOM      2  O   UNL     1       0.060  -0.055  26.196  0.00  0.00    -0.270 OA
ATOM      7  N   UNL     1      -1.861  -0.893  25.252  0.00  0.00    -0.284 N 
ATOM      9  N   UNL     1      -1.883   0.114  22.479  0.00  0.00    -0.283 N 
ATOM     10  C   UNL     1      -4.017  -1.364  26.107  0.00  0.00    +0.092 C 
ATOM     11  C   UNL     1      -2.576  -1.537  24.170  0.00  0.00    +0.164 C 
ATOM     12  C   UNL     1      -3.785  -2.197  24.843  0.00  0.00    +0.055 C 
ATOM     13  C   UNL     1      -2.605  -0.960  26.506  0.00  0.00    +0.131 C 
ATOM     14  C   UNL     1      -2.932  -0.458  23.165  0.00  0.00    +0.238 C 
ATOM     15  C   UNL     1      -0.560  -0.443  25.204  0.00  0.00    +0.249 C 
ATOM     19  C   UNL     1       0.126  -0.405  23.887  0.00  0.00    +0.059 A 
ATOM     20  C   UNL     1      -0.496  -0.059  22.677  0.00  0.00    +0.046 A 
ATOM     24  C   UNL     1       1.524  -0.570  23.923  0.00  0.00    +0.022 A 
ATOM     25  C   UNL     1       0.307   0.179  21.546  0.00  0.00    +0.024 A 
ATOM     26  C   UNL     1       2.298  -0.376  22.780  0.00  0.00    -0.024 A 
ATOM     27  C   UNL     1       1.690   0.012  21.594  0.00  0.00    +0.010 A 
ATOM     39  H   UNL     1      -2.148   0.660  21.661  0.00  0.00    +0.155 HD
ENDROOT
BRANCH  10   8
ATOM      3  O   UNL     1      -3.141   1.358  25.778  0.00  0.00    -0.276 OA
ATOM      8  N   UNL     1      -4.848  -0.214  25.852  0.00  0.00    -0.311 N 
ATOM     18  C   UNL     1      -4.332   1.065  25.707  0.00  0.00    +0.214 C 
ATOM     38  H   UNL     1      -5.846  -0.358  25.728  0.00  0.00    +0.149 HD
BRANCH  18  17
ATOM     17  C   UNL     1      -5.400   2.114  25.439  0.00  0.00    +0.102 C 
BRANCH  17  16
ATOM     16  C   UNL     1      -4.858   3.542  25.172  0.00  0.00    -0.017 C 
ATOM     22  C   UNL     1      -4.438   3.691  23.695  0.00  0.00    +0.012 C 
ATOM     23  C   UNL     1      -6.006   4.541  25.428  0.00  0.00    +0.012 C 
BRANCH  16  21
ATOM     21  C   UNL     1      -3.637   3.896  26.054  0.00  0.00    +0.127 C 
BRANCH  21  28
ATOM      5  O   UNL     1      -2.101   5.552  25.178  0.00  0.00    -0.251 OA
ATOM     28  C   UNL     1      -2.421   4.376  25.290  0.00  0.00    +0.305 C 
BRANCH  28   4
ATOM      4  O   UNL     1      -1.717   3.361  24.729  0.00  0.00    -0.481 OA
ATOM     40  H   UNL     1      -2.141   2.491  24.884  0.00  0.00    +0.295 HD
ENDBRANCH  28   4
ENDBRANCH  21  28
ENDBRANCH  16  21
ENDBRANCH  17  16
ENDBRANCH  18  17
ENDBRANCH  10   8
BRANCH  26  29
ATOM     29  C   UNL     1       3.741  -0.553  22.836  0.00  0.00    +0.008 C 
ATOM     30  C   UNL     1       4.632   0.406  23.180  0.00  0.00    +0.008 C 
BRANCH  30  31
ATOM     31  C   UNL     1       6.092   0.221  23.254  0.00  0.00    -0.025 A 
ATOM     32  C   UNL     1       6.865   1.084  24.031  0.00  0.00    +0.011 A 
ATOM     33  C   UNL     1       6.700  -0.815  22.548  0.00  0.00    +0.011 A 
ATOM     34  C   UNL     1       8.247   0.911  24.100  0.00  0.00    +0.046 A 
ATOM     35  C   UNL     1       8.083  -0.990  22.618  0.00  0.00    +0.046 A 
ATOM     36  C   UNL     1       8.857  -0.127  23.394  0.00  0.00    +0.120 A 
BRANCH  36   6
ATOM      6  O   UNL     1      10.206  -0.297  23.462  0.00  0.00    -0.495 OA
ATOM     37  C   UNL     1      10.863  -0.751  22.280  0.00  0.00    +0.277 C 
ENDBRANCH  36   6
ENDBRANCH  30  31
ENDBRANCH  26  29
TORSDOF 9
ENDMDL
MODEL 3
REMARK VINA RESULT:      19.1      1.826      3.208
REMARK  Name = 9421208
REMARK  12 active torsions:
REMARK  status: ('A' for Active; 'I' for Inactive)
REMARK    1  A    between atoms: O_4  and  C_28
REMARK    2  A    between atoms: O_6  and  C_36
REMARK    3  A    between atoms: O_6  and  C_37
REMARK    4  A    between atoms: N_8  and  C_10
REMARK    5  A    between atoms: C_16  and  C_17
REMARK    6  A    between atoms: C_16  and  C_21
REMARK    7  A    between atoms: C_16  and  C_22
REMARK    8  A    between atoms: C_16  and  C_23
REMARK    9  A    between atoms: C_17  and  C_18
REMARK   10  A    between atoms: C_21  and  C_28
REMARK   11  A    between atoms: C_26  and  C_29
REMARK   12  A    between atoms: C_30  and  C_31
REMARK                            x       y       z     vdW  Elec       q    Type
REMARK                         _______ _______ _______ _____ _____    ______ ____
ROOT
ATOM      1  O   UNL     1      -3.017   1.079  25.601  0.00  0.00    -0.273 OA
ATOM      2  O   UNL     1       0.904   3.790  23.237  0.00  0.00    -0.270 OA
ATOM      7  N   UNL     1      -0.571   3.242  24.913  0.00  0.00    -0.284 N 
ATOM      9  N   UNL     1      -1.122   0.363  24.570  0.00  0.00    -0.283 N 
ATOM     10  C   UNL     1      -2.321   4.422  25.984  0.00  0.00    +0.092 C 
ATOM     11  C   UNL     1      -1.023   2.378  25.984  0.00  0.00    +0.164 C 
ATOM     12  C   UNL     1      -1.838   3.295  26.902  0.00  0.00    +0.055 C 
ATOM     13  C   UNL     1      -1.167   4.570  25.002  0.00  0.00    +0.131 C 
ATOM     14  C   UNL     1      -1.825   1.258  25.346  0.00  0.00    +0.238 C 
ATOM     15  C   UNL     1       0.442   2.960  24.022  0.00  0.00    +0.249 C 
ATOM     19  C   UNL     1       0.993   1.581  23.993  0.00  0.00    +0.059 A 
ATOM     20  C   UNL     1       0.228   0.416  24.160  0.00  0.00    +0.046 A 
ATOM     24  C   UNL     1       2.341   1.472  23.604  0.00  0.00    +0.022 A 
ATOM     25  C   UNL     1       0.815  -0.829  23.868  0.00  0.00    +0.024 A 
ATOM     26  C   UNL     1       2.920   0.226  23.365  0.00  0.00    -0.024 A 
ATOM     27  C   UNL     1       2.152  -0.924  23.484  0.00  0.00    +0.010 A 
ATOM     39  H   UNL     1      -1.620  -0.495  24.343  0.00  0.00    +0.155 HD
ENDROOT
BRANCH  10   8
ATOM      3  O   UNL     1      -4.824   3.713  27.217  0.00  0.00    -0.276 OA
ATOM      8  N   UNL     1      -3.550   4.082  25.312  0.00  0.00    -0.311 N 
ATOM     18  C   UNL     1      -4.711   3.753  25.994  0.00  0.00    +0.214 C 
ATOM     38  H   UNL     1      -3.575   4.133  24.298  0.00  0.00    +0.149 HD
BRANCH  18  17
ATOM     17  C   UNL     1      -5.879   3.438  25.072  0.00  0.00    +0.102 C 
BRANCH  17  16
ATOM     16  C   UNL     1      -6.059   1.934  24.740  0.00  0.00    -0.017 C 
ATOM     22  C   UNL     1      -6.182   1.108  26.037  0.00  0.00    +0.012 C 
ATOM     23  C   UNL     1      -7.384   1.775  23.965  0.00  0.00    +0.012 C 
BRANCH  16  21
ATOM     21  C   UNL     1      -4.886   1.355  23.914  0.00  0.00    +0.127 C 
BRANCH  21  28
ATOM      5  O   UNL     1      -4.576   3.466  22.766  0.00  0.00    -0.251 OA
ATOM     28  C   UNL     1      -4.128   2.373  23.089  0.00  0.00    +0.305 C 
BRANCH  28   4
ATOM      4  O   UNL     1      -2.890   1.948  22.734  0.00  0.00    -0.481 OA
ATOM     40  H   UNL     1      -2.772   1.934  21.761  0.00  0.00    +0.295 HD
ENDBRANCH  28   4
ENDBRANCH  21  28
ENDBRANCH  16  21
ENDBRANCH  17  16
ENDBRANCH  18  17
ENDBRANCH  10   8
BRANCH  26  29
ATOM     29  C   UNL     1       4.316   0.133  22.967  0.00  0.00    +0.008 C 
ATOM     30  C   UNL     1       5.369   0.088  23.817  0.00  0.00    +0.008 C 
BRANCH  30  31
ATOM     31  C   UNL     1       6.782  -0.024  23.415  0.00  0.00    -0.025 A 
ATOM     32  C   UNL     1       7.711   0.914  23.864  0.00  0.00    +0.011 A 
ATOM     33  C   UNL     1       7.189  -1.068  22.586  0.00  0.00    +0.011 A 
ATOM     34  C   UNL     1       9.048   0.808  23.482  0.00  0.00    +0.046 A 
ATOM     35  C   UNL     1       8.527  -1.175  22.205  0.00  0.00    +0.046 A 
ATOM     36  C   UNL     1       9.457  -0.237  22.652  0.00  0.00    +0.120 A 
BRANCH  36   6
ATOM      6  O   UNL     1      10.762  -0.340  22.281  0.00  0.00    -0.495 OA
ATOM     37  C   UNL     1      11.332   0.773  21.593  0.00  0.00    +0.277 C 
ENDBRANCH  36   6
ENDBRANCH  30  31
ENDBRANCH  26  29
TORSDOF 9
ENDMDL
MODEL 4
REMARK VINA RESULT:      19.7      1.501      2.132
REMARK  Name = 9421208
REMARK  12 active torsions:
REMARK  status: ('A' for Active; 'I' for Inactive)
REMARK    1  A    between atoms: O_4  and  C_28
REMARK    2  A    between atoms: O_6  and  C_36
REMARK    3  A    between atoms: O_6  and  C_37
REMARK    4  A    between atoms: N_8  and  C_10
REMARK    5  A    between atoms: C_16  and  C_17
REMARK    6  A    between atoms: C_16  and  C_21
REMARK    7  A    between atoms: C_16  and  C_22
REMARK    8  A    between atoms: C_16  and  C_23
REMARK    9  A    between atoms: C_17  and  C_18
REMARK   10  A    between atoms: C_21  and  C_28
REMARK   11  A    between atoms: C_26  and  C_29
REMARK   12  A    between atoms: C_30  and  C_31
REMARK                            x       y       z     vdW  Elec       q    Type
REMARK                         _______ _______ _______ _____ _____    ______ ____
ROOT
ATOM      1  O   UNL     1      -4.195   1.567  23.600  0.00  0.00    -0.273 OA
ATOM      2  O   UNL     1      -0.084  -1.495  25.029  0.00  0.00    -0.270 OA
ATOM      7  N   UNL     1      -2.018  -0.942  23.914  0.00  0.00    -0.284 N 
ATOM      9  N   UNL     1      -1.963   1.996  23.648  0.00  0.00    -0.283 N 
ATOM     10  C   UNL     1      -4.201  -1.855  23.903  0.00  0.00    +0.092 C 
ATOM     11  C   UNL     1      -2.737  -0.215  22.889  0.00  0.00    +0.164 C 
ATOM     12  C   UNL     1      -3.977  -1.071  22.607  0.00  0.00    +0.055 C 
ATOM     13  C   UNL     1      -2.782  -2.084  24.405  0.00  0.00    +0.131 C 
ATOM     14  C   UNL     1      -3.041   1.162  23.447  0.00  0.00    +0.238 C 
ATOM     15  C   UNL     1      -0.701  -0.744  24.271  0.00  0.00    +0.249 C 
ATOM     19  C   UNL     1       0.005   0.444  23.729  0.00  0.00    +0.059 A 
ATOM     20  C   UNL     1      -0.586   1.704  23.543  0.00  0.00    +0.046 A 
ATOM     24  C   UNL     1       1.396   0.303  23.562  0.00  0.00    +0.022 A 
ATOM     25  C   UNL     1       0.241   2.806  23.259  0.00  0.00    +0.024 A 
ATOM     26  C   UNL     1       2.194   1.398  23.234  0.00  0.00    -0.024 A 
ATOM     27  C   UNL     1       1.617   2.653  23.096  0.00  0.00    +0.010 A 
ATOM     39  H   UNL     1      -2.197   2.975  23.801  0.00  0.00    +0.155 HD
ENDROOT
BRANCH  10   8
ATOM      3  O   UNL     1      -3.223  -0.364  26.162  0.00  0.00    -0.276 OA
ATOM      8  N   UNL     1      -4.989  -1.113  24.855  0.00  0.00    -0.311 N 
ATOM     18  C   UNL     1      -4.425  -0.422  25.917  0.00  0.00    +0.214 C 
ATOM     38  H   UNL     1      -5.993  -1.058  24.712  0.00  0.00    +0.149 HD
BRANCH  18  17
ATOM     17  C   UNL     1      -5.454   0.289  26.782  0.00  0.00    +0.102 C 
BRANCH  17  16
ATOM     16  C   UNL     1      -5.910   1.672  26.249  0.00  0.00    -0.017 C 
ATOM     22  C   UNL     1      -6.496   1.534  24.828  0.00  0.00    +0.012 C 
ATOM     23  C   UNL     1      -7.040   2.186  27.166  0.00  0.00    +0.012 C 
BRANCH  16  21
ATOM     21  C   UNL     1      -4.758   2.704  26.192  0.00  0.00    +0.127 C 
BRANCH  21  28
ATOM      5  O   UNL     1      -6.027   4.692  25.634  0.00  0.00    -0.251 OA
ATOM     28  C   UNL     1      -5.071   3.960  25.407  0.00  0.00    +0.305 C 
BRANCH  28   4
ATOM      4  O   UNL     1      -4.181   4.195  24.411  0.00  0.00    -0.481 OA
ATOM     40  H   UNL     1      -3.315   3.768  24.585  0.00  0.00    +0.295 HD
ENDBRANCH  28   4
ENDBRANCH  21  28
ENDBRANCH  16  21
ENDBRANCH  17  16
ENDBRANCH  18  17
ENDBRANCH  10   8
BRANCH  26  29
ATOM     29  C   UNL     1       3.629   1.232  23.063  0.00  0.00    +0.008 C 
ATOM     30  C   UNL     1       4.367   0.231  23.598  0.00  0.00    +0.008 C 
BRANCH  30  31
ATOM     31  C   UNL     1       5.818   0.052  23.410  0.00  0.00    -0.025 A 
ATOM     32  C   UNL     1       6.295  -1.011  22.641  0.00  0.00    +0.011 A 
ATOM     33  C   UNL     1       6.713   0.943  24.000  0.00  0.00    +0.011 A 
ATOM     34  C   UNL     1       7.668  -1.181  22.464  0.00  0.00    +0.046 A 
ATOM     35  C   UNL     1       8.086   0.773  23.822  0.00  0.00    +0.046 A 
ATOM     36  C   UNL     1       8.564  -0.289  23.054  0.00  0.00    +0.120 A 
BRANCH  36   6
ATOM      6  O   UNL     1       9.904  -0.455  22.881  0.00  0.00    -0.495 OA
ATOM     37  C   UNL     1      10.622   0.631  22.296  0.00  0.00    +0.277 C 
ENDBRANCH  36   6
ENDBRANCH  30  31
ENDBRANCH  26  29
TORSDOF 9
ENDMDL
