MODEL 1
REMARK VINA RESULT:      -0.3      0.000      0.000
REMARK  Name = 11912462
REMARK  11 active torsions:
REMARK  status: ('A' for Active; 'I' for Inactive)
REMARK    1  A    between atoms: S_1  and  N_6
REMARK    2  A    between atoms: S_1  and  C_18
REMARK    3  A    between atoms: O_5  and  C_25
REMARK    4  A    between atoms: O_5  and  C_27
REMARK    5  A    between atoms: N_7  and  C_21
REMARK    6  A    between atoms: N_7  and  C_22
REMARK    7  A    between atoms: C_9  and  C_14
REMARK    8  A    between atoms: C_10  and  C_15
REMARK    9  A    between atoms: C_14  and  C_16
REMARK   10  A    between atoms: C_15  and  C_17
REMARK   11  A    between atoms: C_21  and  C_26
REMARK                            x       y       z     vdW  Elec       q    Type
REMARK                         _______ _______ _______ _____ _____    ______ ____
ROOT
ATOM      6  N   UNL     1      -2.430  -0.695  24.559  0.00  0.00    -0.176 NA
ATOM      9  C   UNL     1      -4.052   0.723  23.320  0.00  0.00    +0.008 C 
ATOM     10  C   UNL     1      -4.946   0.765  24.582  0.00  0.00    +0.003 C 
ATOM     11  C   UNL     1      -4.124   0.539  25.860  0.00  0.00    +0.021 C 
ATOM     12  C   UNL     1      -3.230  -0.576  23.304  0.00  0.00    +0.113 C 
ATOM     13  C   UNL     1      -3.296  -0.738  25.773  0.00  0.00    +0.110 C 
ENDROOT
BRANCH   6   1
ATOM      1  S   UNL     1      -1.169  -1.855  24.517  0.00  0.00    +0.061 S 
ATOM      2  O   UNL     1      -1.433  -2.799  23.454  0.00  0.00    -0.153 OA
ATOM      3  O   UNL     1      -0.902  -2.305  25.866  0.00  0.00    -0.153 OA
BRANCH   1  18
ATOM     18  C   UNL     1       0.175  -0.830  24.009  0.00  0.00    +0.106 A 
ATOM     19  C   UNL     1       1.245  -1.397  23.337  0.00  0.00    +0.032 A 
ATOM     20  C   UNL     1       0.137   0.527  24.289  0.00  0.00    +0.032 A 
ATOM     23  C   UNL     1       2.308  -0.587  22.937  0.00  0.00    +0.047 A 
ATOM     24  C   UNL     1       1.199   1.337  23.888  0.00  0.00    +0.047 A 
ATOM     25  C   UNL     1       2.284   0.781  23.212  0.00  0.00    +0.120 A 
BRANCH  25   5
ATOM      5  O   UNL     1       3.320   1.571  22.819  0.00  0.00    -0.495 OA
ATOM     27  C   UNL     1       4.622   0.989  22.830  0.00  0.00    +0.277 C 
ENDBRANCH  25   5
ENDBRANCH   1  18
ENDBRANCH   6   1
BRANCH   9  14
ATOM     14  C   UNL     1      -3.134   1.942  23.162  0.00  0.00    +0.002 C 
ATOM     16  C   UNL     1      -2.499   1.974  21.788  0.00  0.00    +0.004 C 
ENDBRANCH   9  14
BRANCH  10  15
ATOM     15  C   UNL     1      -5.772   2.047  24.692  0.00  0.00    +0.100 C 
BRANCH  15  17
ATOM      4  O   UNL     1      -6.118   2.609  26.996  0.00  0.00    -0.276 OA
ATOM      7  N   UNL     1      -4.443   3.761  25.882  0.00  0.00    -0.291 N 
ATOM     17  C   UNL     1      -5.474   2.820  25.965  0.00  0.00    +0.216 C 
ATOM     22  C   UNL     1      -4.037   4.580  27.018  0.00  0.00    +0.133 C 
BRANCH   7  21
ATOM     21  C   UNL     1      -3.693   3.994  24.649  0.00  0.00    +0.226 C 
BRANCH  21  26
ATOM      8  N   UNL     1      -1.211   4.657  25.172  0.00  0.00    -0.195 NA
ATOM     26  C   UNL     1      -2.310   4.364  24.942  0.00  0.00    +0.082 C 
ENDBRANCH  21  26
ENDBRANCH   7  21
ENDBRANCH  15  17
ENDBRANCH  10  15
TORSDOF 8
ENDMDL
MODEL 2
REMARK VINA RESULT:       0.3      2.689      7.301
REMARK  Name = 11912462
REMARK  11 active torsions:
REMARK  status: ('A' for Active; 'I' for Inactive)
REMARK    1  A    between atoms: S_1  and  N_6
REMARK    2  A    between atoms: S_1  and  C_18
REMARK    3  A    between atoms: O_5  and  C_25
REMARK    4  A    between atoms: O_5  and  C_27
REMARK    5  A    between atoms: N_7  and  C_21
REMARK    6  A    between atoms: N_7  and  C_22
REMARK    7  A    between atoms: C_9  and  C_14
REMARK    8  A    between atoms: C_10  and  C_15
REMARK    9  A    between atoms: C_14  and  C_16
REMARK   10  A    between atoms: C_15  and  C_17
REMARK   11  A    between atoms: C_21  and  C_26
REMARK                            x       y       z     vdW  Elec       q    Type
REMARK                         _______ _______ _______ _____ _____    ______ ____
ROOT
ATOM      6  N   UNL     1      -1.997  -0.165  24.381  0.00  0.00    -0.176 NA
ATOM      9  C   UNL     1      -0.108   1.361  24.908  0.00  0.00    +0.008 C 
ATOM     10  C   UNL     1       0.820   0.476  24.042  0.00  0.00    +0.003 C 
ATOM     11  C   UNL     1       0.027  -0.295  22.976  0.00  0.00    +0.021 C 
ATOM     12  C   UNL     1      -1.252   0.512  25.485  0.00  0.00    +0.113 C 
ATOM     13  C   UNL     1      -1.122  -1.083  23.597  0.00  0.00    +0.110 C 
ENDROOT
BRANCH   6   1
ATOM      1  S   UNL     1      -3.527  -0.804  24.815  0.00  0.00    +0.061 S 
ATOM      2  O   UNL     1      -3.407  -1.497  26.079  0.00  0.00    -0.153 OA
ATOM      3  O   UNL     1      -4.107  -1.454  23.660  0.00  0.00    -0.153 OA
BRANCH   1  18
ATOM     18  C   UNL     1      -4.415   0.694  25.101  0.00  0.00    +0.106 A 
ATOM     19  C   UNL     1      -4.069   1.834  24.395  0.00  0.00    +0.032 A 
ATOM     20  C   UNL     1      -5.446   0.705  26.026  0.00  0.00    +0.032 A 
ATOM     23  C   UNL     1      -4.770   3.018  24.621  0.00  0.00    +0.047 A 
ATOM     24  C   UNL     1      -6.149   1.889  26.252  0.00  0.00    +0.047 A 
ATOM     25  C   UNL     1      -5.811   3.045  25.550  0.00  0.00    +0.120 A 
BRANCH  25   5
ATOM      5  O   UNL     1      -6.496   4.200  25.769  0.00  0.00    -0.495 OA
ATOM     27  C   UNL     1      -5.909   5.406  25.285  0.00  0.00    +0.277 C 
ENDBRANCH  25   5
ENDBRANCH   1  18
ENDBRANCH   6   1
BRANCH   9  14
ATOM     14  C   UNL     1      -0.664   2.589  24.175  0.00  0.00    +0.002 C 
ATOM     16  C   UNL     1      -0.949   3.719  25.141  0.00  0.00    +0.004 C 
ENDBRANCH   9  14
BRANCH  10  15
ATOM     15  C   UNL     1       1.969   1.255  23.401  0.00  0.00    +0.100 C 
BRANCH  15  17
ATOM      4  O   UNL     1       2.078  -0.053  21.395  0.00  0.00    -0.276 OA
ATOM      7  N   UNL     1       4.077   0.315  22.510  0.00  0.00    -0.291 N 
ATOM     17  C   UNL     1       2.695   0.446  22.340  0.00  0.00    +0.216 C 
ATOM     22  C   UNL     1       4.913  -0.428  21.576  0.00  0.00    +0.133 C 
BRANCH   7  21
ATOM     21  C   UNL     1       4.787   0.915  23.638  0.00  0.00    +0.226 C 
BRANCH  21  26
ATOM      8  N   UNL     1       6.113  -0.907  24.978  0.00  0.00    -0.195 NA
ATOM     26  C   UNL     1       5.526  -0.100  24.387  0.00  0.00    +0.082 C 
ENDBRANCH  21  26
ENDBRANCH   7  21
ENDBRANCH  15  17
ENDBRANCH  10  15
TORSDOF 8
ENDMDL
MODEL 3
REMARK VINA RESULT:       1.5      2.249      3.616
REMARK  Name = 11912462
REMARK  11 active torsions:
REMARK  status: ('A' for Active; 'I' for Inactive)
REMARK    1  A    between atoms: S_1  and  N_6
REMARK    2  A    between atoms: S_1  and  C_18
REMARK    3  A    between atoms: O_5  and  C_25
REMARK    4  A    between atoms: O_5  and  C_27
REMARK    5  A    between atoms: N_7  and  C_21
REMARK    6  A    between atoms: N_7  and  C_22
REMARK    7  A    between atoms: C_9  and  C_14
REMARK    8  A    between atoms: C_10  and  C_15
REMARK    9  A    between atoms: C_14  and  C_16
REMARK   10  A    between atoms: C_15  and  C_17
REMARK   11  A    between atoms: C_21  and  C_26
REMARK                            x       y       z     vdW  Elec       q    Type
REMARK                         _______ _______ _______ _____ _____    ______ ____
ROOT
ATOM      6  N   UNL     1       0.076   0.445  23.579  0.00  0.00    -0.176 NA
ATOM      9  C   UNL     1      -1.420   0.854  25.521  0.00  0.00    +0.008 C 
ATOM     10  C   UNL     1      -0.703   2.204  25.761  0.00  0.00    +0.003 C 
ATOM     11  C   UNL     1      -0.070   2.741  24.469  0.00  0.00    +0.021 C 
ATOM     12  C   UNL     1      -0.457  -0.138  24.847  0.00  0.00    +0.113 C 
ATOM     13  C   UNL     1       0.839   1.703  23.819  0.00  0.00    +0.110 C 
ENDROOT
BRANCH   6   1
ATOM      1  S   UNL     1       0.823  -0.674  22.518  0.00  0.00    +0.061 S 
ATOM      2  O   UNL     1       0.610  -0.244  21.154  0.00  0.00    -0.153 OA
ATOM      3  O   UNL     1       0.486  -2.017  22.939  0.00  0.00    -0.153 OA
BRANCH   1  18
ATOM     18  C   UNL     1       2.519  -0.389  22.916  0.00  0.00    +0.106 A 
ATOM     19  C   UNL     1       3.230  -1.364  23.597  0.00  0.00    +0.032 A 
ATOM     20  C   UNL     1       3.113   0.805  22.541  0.00  0.00    +0.032 A 
ATOM     23  C   UNL     1       4.570  -1.138  23.913  0.00  0.00    +0.047 A 
ATOM     24  C   UNL     1       4.453   1.031  22.856  0.00  0.00    +0.047 A 
ATOM     25  C   UNL     1       5.181   0.059  23.541  0.00  0.00    +0.120 A 
BRANCH  25   5
ATOM      5  O   UNL     1       6.489   0.278  23.848  0.00  0.00    -0.495 OA
ATOM     27  C   UNL     1       7.463  -0.423  23.077  0.00  0.00    +0.277 C 
ENDBRANCH  25   5
ENDBRANCH   1  18
ENDBRANCH   6   1
BRANCH   9  14
ATOM     14  C   UNL     1      -2.722   0.970  24.718  0.00  0.00    +0.002 C 
ATOM     16  C   UNL     1      -3.379  -0.382  24.544  0.00  0.00    +0.004 C 
ENDBRANCH   9  14
BRANCH  10  15
ATOM     15  C   UNL     1      -1.606   3.260  26.398  0.00  0.00    +0.100 C 
BRANCH  15  17
ATOM      4  O   UNL     1      -1.603   4.889  24.640  0.00  0.00    -0.276 OA
ATOM      7  N   UNL     1      -3.669   4.069  25.299  0.00  0.00    -0.291 N 
ATOM     17  C   UNL     1      -2.275   4.150  25.365  0.00  0.00    +0.216 C 
ATOM     22  C   UNL     1      -4.455   4.858  24.358  0.00  0.00    +0.133 C 
BRANCH   7  21
ATOM     21  C   UNL     1      -4.444   3.186  26.168  0.00  0.00    +0.226 C 
BRANCH  21  26
ATOM      8  N   UNL     1      -6.339   1.974  24.822  0.00  0.00    -0.195 NA
ATOM     26  C   UNL     1      -5.500   2.509  25.416  0.00  0.00    +0.082 C 
ENDBRANCH  21  26
ENDBRANCH   7  21
ENDBRANCH  15  17
ENDBRANCH  10  15
TORSDOF 8
ENDMDL
MODEL 4
REMARK VINA RESULT:       2.4      1.576      2.371
REMARK  Name = 11912462
REMARK  11 active torsions:
REMARK  status: ('A' for Active; 'I' for Inactive)
REMARK    1  A    between atoms: S_1  and  N_6
REMARK    2  A    between atoms: S_1  and  C_18
REMARK    3  A    between atoms: O_5  and  C_25
REMARK    4  A    between atoms: O_5  and  C_27
REMARK    5  A    between atoms: N_7  and  C_21
REMARK    6  A    between atoms: N_7  and  C_22
REMARK    7  A    between atoms: C_9  and  C_14
REMARK    8  A    between atoms: C_10  and  C_15
REMARK    9  A    between atoms: C_14  and  C_16
REMARK   10  A    between atoms: C_15  and  C_17
REMARK   11  A    between atoms: C_21  and  C_26
REMARK                            x       y       z     vdW  Elec       q    Type
REMARK                         _______ _______ _______ _____ _____    ______ ____
ROOT
ATOM      6  N   UNL     1      -1.710  -0.866  24.428  0.00  0.00    -0.176 NA
ATOM      9  C   UNL     1      -3.801   0.140  25.319  0.00  0.00    +0.008 C 
ATOM     10  C   UNL     1      -3.214   1.546  25.047  0.00  0.00    +0.003 C 
ATOM     11  C   UNL     1      -2.160   1.509  23.930  0.00  0.00    +0.021 C 
ATOM     12  C   UNL     1      -2.663  -0.861  25.578  0.00  0.00    +0.113 C 
ATOM     13  C   UNL     1      -1.081   0.470  24.216  0.00  0.00    +0.110 C 
ENDROOT
BRANCH   6   1
ATOM      1  S   UNL     1      -0.635  -2.199  24.373  0.00  0.00    +0.061 S 
ATOM      2  O   UNL     1      -1.078  -3.121  23.351  0.00  0.00    -0.153 OA
ATOM      3  O   UNL     1      -0.378  -2.649  25.725  0.00  0.00    -0.153 OA
BRANCH   1  18
ATOM     18  C   UNL     1       0.821  -1.395  23.782  0.00  0.00    +0.106 A 
ATOM     19  C   UNL     1       0.705  -0.394  22.831  0.00  0.00    +0.032 A 
ATOM     20  C   UNL     1       2.057  -1.777  24.278  0.00  0.00    +0.032 A 
ATOM     23  C   UNL     1       1.855   0.241  22.362  0.00  0.00    +0.047 A 
ATOM     24  C   UNL     1       3.207  -1.142  23.810  0.00  0.00    +0.047 A 
ATOM     25  C   UNL     1       3.106  -0.134  22.853  0.00  0.00    +0.120 A 
BRANCH  25   5
ATOM      5  O   UNL     1       4.229   0.487  22.397  0.00  0.00    -0.495 OA
ATOM     27  C   UNL     1       5.382   0.444  23.236  0.00  0.00    +0.277 C 
ENDBRANCH  25   5
ENDBRANCH   1  18
ENDBRANCH   6   1
BRANCH   9  14
ATOM     14  C   UNL     1      -4.729  -0.376  24.212  0.00  0.00    +0.002 C 
ATOM     16  C   UNL     1      -4.421  -1.817  23.867  0.00  0.00    +0.004 C 
ENDBRANCH   9  14
BRANCH  10  15
ATOM     15  C   UNL     1      -4.284   2.595  24.744  0.00  0.00    +0.100 C 
BRANCH  15  17
ATOM      4  O   UNL     1      -4.079   4.588  23.427  0.00  0.00    -0.276 OA
ATOM      7  N   UNL     1      -2.685   4.409  25.271  0.00  0.00    -0.291 N 
ATOM     17  C   UNL     1      -3.686   3.951  24.408  0.00  0.00    +0.216 C 
ATOM     22  C   UNL     1      -2.016   5.690  25.083  0.00  0.00    +0.133 C 
BRANCH   7  21
ATOM     21  C   UNL     1      -2.234   3.636  26.427  0.00  0.00    +0.226 C 
BRANCH  21  26
ATOM      8  N   UNL     1       0.278   2.934  26.163  0.00  0.00    -0.195 NA
ATOM     26  C   UNL     1      -0.834   3.244  26.278  0.00  0.00    +0.082 C 
ENDBRANCH  21  26
ENDBRANCH   7  21
ENDBRANCH  15  17
ENDBRANCH  10  15
TORSDOF 8
ENDMDL
MODEL 5
REMARK VINA RESULT:       2.7      2.217      3.342
REMARK  Name = 11912462
REMARK  11 active torsions:
REMARK  status: ('A' for Active; 'I' for Inactive)
REMARK    1  A    between atoms: S_1  and  N_6
REMARK    2  A    between atoms: S_1  and  C_18
REMARK    3  A    between atoms: O_5  and  C_25
REMARK    4  A    between atoms: O_5  and  C_27
REMARK    5  A    between atoms: N_7  and  C_21
REMARK    6  A    between atoms: N_7  and  C_22
REMARK    7  A    between atoms: C_9  and  C_14
REMARK    8  A    between atoms: C_10  and  C_15
REMARK    9  A    between atoms: C_14  and  C_16
REMARK   10  A    between atoms: C_15  and  C_17
REMARK   11  A    between atoms: C_21  and  C_26
REMARK                            x       y       z     vdW  Elec       q    Type
REMARK                         _______ _______ _______ _____ _____    ______ ____
ROOT
ATOM      6  N   UNL     1      -0.089   0.468  23.703  0.00  0.00    -0.176 NA
ATOM      9  C   UNL     1      -1.255   2.642  23.998  0.00  0.00    +0.008 C 
ATOM     10  C   UNL     1      -1.871   2.109  25.313  0.00  0.00    +0.003 C 
ATOM     11  C   UNL     1      -1.004   1.002  25.931  0.00  0.00    +0.021 C 
ATOM     12  C   UNL     1      -0.972   1.473  23.040  0.00  0.00    +0.113 C 
ATOM     13  C   UNL     1      -0.717  -0.109  24.927  0.00  0.00    +0.110 C 
ENDROOT
BRANCH   6   1
ATOM      1  S   UNL     1       0.644  -0.669  22.651  0.00  0.00    +0.061 S 
ATOM      2  O   UNL     1       0.370  -0.290  21.283  0.00  0.00    -0.153 OA
ATOM      3  O   UNL     1       0.355  -2.004  23.129  0.00  0.00    -0.153 OA
BRANCH   1  18
ATOM     18  C   UNL     1       2.347  -0.333  22.975  0.00  0.00    +0.106 A 
ATOM     19  C   UNL     1       2.866   0.911  22.656  0.00  0.00    +0.032 A 
ATOM     20  C   UNL     1       3.137  -1.319  23.544  0.00  0.00    +0.032 A 
ATOM     23  C   UNL     1       4.211   1.176  22.910  0.00  0.00    +0.047 A 
ATOM     24  C   UNL     1       4.482  -1.054  23.799  0.00  0.00    +0.047 A 
ATOM     25  C   UNL     1       5.019   0.194  23.483  0.00  0.00    +0.120 A 
BRANCH  25   5
ATOM      5  O   UNL     1       6.331   0.454  23.733  0.00  0.00    -0.495 OA
ATOM     27  C   UNL     1       7.291  -0.417  23.137  0.00  0.00    +0.277 C 
ENDBRANCH  25   5
ENDBRANCH   1  18
ENDBRANCH   6   1
BRANCH   9  14
ATOM     14  C   UNL     1       0.006   3.492  24.197  0.00  0.00    +0.002 C 
ATOM     16  C   UNL     1      -0.235   4.931  23.794  0.00  0.00    +0.004 C 
ENDBRANCH   9  14
BRANCH  10  15
ATOM     15  C   UNL     1      -2.151   3.209  26.336  0.00  0.00    +0.100 C 
BRANCH  15  17
ATOM      4  O   UNL     1      -2.902   5.323  25.490  0.00  0.00    -0.276 OA
ATOM      7  N   UNL     1      -4.528   3.714  25.872  0.00  0.00    -0.291 N 
ATOM     17  C   UNL     1      -3.212   4.187  25.860  0.00  0.00    +0.216 C 
ATOM     22  C   UNL     1      -5.657   4.531  25.442  0.00  0.00    +0.133 C 
BRANCH   7  21
ATOM     21  C   UNL     1      -4.871   2.365  26.315  0.00  0.00    +0.226 C 
BRANCH  21  26
ATOM      8  N   UNL     1      -4.902   0.698  24.291  0.00  0.00    -0.195 NA
ATOM     26  C   UNL     1      -4.890   1.435  25.187  0.00  0.00    +0.082 C 
ENDBRANCH  21  26
ENDBRANCH   7  21
ENDBRANCH  15  17
ENDBRANCH  10  15
TORSDOF 8
ENDMDL
MODEL 6
REMARK VINA RESULT:       2.7      1.492      2.178
REMARK  Name = 11912462
REMARK  11 active torsions:
REMARK  status: ('A' for Active; 'I' for Inactive)
REMARK    1  A    between atoms: S_1  and  N_6
REMARK    2  A    between atoms: S_1  and  C_18
REMARK    3  A    between atoms: O_5  and  C_25
REMARK    4  A    between atoms: O_5  and  C_27
REMARK    5  A    between atoms: N_7  and  C_21
REMARK    6  A    between atoms: N_7  and  C_22
REMARK    7  A    between atoms: C_9  and  C_14
REMARK    8  A    between atoms: C_10  and  C_15
REMARK    9  A    between atoms: C_14  and  C_16
REMARK   10  A    between atoms: C_15  and  C_17
REMARK   11  A    between atoms: C_21  and  C_26
REMARK                            x       y       z     vdW  Elec       q    Type
REMARK                         _______ _______ _______ _____ _____    ______ ____
ROOT
ATOM      6  N   UNL     1      -1.785  -0.910  24.975  0.00  0.00    -0.176 NA
ATOM      9  C   UNL     1      -4.114  -0.210  25.487  0.00  0.00    +0.008 C 
ATOM     10  C   UNL     1      -3.578   1.175  25.921  0.00  0.00    +0.003 C 
ATOM     11  C   UNL     1      -2.241   1.500  25.238  0.00  0.00    +0.021 C 
ATOM     12  C   UNL     1      -3.033  -1.281  25.706  0.00  0.00    +0.113 C 
ATOM     13  C   UNL     1      -1.221   0.386  25.450  0.00  0.00    +0.110 C 
ENDROOT
BRANCH   6   1
ATOM      1  S   UNL     1      -0.647  -2.177  24.780  0.00  0.00    +0.061 S 
ATOM      2  O   UNL     1      -1.163  -3.131  23.823  0.00  0.00    -0.153 OA
ATOM      3  O   UNL     1      -0.190  -2.601  26.086  0.00  0.00    -0.153 OA
BRANCH   1  18
ATOM     18  C   UNL     1       0.668  -1.291  24.005  0.00  0.00    +0.106 A 
ATOM     19  C   UNL     1       1.976  -1.698  24.212  0.00  0.00    +0.032 A 
ATOM     20  C   UNL     1       0.371  -0.203  23.200  0.00  0.00    +0.032 A 
ATOM     23  C   UNL     1       3.015  -0.997  23.601  0.00  0.00    +0.047 A 
ATOM     24  C   UNL     1       1.411   0.498  22.588  0.00  0.00    +0.047 A 
ATOM     25  C   UNL     1       2.732   0.100  22.788  0.00  0.00    +0.120 A 
BRANCH  25   5
ATOM      5  O   UNL     1       3.747   0.783  22.190  0.00  0.00    -0.495 OA
ATOM     27  C   UNL     1       5.010   0.781  22.852  0.00  0.00    +0.277 C 
ENDBRANCH  25   5
ENDBRANCH   1  18
ENDBRANCH   6   1
BRANCH   9  14
ATOM     14  C   UNL     1      -4.632  -0.256  24.044  0.00  0.00    +0.002 C 
ATOM     16  C   UNL     1      -4.433  -1.628  23.435  0.00  0.00    +0.004 C 
ENDBRANCH   9  14
BRANCH  10  15
ATOM     15  C   UNL     1      -4.584   2.305  25.701  0.00  0.00    +0.100 C 
BRANCH  15  17
ATOM      4  O   UNL     1      -3.501   4.293  26.489  0.00  0.00    -0.276 OA
ATOM      7  N   UNL     1      -3.786   4.100  24.196  0.00  0.00    -0.291 N 
ATOM     17  C   UNL     1      -3.909   3.653  25.516  0.00  0.00    +0.216 C 
ATOM     22  C   UNL     1      -3.160   5.371  23.855  0.00  0.00    +0.133 C 
BRANCH   7  21
ATOM     21  C   UNL     1      -4.277   3.324  23.059  0.00  0.00    +0.226 C 
BRANCH  21  26
ATOM      8  N   UNL     1      -2.319   2.022  21.898  0.00  0.00    -0.195 NA
ATOM     26  C   UNL     1      -3.185   2.600  22.411  0.00  0.00    +0.082 C 
ENDBRANCH  21  26
ENDBRANCH   7  21
ENDBRANCH  15  17
ENDBRANCH  10  15
TORSDOF 8
ENDMDL
MODEL 7
REMARK VINA RESULT:       2.9      3.128      7.757
REMARK  Name = 11912462
REMARK  11 active torsions:
REMARK  status: ('A' for Active; 'I' for Inactive)
REMARK    1  A    between atoms: S_1  and  N_6
REMARK    2  A    between atoms: S_1  and  C_18
REMARK    3  A    between atoms: O_5  and  C_25
REMARK    4  A    between atoms: O_5  and  C_27
REMARK    5  A    between atoms: N_7  and  C_21
REMARK    6  A    between atoms: N_7  and  C_22
REMARK    7  A    between atoms: C_9  and  C_14
REMARK    8  A    between atoms: C_10  and  C_15
REMARK    9  A    between atoms: C_14  and  C_16
REMARK   10  A    between atoms: C_15  and  C_17
REMARK   11  A    between atoms: C_21  and  C_26
REMARK                            x       y       z     vdW  Elec       q    Type
REMARK                         _______ _______ _______ _____ _____    ______ ____
ROOT
ATOM      6  N   UNL     1      -1.891   3.007  24.316  0.00  0.00    -0.176 NA
ATOM      9  C   UNL     1      -1.437   0.786  23.298  0.00  0.00    +0.008 C 
ATOM     10  C   UNL     1       0.063   1.154  23.216  0.00  0.00    +0.003 C 
ATOM     11  C   UNL     1       0.442   2.206  24.270  0.00  0.00    +0.021 C 
ATOM     12  C   UNL     1      -2.294   2.061  23.233  0.00  0.00    +0.113 C 
ATOM     13  C   UNL     1      -0.466   3.428  24.190  0.00  0.00    +0.110 C 
ENDROOT
BRANCH   6   1
ATOM      1  S   UNL     1      -3.003   4.271  24.634  0.00  0.00    +0.061 S 
ATOM      2  O   UNL     1      -3.459   4.825  23.378  0.00  0.00    -0.153 OA
ATOM      3  O   UNL     1      -2.461   5.121  25.672  0.00  0.00    -0.153 OA
BRANCH   1  18
ATOM     18  C   UNL     1      -4.332   3.342  25.331  0.00  0.00    +0.106 A 
ATOM     19  C   UNL     1      -4.662   3.523  26.664  0.00  0.00    +0.032 A 
ATOM     20  C   UNL     1      -5.026   2.447  24.532  0.00  0.00    +0.032 A 
ATOM     23  C   UNL     1      -5.712   2.788  27.215  0.00  0.00    +0.047 A 
ATOM     24  C   UNL     1      -6.077   1.712  25.083  0.00  0.00    +0.047 A 
ATOM     25  C   UNL     1      -6.420   1.883  26.423  0.00  0.00    +0.120 A 
BRANCH  25   5
ATOM      5  O   UNL     1      -7.445   1.168  26.960  0.00  0.00    -0.495 OA
ATOM     27  C   UNL     1      -7.240   0.611  28.258  0.00  0.00    +0.277 C 
ENDBRANCH  25   5
ENDBRANCH   1  18
ENDBRANCH   6   1
BRANCH   9  14
ATOM     14  C   UNL     1      -1.810  -0.051  24.528  0.00  0.00    +0.002 C 
ATOM     16  C   UNL     1      -3.153  -0.725  24.344  0.00  0.00    +0.004 C 
ENDBRANCH   9  14
BRANCH  10  15
ATOM     15  C   UNL     1       0.987  -0.060  23.310  0.00  0.00    +0.100 C 
BRANCH  15  17
ATOM      4  O   UNL     1       1.456  -0.683  21.043  0.00  0.00    -0.276 OA
ATOM      7  N   UNL     1       3.201   0.254  22.249  0.00  0.00    -0.291 N 
ATOM     17  C   UNL     1       1.886  -0.199  22.093  0.00  0.00    +0.216 C 
ATOM     22  C   UNL     1       4.183   0.191  21.174  0.00  0.00    +0.133 C 
BRANCH   7  21
ATOM     21  C   UNL     1       3.688   0.824  23.503  0.00  0.00    +0.226 C 
BRANCH  21  26
ATOM      8  N   UNL     1       6.032  -0.170  24.130  0.00  0.00    -0.195 NA
ATOM     26  C   UNL     1       4.995   0.271  23.854  0.00  0.00    +0.082 C 
ENDBRANCH  21  26
ENDBRANCH   7  21
ENDBRANCH  15  17
ENDBRANCH  10  15
TORSDOF 8
ENDMDL
MODEL 8
REMARK VINA RESULT:       2.9      2.714      7.312
REMARK  Name = 11912462
REMARK  11 active torsions:
REMARK  status: ('A' for Active; 'I' for Inactive)
REMARK    1  A    between atoms: S_1  and  N_6
REMARK    2  A    between atoms: S_1  and  C_18
REMARK    3  A    between atoms: O_5  and  C_25
REMARK    4  A    between atoms: O_5  and  C_27
REMARK    5  A    between atoms: N_7  and  C_21
REMARK    6  A    between atoms: N_7  and  C_22
REMARK    7  A    between atoms: C_9  and  C_14
REMARK    8  A    between atoms: C_10  and  C_15
REMARK    9  A    between atoms: C_14  and  C_16
REMARK   10  A    between atoms: C_15  and  C_17
REMARK   11  A    between atoms: C_21  and  C_26
REMARK                            x       y       z     vdW  Elec       q    Type
REMARK                         _______ _______ _______ _____ _____    ______ ____
ROOT
ATOM      6  N   UNL     1      -2.326  -0.385  24.703  0.00  0.00    -0.176 NA
ATOM      9  C   UNL     1      -0.154  -0.931  23.625  0.00  0.00    +0.008 C 
ATOM     10  C   UNL     1       0.163   0.581  23.548  0.00  0.00    +0.003 C 
ATOM     11  C   UNL     1      -0.593   1.369  24.629  0.00  0.00    +0.021 C 
ATOM     12  C   UNL     1      -1.676  -1.148  23.596  0.00  0.00    +0.113 C 
ATOM     13  C   UNL     1      -2.090   1.083  24.584  0.00  0.00    +0.110 C 
ENDROOT
BRANCH   6   1
ATOM      1  S   UNL     1      -3.939  -0.840  25.058  0.00  0.00    +0.061 S 
ATOM      2  O   UNL     1      -3.967  -1.516  26.337  0.00  0.00    -0.153 OA
ATOM      3  O   UNL     1      -4.525  -1.445  23.881  0.00  0.00    -0.153 OA
BRANCH   1  18
ATOM     18  C   UNL     1      -4.668   0.753  25.272  0.00  0.00    +0.106 A 
ATOM     19  C   UNL     1      -5.590   0.947  26.288  0.00  0.00    +0.032 A 
ATOM     20  C   UNL     1      -4.306   1.784  24.421  0.00  0.00    +0.032 A 
ATOM     23  C   UNL     1      -6.167   2.205  26.457  0.00  0.00    +0.047 A 
ATOM     24  C   UNL     1      -4.882   3.044  24.590  0.00  0.00    +0.047 A 
ATOM     25  C   UNL     1      -5.812   3.254  25.608  0.00  0.00    +0.120 A 
BRANCH  25   5
ATOM      5  O   UNL     1      -6.374   4.483  25.773  0.00  0.00    -0.495 OA
ATOM     27  C   UNL     1      -5.824   5.557  25.013  0.00  0.00    +0.277 C 
ENDBRANCH  25   5
ENDBRANCH   1  18
ENDBRANCH   6   1
BRANCH   9  14
ATOM     14  C   UNL     1       0.468  -1.641  24.834  0.00  0.00    +0.002 C 
ATOM     16  C   UNL     1      -0.488  -2.655  25.424  0.00  0.00    +0.004 C 
ENDBRANCH   9  14
BRANCH  10  15
ATOM     15  C   UNL     1       1.660   0.886  23.607  0.00  0.00    +0.100 C 
BRANCH  15  17
ATOM      4  O   UNL     1       1.795  -0.107  21.429  0.00  0.00    -0.276 OA
ATOM      7  N   UNL     1       3.803   0.417  22.462  0.00  0.00    -0.291 N 
ATOM     17  C   UNL     1       2.407   0.351  22.397  0.00  0.00    +0.216 C 
ATOM     22  C   UNL     1       4.660  -0.053  21.381  0.00  0.00    +0.133 C 
BRANCH   7  21
ATOM     21  C   UNL     1       4.507   0.965  23.620  0.00  0.00    +0.226 C 
BRANCH  21  26
ATOM      8  N   UNL     1       6.020  -0.859  24.745  0.00  0.00    -0.195 NA
ATOM     26  C   UNL     1       5.350  -0.053  24.246  0.00  0.00    +0.082 C 
ENDBRANCH  21  26
ENDBRANCH   7  21
ENDBRANCH  15  17
ENDBRANCH  10  15
TORSDOF 8
ENDMDL
MODEL 9
REMARK VINA RESULT:       3.3      3.086      7.634
REMARK  Name = 11912462
REMARK  11 active torsions:
REMARK  status: ('A' for Active; 'I' for Inactive)
REMARK    1  A    between atoms: S_1  and  N_6
REMARK    2  A    between atoms: S_1  and  C_18
REMARK    3  A    between atoms: O_5  and  C_25
REMARK    4  A    between atoms: O_5  and  C_27
REMARK    5  A    between atoms: N_7  and  C_21
REMARK    6  A    between atoms: N_7  and  C_22
REMARK    7  A    between atoms: C_9  and  C_14
REMARK    8  A    between atoms: C_10  and  C_15
REMARK    9  A    between atoms: C_14  and  C_16
REMARK   10  A    between atoms: C_15  and  C_17
REMARK   11  A    between atoms: C_21  and  C_26
REMARK                            x       y       z     vdW  Elec       q    Type
REMARK                         _______ _______ _______ _____ _____    ______ ____
ROOT
ATOM      6  N   UNL     1      -1.272   2.600  25.243  0.00  0.00    -0.176 NA
ATOM      9  C   UNL     1      -1.161   0.358  24.179  0.00  0.00    +0.008 C 
ATOM     10  C   UNL     1       0.179   0.762  23.519  0.00  0.00    +0.003 C 
ATOM     11  C   UNL     1       0.893   1.859  24.323  0.00  0.00    +0.021 C 
ATOM     12  C   UNL     1      -2.024   1.607  24.419  0.00  0.00    +0.113 C 
ATOM     13  C   UNL     1      -0.021   3.054  24.570  0.00  0.00    +0.110 C 
ENDROOT
BRANCH   6   1
ATOM      1  S   UNL     1      -2.224   3.846  25.936  0.00  0.00    +0.061 S 
ATOM      2  O   UNL     1      -2.044   5.059  25.169  0.00  0.00    -0.153 OA
ATOM      3  O   UNL     1      -2.038   3.835  27.371  0.00  0.00    -0.153 OA
BRANCH   1  18
ATOM     18  C   UNL     1      -3.840   3.224  25.592  0.00  0.00    +0.106 A 
ATOM     19  C   UNL     1      -3.998   1.887  25.268  0.00  0.00    +0.032 A 
ATOM     20  C   UNL     1      -4.925   4.084  25.654  0.00  0.00    +0.032 A 
ATOM     23  C   UNL     1      -5.275   1.396  24.995  0.00  0.00    +0.047 A 
ATOM     24  C   UNL     1      -6.202   3.593  25.382  0.00  0.00    +0.047 A 
ATOM     25  C   UNL     1      -6.377   2.249  25.053  0.00  0.00    +0.120 A 
BRANCH  25   5
ATOM      5  O   UNL     1      -7.623   1.769  24.789  0.00  0.00    -0.495 OA
ATOM     27  C   UNL     1      -7.876   1.316  23.460  0.00  0.00    +0.277 C 
ENDBRANCH  25   5
ENDBRANCH   1  18
ENDBRANCH   6   1
BRANCH   9  14
ATOM     14  C   UNL     1      -1.002  -0.445  25.477  0.00  0.00    +0.002 C 
ATOM     16  C   UNL     1      -2.294  -1.139  25.851  0.00  0.00    +0.004 C 
ENDBRANCH   9  14
BRANCH  10  15
ATOM     15  C   UNL     1       1.113  -0.424  23.278  0.00  0.00    +0.100 C 
BRANCH  15  17
ATOM      4  O   UNL     1       1.448  -0.570  20.908  0.00  0.00    -0.276 OA
ATOM      7  N   UNL     1       3.226   0.227  22.166  0.00  0.00    -0.291 N 
ATOM     17  C   UNL     1       1.928  -0.269  22.005  0.00  0.00    +0.216 C 
ATOM     22  C   UNL     1       4.130   0.433  21.041  0.00  0.00    +0.133 C 
BRANCH   7  21
ATOM     21  C   UNL     1       3.773   0.576  23.475  0.00  0.00    +0.226 C 
BRANCH  21  26
ATOM      8  N   UNL     1       6.221  -0.327  23.738  0.00  0.00    -0.195 NA
ATOM     26  C   UNL     1       5.139   0.073  23.620  0.00  0.00    +0.082 C 
ENDBRANCH  21  26
ENDBRANCH   7  21
ENDBRANCH  15  17
ENDBRANCH  10  15
TORSDOF 8
ENDMDL
MODEL 10
REMARK VINA RESULT:       3.7      1.612      2.702
REMARK  Name = 11912462
REMARK  11 active torsions:
REMARK  status: ('A' for Active; 'I' for Inactive)
REMARK    1  A    between atoms: S_1  and  N_6
REMARK    2  A    between atoms: S_1  and  C_18
REMARK    3  A    between atoms: O_5  and  C_25
REMARK    4  A    between atoms: O_5  and  C_27
REMARK    5  A    between atoms: N_7  and  C_21
REMARK    6  A    between atoms: N_7  and  C_22
REMARK    7  A    between atoms: C_9  and  C_14
REMARK    8  A    between atoms: C_10  and  C_15
REMARK    9  A    between atoms: C_14  and  C_16
REMARK   10  A    between atoms: C_15  and  C_17
REMARK   11  A    between atoms: C_21  and  C_26
REMARK                            x       y       z     vdW  Elec       q    Type
REMARK                         _______ _______ _______ _____ _____    ______ ____
ROOT
ATOM      6  N   UNL     1      -1.477  -0.103  24.197  0.00  0.00    -0.176 NA
ATOM      9  C   UNL     1      -1.506   2.295  23.545  0.00  0.00    +0.008 C 
ATOM     10  C   UNL     1      -2.969   2.125  23.070  0.00  0.00    +0.003 C 
ATOM     11  C   UNL     1      -3.665   0.964  23.797  0.00  0.00    +0.021 C 
ATOM     12  C   UNL     1      -0.759   0.956  23.427  0.00  0.00    +0.113 C 
ATOM     13  C   UNL     1      -2.860  -0.326  23.686  0.00  0.00    +0.110 C 
ENDROOT
BRANCH   6   1
ATOM      1  S   UNL     1      -0.571  -1.526  24.504  0.00  0.00    +0.061 S 
ATOM      2  O   UNL     1      -1.071  -2.592  23.664  0.00  0.00    -0.153 OA
ATOM      3  O   UNL     1      -0.443  -1.699  25.935  0.00  0.00    -0.153 OA
BRANCH   1  18
ATOM     18  C   UNL     1       1.001  -1.031  23.872  0.00  0.00    +0.106 A 
ATOM     19  C   UNL     1       2.146  -1.663  24.329  0.00  0.00    +0.032 A 
ATOM     20  C   UNL     1       1.064  -0.018  22.928  0.00  0.00    +0.032 A 
ATOM     23  C   UNL     1       3.388  -1.271  23.830  0.00  0.00    +0.047 A 
ATOM     24  C   UNL     1       2.307   0.373  22.429  0.00  0.00    +0.047 A 
ATOM     25  C   UNL     1       3.468  -0.253  22.879  0.00  0.00    +0.120 A 
BRANCH  25   5
ATOM      5  O   UNL     1       4.680   0.127  22.392  0.00  0.00    -0.495 OA
ATOM     27  C   UNL     1       5.776   0.132  23.306  0.00  0.00    +0.277 C 
ENDBRANCH  25   5
ENDBRANCH   1  18
ENDBRANCH   6   1
BRANCH   9  14
ATOM     14  C   UNL     1      -1.371   2.864  24.963  0.00  0.00    +0.002 C 
ATOM     16  C   UNL     1      -0.056   2.456  25.592  0.00  0.00    +0.004 C 
ENDBRANCH   9  14
BRANCH  10  15
ATOM     15  C   UNL     1      -3.793   3.407  23.189  0.00  0.00    +0.100 C 
BRANCH  15  17
ATOM      4  O   UNL     1      -2.855   4.855  24.853  0.00  0.00    -0.276 OA
ATOM      7  N   UNL     1      -4.674   3.569  25.496  0.00  0.00    -0.291 N 
ATOM     17  C   UNL     1      -3.718   4.016  24.578  0.00  0.00    +0.216 C 
ATOM     22  C   UNL     1      -4.734   4.060  26.867  0.00  0.00    +0.133 C 
BRANCH   7  21
ATOM     21  C   UNL     1      -5.687   2.574  25.147  0.00  0.00    +0.226 C 
BRANCH  21  26
ATOM      8  N   UNL     1      -6.749   1.526  27.303  0.00  0.00    -0.195 NA
ATOM     26  C   UNL     1      -6.277   1.989  26.350  0.00  0.00    +0.082 C 
ENDBRANCH  21  26
ENDBRANCH   7  21
ENDBRANCH  15  17
ENDBRANCH  10  15
TORSDOF 8
ENDMDL
