MODEL 1
REMARK VINA RESULT:      -4.3      0.000      0.000
REMARK  Name = 26743872
REMARK  8 active torsions:
REMARK  status: ('A' for Active; 'I' for Inactive)
REMARK    1  A    between atoms: O_1  and  C_10
REMARK    2  A    between atoms: N_4  and  C_12
REMARK    3  A    between atoms: N_7  and  C_21
REMARK    4  A    between atoms: C_8  and  C_13
REMARK    5  A    between atoms: C_12  and  C_14
REMARK    6  A    between atoms: C_17  and  C_20
REMARK    7  A    between atoms: C_24  and  C_28
REMARK    8  A    between atoms: C_27  and  C_29
REMARK                            x       y       z     vdW  Elec       q    Type
REMARK                         _______ _______ _______ _____ _____    ______ ____
ROOT
ATOM      4  N   UNL     1      -7.917  -9.636  16.125  0.00  0.00    -0.285 NA
ATOM      8  C   UNL     1      -9.261 -10.013  15.641  0.00  0.00    +0.149 C 
ATOM      9  C   UNL     1     -10.197  -8.920  16.190  0.00  0.00    +0.061 C 
ATOM     10  C   UNL     1      -9.296  -8.002  17.006  0.00  0.00    +0.130 C 
ATOM     11  C   UNL     1      -8.118  -8.887  17.364  0.00  0.00    +0.116 C 
ENDROOT
BRANCH   8  13
ATOM      2  O   UNL     1     -10.413 -10.768  13.622  0.00  0.00    -0.336 OA
ATOM      5  N   UNL     1      -8.474  -9.717  13.230  0.00  0.00    -0.190 NA
ATOM      6  N   UNL     1     -10.250 -10.759  12.232  0.00  0.00    -0.056 NA
ATOM     13  C   UNL     1      -9.325 -10.135  14.134  0.00  0.00    +0.245 A 
ATOM     17  C   UNL     1      -9.085 -10.123  12.078  0.00  0.00    +0.202 A 
BRANCH  17  20
ATOM     20  C   UNL     1      -8.504  -9.875  10.791  0.00  0.00    +0.023 A 
ATOM     22  C   UNL     1      -7.315  -9.151  10.688  0.00  0.00    +0.015 A 
ATOM     23  C   UNL     1      -9.127 -10.359   9.640  0.00  0.00    +0.012 A 
ATOM     24  C   UNL     1      -6.751  -8.912   9.435  0.00  0.00    -0.050 A 
ATOM     25  C   UNL     1      -8.562 -10.120   8.389  0.00  0.00    +0.001 A 
ATOM     26  C   UNL     1      -7.373  -9.397   8.286  0.00  0.00    +0.003 A 
ATOM     28  C   UNL     1      -5.481  -8.139   9.325  0.00  0.00    +0.044 C 
ENDBRANCH  17  20
ENDBRANCH   8  13
BRANCH  10   1
ATOM      1  O   UNL     1      -9.969  -7.532  18.159  0.00  0.00    -0.390 OA
ATOM     30  H   UNL     1      -9.446  -7.803  18.933  0.00  0.00    +0.210 HD
ENDBRANCH  10   1
BRANCH   4  12
ATOM     12  C   UNL     1      -7.033 -10.778  16.312  0.00  0.00    +0.120 C 
BRANCH  12  14
ATOM     14  C   UNL     1      -5.764 -10.642  15.512  0.00  0.00    -0.033 A 
ATOM     15  C   UNL     1      -5.824 -10.525  14.123  0.00  0.00    +0.007 A 
ATOM     16  C   UNL     1      -4.529 -10.633  16.160  0.00  0.00    +0.007 A 
ATOM     18  C   UNL     1      -4.649 -10.398  13.382  0.00  0.00    +0.023 A 
ATOM     19  C   UNL     1      -3.354 -10.506  15.420  0.00  0.00    +0.023 A 
ATOM     21  C   UNL     1      -3.413 -10.389  14.030  0.00  0.00    +0.033 A 
BRANCH  21   7
ATOM      3  O   UNL     1      -3.002  -9.901  11.088  0.00  0.00    -0.276 OA
ATOM      7  N   UNL     1      -2.239 -10.262  13.289  0.00  0.00    -0.286 N 
ATOM     27  C   UNL     1      -2.104 -10.035  11.913  0.00  0.00    +0.214 C 
ATOM     29  C   UNL     1      -0.656  -9.959  11.497  0.00  0.00    +0.109 C 
ATOM     31  H   UNL     1      -1.376 -10.346  13.824  0.00  0.00    +0.155 HD
ENDBRANCH  21   7
ENDBRANCH  12  14
ENDBRANCH   4  12
TORSDOF 6
ENDMDL
MODEL 2
REMARK VINA RESULT:      -1.5      1.634      2.285
REMARK  Name = 26743872
REMARK  8 active torsions:
REMARK  status: ('A' for Active; 'I' for Inactive)
REMARK    1  A    between atoms: O_1  and  C_10
REMARK    2  A    between atoms: N_4  and  C_12
REMARK    3  A    between atoms: N_7  and  C_21
REMARK    4  A    between atoms: C_8  and  C_13
REMARK    5  A    between atoms: C_12  and  C_14
REMARK    6  A    between atoms: C_17  and  C_20
REMARK    7  A    between atoms: C_24  and  C_28
REMARK    8  A    between atoms: C_27  and  C_29
REMARK                            x       y       z     vdW  Elec       q    Type
REMARK                         _______ _______ _______ _____ _____    ______ ____
ROOT
ATOM      4  N   UNL     1      -5.968  -9.804  16.291  0.00  0.00    -0.285 NA
ATOM      8  C   UNL     1      -7.220 -10.355  15.734  0.00  0.00    +0.149 C 
ATOM      9  C   UNL     1      -8.341  -9.534  16.399  0.00  0.00    +0.061 C 
ATOM     10  C   UNL     1      -7.623  -8.581  17.346  0.00  0.00    +0.130 C 
ATOM     11  C   UNL     1      -6.300  -9.274  17.613  0.00  0.00    +0.116 C 
ENDROOT
BRANCH   8  13
ATOM      2  O   UNL     1      -8.386 -10.772  13.627  0.00  0.00    -0.336 OA
ATOM      5  N   UNL     1      -6.368  -9.830  13.385  0.00  0.00    -0.190 NA
ATOM      6  N   UNL     1      -8.196 -10.607  12.250  0.00  0.00    -0.056 NA
ATOM     13  C   UNL     1      -7.264 -10.289  14.223  0.00  0.00    +0.245 A 
ATOM     17  C   UNL     1      -6.985 -10.047  12.187  0.00  0.00    +0.202 A 
BRANCH  17  20
ATOM     20  C   UNL     1      -6.363  -9.689  10.945  0.00  0.00    +0.023 A 
ATOM     22  C   UNL     1      -6.812  -8.576  10.234  0.00  0.00    +0.015 A 
ATOM     23  C   UNL     1      -5.307 -10.455  10.448  0.00  0.00    +0.012 A 
ATOM     24  C   UNL     1      -6.205  -8.229   9.026  0.00  0.00    -0.050 A 
ATOM     25  C   UNL     1      -4.701 -10.107   9.242  0.00  0.00    +0.001 A 
ATOM     26  C   UNL     1      -5.150  -8.994   8.531  0.00  0.00    +0.003 A 
ATOM     28  C   UNL     1      -6.684  -7.039   8.266  0.00  0.00    +0.044 C 
ENDBRANCH  17  20
ENDBRANCH   8  13
BRANCH  10   1
ATOM      1  O   UNL     1      -8.368  -8.398  18.535  0.00  0.00    -0.390 OA
ATOM     30  H   UNL     1      -8.917  -7.604  18.415  0.00  0.00    +0.210 HD
ENDBRANCH  10   1
BRANCH   4  12
ATOM     12  C   UNL     1      -4.887 -10.779  16.349  0.00  0.00    +0.120 C 
BRANCH  12  14
ATOM     14  C   UNL     1      -3.770 -10.435  15.399  0.00  0.00    -0.033 A 
ATOM     15  C   UNL     1      -2.566  -9.928  15.890  0.00  0.00    +0.007 A 
ATOM     16  C   UNL     1      -3.939 -10.623  14.027  0.00  0.00    +0.007 A 
ATOM     18  C   UNL     1      -1.532  -9.610  15.010  0.00  0.00    +0.023 A 
ATOM     19  C   UNL     1      -2.905 -10.305  13.147  0.00  0.00    +0.023 A 
ATOM     21  C   UNL     1      -1.701  -9.798  13.638  0.00  0.00    +0.033 A 
BRANCH  21   7
ATOM      3  O   UNL     1      -1.782  -8.960  10.748  0.00  0.00    -0.276 OA
ATOM      7  N   UNL     1      -0.667  -9.481  12.759  0.00  0.00    -0.286 N 
ATOM     27  C   UNL     1      -0.761  -9.095  11.414  0.00  0.00    +0.214 C 
ATOM     29  C   UNL     1       0.596  -8.838  10.810  0.00  0.00    +0.109 C 
ATOM     31  H   UNL     1       0.271  -9.539  13.151  0.00  0.00    +0.155 HD
ENDBRANCH  21   7
ENDBRANCH  12  14
ENDBRANCH   4  12
TORSDOF 6
ENDMDL
MODEL 3
REMARK VINA RESULT:      -0.5     14.302     16.943
REMARK  Name = 26743872
REMARK  8 active torsions:
REMARK  status: ('A' for Active; 'I' for Inactive)
REMARK    1  A    between atoms: O_1  and  C_10
REMARK    2  A    between atoms: N_4  and  C_12
REMARK    3  A    between atoms: N_7  and  C_21
REMARK    4  A    between atoms: C_8  and  C_13
REMARK    5  A    between atoms: C_12  and  C_14
REMARK    6  A    between atoms: C_17  and  C_20
REMARK    7  A    between atoms: C_24  and  C_28
REMARK    8  A    between atoms: C_27  and  C_29
REMARK                            x       y       z     vdW  Elec       q    Type
REMARK                         _______ _______ _______ _____ _____    ______ ____
ROOT
ATOM      4  N   UNL     1      -3.941   4.066  25.631  0.00  0.00    -0.285 NA
ATOM      8  C   UNL     1      -4.974   3.104  26.065  0.00  0.00    +0.149 C 
ATOM      9  C   UNL     1      -6.310   3.747  25.646  0.00  0.00    +0.061 C 
ATOM     10  C   UNL     1      -5.927   5.086  25.028  0.00  0.00    +0.130 C 
ATOM     11  C   UNL     1      -4.572   5.385  25.640  0.00  0.00    +0.116 C 
ENDROOT
BRANCH   8  13
ATOM      2  O   UNL     1      -5.820   1.214  24.767  0.00  0.00    -0.336 OA
ATOM      5  N   UNL     1      -3.733   0.938  25.532  0.00  0.00    -0.190 NA
ATOM      6  N   UNL     1      -5.407  -0.048  24.323  0.00  0.00    -0.056 NA
ATOM     13  C   UNL     1      -4.776   1.727  25.470  0.00  0.00    +0.245 A 
ATOM     17  C   UNL     1      -4.167  -0.139  24.814  0.00  0.00    +0.202 A 
BRANCH  17  20
ATOM     20  C   UNL     1      -3.336  -1.288  24.605  0.00  0.00    +0.023 A 
ATOM     22  C   UNL     1      -2.004  -1.272  25.019  0.00  0.00    +0.015 A 
ATOM     23  C   UNL     1      -3.860  -2.425  23.988  0.00  0.00    +0.012 A 
ATOM     24  C   UNL     1      -1.197  -2.392  24.816  0.00  0.00    -0.050 A 
ATOM     25  C   UNL     1      -3.054  -3.544  23.786  0.00  0.00    +0.001 A 
ATOM     26  C   UNL     1      -1.721  -3.528  24.200  0.00  0.00    +0.003 A 
ATOM     28  C   UNL     1       0.227  -2.375  25.259  0.00  0.00    +0.044 C 
ENDBRANCH  17  20
ENDBRANCH   8  13
BRANCH  10   1
ATOM      1  O   UNL     1      -6.880   6.080  25.352  0.00  0.00    -0.390 OA
ATOM     30  H   UNL     1      -7.620   5.990  24.727  0.00  0.00    +0.210 HD
ENDBRANCH  10   1
BRANCH   4  12
ATOM     12  C   UNL     1      -2.740   4.028  26.454  0.00  0.00    +0.120 C 
BRANCH  12  14
ATOM     14  C   UNL     1      -1.594   3.358  25.743  0.00  0.00    -0.033 A 
ATOM     15  C   UNL     1      -1.495   3.432  24.353  0.00  0.00    +0.007 A 
ATOM     16  C   UNL     1      -0.631   2.662  26.475  0.00  0.00    +0.007 A 
ATOM     18  C   UNL     1      -0.433   2.812  23.696  0.00  0.00    +0.023 A 
ATOM     19  C   UNL     1       0.431   2.042  25.817  0.00  0.00    +0.023 A 
ATOM     21  C   UNL     1       0.530   2.116  24.427  0.00  0.00    +0.033 A 
BRANCH  21   7
ATOM      3  O   UNL     1       0.570  -0.290  22.617  0.00  0.00    -0.276 OA
ATOM      7  N   UNL     1       1.591   1.496  23.768  0.00  0.00    -0.286 N 
ATOM     27  C   UNL     1       1.554   0.371  22.933  0.00  0.00    +0.214 C 
ATOM     29  C   UNL     1       2.924   0.013  22.414  0.00  0.00    +0.109 C 
ATOM     31  H   UNL     1       2.504   1.922  23.918  0.00  0.00    +0.155 HD
ENDBRANCH  21   7
ENDBRANCH  12  14
ENDBRANCH   4  12
TORSDOF 6
ENDMDL
