MODEL 1
REMARK VINA RESULT:       8.2      0.000      0.000
REMARK  Name = 7128114
REMARK  8 active torsions:
REMARK  status: ('A' for Active; 'I' for Inactive)
REMARK    1  A    between atoms: N_6  and  C_13
REMARK    2  A    between atoms: N_7  and  C_17
REMARK    3  A    between atoms: N_8  and  C_26
REMARK    4  A    between atoms: C_14  and  C_20
REMARK    5  A    between atoms: C_25  and  C_28
REMARK    6  A    between atoms: C_26  and  C_27
REMARK    7  A    between atoms: C_26  and  C_30
REMARK    8  A    between atoms: C_27  and  C_29
REMARK                            x       y       z     vdW  Elec       q    Type
REMARK                         _______ _______ _______ _____ _____    ______ ____
ROOT
ATOM      3  O   UNL     1       0.125   3.717  25.479  0.00  0.00    -0.268 OA
ATOM      5  N   UNL     1      -0.173   1.406  25.504  0.00  0.00    -0.283 N 
ATOM     13  C   UNL     1      -0.342  -0.238  23.804  0.00  0.00    +0.105 C 
ATOM     14  C   UNL     1      -0.486   1.258  24.087  0.00  0.00    +0.182 C 
ATOM     15  C   UNL     1      -0.651  -0.886  25.155  0.00  0.00    +0.043 C 
ATOM     16  C   UNL     1      -0.101   0.107  26.170  0.00  0.00    +0.111 C 
ATOM     25  C   UNL     1       0.191   2.631  26.051  0.00  0.00    +0.267 C 
ENDROOT
BRANCH  13   6
ATOM      2  O   UNL     1       1.831   1.605  23.412  0.00  0.00    -0.253 OA
ATOM      6  N   UNL     1       0.997  -0.560  23.370  0.00  0.00    -0.294 N 
ATOM      7  N   UNL     1       3.186  -0.172  22.780  0.00  0.00    -0.297 N 
ATOM     24  C   UNL     1       1.990   0.403  23.206  0.00  0.00    +0.300 C 
ATOM     41  H   UNL     1       1.206  -1.519  23.108  0.00  0.00    +0.151 HD
ATOM     42  H   UNL     1       3.187  -1.165  22.572  0.00  0.00    +0.151 HD
BRANCH   7  17
ATOM     17  C   UNL     1       4.386   0.594  22.530  0.00  0.00    +0.074 C 
ATOM     18  C   UNL     1       5.496  -0.293  21.958  0.00  0.00    +0.022 C 
ATOM     19  C   UNL     1       4.851   1.319  23.798  0.00  0.00    +0.022 C 
ATOM     21  C   UNL     1       6.078  -1.248  23.001  0.00  0.00    +0.002 C 
ATOM     22  C   UNL     1       5.434   0.361  24.838  0.00  0.00    +0.002 C 
ATOM     23  C   UNL     1       6.544  -0.503  24.248  0.00  0.00    +0.000 C 
ENDBRANCH   7  17
ENDBRANCH  13   6
BRANCH  25  28
ATOM      9  N   UNL     1       2.040   2.741  27.572  0.00  0.00    -0.247 NA
ATOM     12  N   UNL     1       0.320   2.493  29.774  0.00  0.00    -0.259 NA
ATOM     28  C   UNL     1       0.705   2.624  27.426  0.00  0.00    +0.144 A 
ATOM     32  C   UNL     1      -0.139   2.503  28.508  0.00  0.00    +0.143 A 
ATOM     36  C   UNL     1       2.499   2.733  28.840  0.00  0.00    +0.131 A 
ATOM     38  C   UNL     1       1.656   2.612  29.921  0.00  0.00    +0.130 A 
ENDBRANCH  25  28
BRANCH  14  20
ATOM      1  O   UNL     1      -2.452   1.727  22.816  0.00  0.00    -0.274 OA
ATOM      8  N   UNL     1      -2.465   2.140  25.107  0.00  0.00    -0.302 N 
ATOM     20  C   UNL     1      -1.902   1.720  23.914  0.00  0.00    +0.236 C 
ATOM     43  H   UNL     1      -1.948   1.995  25.969  0.00  0.00    +0.150 HD
BRANCH   8  26
ATOM     26  C   UNL     1      -3.811   2.654  25.208  0.00  0.00    +0.163 C 
BRANCH  26  30
ATOM      4  O   UNL     1      -3.513   4.812  24.130  0.00  0.00    -0.274 OA
ATOM     11  N   UNL     1      -4.683   3.179  23.014  0.00  0.00    -0.328 N 
ATOM     30  C   UNL     1      -3.984   3.677  24.094  0.00  0.00    +0.231 C 
ATOM     45  H   UNL     1      -4.856   3.754  22.197  0.00  0.00    +0.145 HD
ATOM     46  H   UNL     1      -5.047   2.232  22.990  0.00  0.00    +0.145 HD
ENDBRANCH  26  30
BRANCH  26  27
ATOM     27  C   UNL     1      -4.866   1.546  25.086  0.00  0.00    +0.069 C 
BRANCH  27  29
ATOM     10  N   UNL     1      -3.534  -1.456  26.737  0.00  0.00    -0.360 N 
ATOM     29  C   UNL     1      -4.353   0.197  25.502  0.00  0.00    -0.020 A 
ATOM     31  C   UNL     1      -4.224  -0.953  24.676  0.00  0.00    +0.003 A 
ATOM     33  C   UNL     1      -3.921  -0.143  26.764  0.00  0.00    +0.087 A 
ATOM     34  C   UNL     1      -3.709  -1.976  25.474  0.00  0.00    +0.047 A 
ATOM     35  C   UNL     1      -4.497  -1.223  23.320  0.00  0.00    +0.010 A 
ATOM     37  C   UNL     1      -3.452  -3.262  24.983  0.00  0.00    +0.026 A 
ATOM     39  C   UNL     1      -4.245  -2.504  22.815  0.00  0.00    +0.001 A 
ATOM     40  C   UNL     1      -3.730  -3.506  23.635  0.00  0.00    +0.002 A 
ATOM     44  H   UNL     1      -3.174  -1.970  27.529  0.00  0.00    +0.165 HD
ENDBRANCH  27  29
ENDBRANCH  26  27
ENDBRANCH   8  26
ENDBRANCH  14  20
TORSDOF 8
ENDMDL
MODEL 2
REMARK VINA RESULT:       8.3      1.029      1.423
REMARK  Name = 7128114
REMARK  8 active torsions:
REMARK  status: ('A' for Active; 'I' for Inactive)
REMARK    1  A    between atoms: N_6  and  C_13
REMARK    2  A    between atoms: N_7  and  C_17
REMARK    3  A    between atoms: N_8  and  C_26
REMARK    4  A    between atoms: C_14  and  C_20
REMARK    5  A    between atoms: C_25  and  C_28
REMARK    6  A    between atoms: C_26  and  C_27
REMARK    7  A    between atoms: C_26  and  C_30
REMARK    8  A    between atoms: C_27  and  C_29
REMARK                            x       y       z     vdW  Elec       q    Type
REMARK                         _______ _______ _______ _____ _____    ______ ____
ROOT
ATOM      3  O   UNL     1       0.543   3.910  25.774  0.00  0.00    -0.268 OA
ATOM      5  N   UNL     1      -0.048   1.657  25.727  0.00  0.00    -0.283 N 
ATOM     13  C   UNL     1      -0.465   0.113  23.976  0.00  0.00    +0.105 C 
ATOM     14  C   UNL     1      -0.409   1.603  24.314  0.00  0.00    +0.182 C 
ATOM     15  C   UNL     1      -0.825  -0.541  25.312  0.00  0.00    +0.043 C 
ATOM     16  C   UNL     1      -0.129   0.335  26.345  0.00  0.00    +0.111 C 
ATOM     25  C   UNL     1       0.481   2.803  26.306  0.00  0.00    +0.267 C 
ENDROOT
BRANCH  13   6
ATOM      2  O   UNL     1       1.849   1.712  23.373  0.00  0.00    -0.253 OA
ATOM      6  N   UNL     1       0.812  -0.361  23.496  0.00  0.00    -0.294 N 
ATOM      7  N   UNL     1       2.992  -0.220  22.777  0.00  0.00    -0.297 N 
ATOM     24  C   UNL     1       1.882   0.491  23.228  0.00  0.00    +0.300 C 
ATOM     41  H   UNL     1       0.915  -1.348  23.279  0.00  0.00    +0.151 HD
ATOM     42  H   UNL     1       2.888  -1.218  22.627  0.00  0.00    +0.151 HD
BRANCH   7  17
ATOM     17  C   UNL     1       4.244   0.411  22.425  0.00  0.00    +0.074 C 
ATOM     18  C   UNL     1       5.309  -0.635  22.078  0.00  0.00    +0.022 C 
ATOM     19  C   UNL     1       4.725   1.344  23.542  0.00  0.00    +0.022 C 
ATOM     21  C   UNL     1       5.804  -1.396  23.308  0.00  0.00    +0.002 C 
ATOM     22  C   UNL     1       5.221   0.579  24.770  0.00  0.00    +0.002 C 
ATOM     23  C   UNL     1       6.287  -0.448  24.401  0.00  0.00    +0.000 C 
ENDBRANCH   7  17
ENDBRANCH  13   6
BRANCH  25  28
ATOM      9  N   UNL     1       2.357   2.785  27.797  0.00  0.00    -0.247 NA
ATOM     12  N   UNL     1       0.679   2.346  30.001  0.00  0.00    -0.259 NA
ATOM     28  C   UNL     1       1.021   2.679  27.666  0.00  0.00    +0.144 A 
ATOM     32  C   UNL     1       0.196   2.463  28.748  0.00  0.00    +0.143 A 
ATOM     36  C   UNL     1       2.840   2.669  29.051  0.00  0.00    +0.131 A 
ATOM     38  C   UNL     1       2.016   2.453  30.133  0.00  0.00    +0.130 A 
ENDBRANCH  25  28
BRANCH  14  20
ATOM      1  O   UNL     1      -2.205   2.619  23.114  0.00  0.00    -0.274 OA
ATOM      8  N   UNL     1      -2.384   2.382  25.423  0.00  0.00    -0.302 N 
ATOM     20  C   UNL     1      -1.757   2.248  24.196  0.00  0.00    +0.236 C 
ATOM     43  H   UNL     1      -1.960   1.948  26.237  0.00  0.00    +0.150 HD
BRANCH   8  26
ATOM     26  C   UNL     1      -3.683   2.993  25.584  0.00  0.00    +0.163 C 
BRANCH  26  30
ATOM      4  O   UNL     1      -4.669   4.210  23.725  0.00  0.00    -0.274 OA
ATOM     11  N   UNL     1      -2.782   5.064  24.721  0.00  0.00    -0.328 N 
ATOM     30  C   UNL     1      -3.776   4.121  24.566  0.00  0.00    +0.231 C 
ATOM     45  H   UNL     1      -2.737   5.876  24.115  0.00  0.00    +0.145 HD
ATOM     46  H   UNL     1      -2.065   4.988  25.435  0.00  0.00    +0.145 HD
ENDBRANCH  26  30
BRANCH  26  27
ATOM     27  C   UNL     1      -4.827   1.991  25.379  0.00  0.00    +0.069 C 
BRANCH  27  29
ATOM     10  N   UNL     1      -3.948  -0.554  22.875  0.00  0.00    -0.360 N 
ATOM     29  C   UNL     1      -4.415   0.784  24.583  0.00  0.00    -0.020 A 
ATOM     31  C   UNL     1      -4.001  -0.473  25.103  0.00  0.00    +0.003 A 
ATOM     33  C   UNL     1      -4.371   0.705  23.210  0.00  0.00    +0.087 A 
ATOM     34  C   UNL     1      -3.713  -1.294  24.011  0.00  0.00    +0.047 A 
ATOM     35  C   UNL     1      -3.842  -0.994  26.403  0.00  0.00    +0.010 A 
ATOM     37  C   UNL     1      -3.274  -2.615  24.154  0.00  0.00    +0.026 A 
ATOM     39  C   UNL     1      -3.403  -2.314  26.562  0.00  0.00    +0.001 A 
ATOM     40  C   UNL     1      -3.125  -3.110  25.453  0.00  0.00    +0.002 A 
ATOM     44  H   UNL     1      -3.824  -0.890  21.930  0.00  0.00    +0.165 HD
ENDBRANCH  27  29
ENDBRANCH  26  27
ENDBRANCH   8  26
ENDBRANCH  14  20
TORSDOF 8
ENDMDL
MODEL 3
REMARK VINA RESULT:       8.4      1.406      1.934
REMARK  Name = 7128114
REMARK  8 active torsions:
REMARK  status: ('A' for Active; 'I' for Inactive)
REMARK    1  A    between atoms: N_6  and  C_13
REMARK    2  A    between atoms: N_7  and  C_17
REMARK    3  A    between atoms: N_8  and  C_26
REMARK    4  A    between atoms: C_14  and  C_20
REMARK    5  A    between atoms: C_25  and  C_28
REMARK    6  A    between atoms: C_26  and  C_27
REMARK    7  A    between atoms: C_26  and  C_30
REMARK    8  A    between atoms: C_27  and  C_29
REMARK                            x       y       z     vdW  Elec       q    Type
REMARK                         _______ _______ _______ _____ _____    ______ ____
ROOT
ATOM      3  O   UNL     1       1.174   3.767  26.104  0.00  0.00    -0.268 OA
ATOM      5  N   UNL     1      -0.021   1.767  26.063  0.00  0.00    -0.283 N 
ATOM     13  C   UNL     1      -0.581   0.233  24.345  0.00  0.00    +0.105 C 
ATOM     14  C   UNL     1      -0.156   1.676  24.614  0.00  0.00    +0.182 C 
ATOM     15  C   UNL     1      -1.318  -0.165  25.626  0.00  0.00    +0.043 C 
ATOM     16  C   UNL     1      -0.572   0.585  26.722  0.00  0.00    +0.111 C 
ATOM     25  C   UNL     1       0.716   2.776  26.670  0.00  0.00    +0.267 C 
ENDROOT
BRANCH  13   6
ATOM      2  O   UNL     1       1.747   0.859  22.777  0.00  0.00    -0.253 OA
ATOM      6  N   UNL     1       0.567  -0.616  24.124  0.00  0.00    -0.294 N 
ATOM      7  N   UNL     1       2.622  -1.229  23.293  0.00  0.00    -0.297 N 
ATOM     24  C   UNL     1       1.654  -0.228  23.345  0.00  0.00    +0.300 C 
ATOM     41  H   UNL     1       0.551  -1.562  24.495  0.00  0.00    +0.151 HD
ATOM     42  H   UNL     1       2.411  -2.116  23.740  0.00  0.00    +0.151 HD
BRANCH   7  17
ATOM     17  C   UNL     1       3.858  -1.097  22.556  0.00  0.00    +0.074 C 
ATOM     18  C   UNL     1       5.045  -1.612  23.375  0.00  0.00    +0.022 C 
ATOM     19  C   UNL     1       4.079   0.352  22.106  0.00  0.00    +0.022 C 
ATOM     21  C   UNL     1       5.402  -0.683  24.536  0.00  0.00    +0.002 C 
ATOM     22  C   UNL     1       4.436   1.277  23.271  0.00  0.00    +0.002 C 
ATOM     23  C   UNL     1       5.628   0.749  24.064  0.00  0.00    +0.000 C 
ENDBRANCH   7  17
ENDBRANCH  13   6
BRANCH  25  28
ATOM      9  N   UNL     1       2.232   2.305  28.466  0.00  0.00    -0.247 NA
ATOM     12  N   UNL     1       0.211   2.733  30.364  0.00  0.00    -0.259 NA
ATOM     28  C   UNL     1       0.977   2.644  28.109  0.00  0.00    +0.144 A 
ATOM     32  C   UNL     1      -0.015   2.854  29.041  0.00  0.00    +0.143 A 
ATOM     36  C   UNL     1       2.458   2.186  29.790  0.00  0.00    +0.131 A 
ATOM     38  C   UNL     1       1.467   2.396  30.722  0.00  0.00    +0.130 A 
ENDBRANCH  25  28
BRANCH  14  20
ATOM      1  O   UNL     1      -1.557   2.817  23.054  0.00  0.00    -0.274 OA
ATOM      8  N   UNL     1      -1.750   3.319  25.319  0.00  0.00    -0.302 N 
ATOM     20  C   UNL     1      -1.228   2.650  24.225  0.00  0.00    +0.236 C 
ATOM     43  H   UNL     1      -1.469   3.026  26.249  0.00  0.00    +0.150 HD
BRANCH   8  26
ATOM     26  C   UNL     1      -2.780   4.326  25.211  0.00  0.00    +0.163 C 
BRANCH  26  30
ATOM      4  O   UNL     1      -2.741   6.380  23.911  0.00  0.00    -0.274 OA
ATOM     11  N   UNL     1      -0.807   5.699  24.948  0.00  0.00    -0.328 N 
ATOM     30  C   UNL     1      -2.135   5.563  24.601  0.00  0.00    +0.231 C 
ATOM     45  H   UNL     1      -0.262   6.489  24.619  0.00  0.00    +0.145 HD
ATOM     46  H   UNL     1      -0.326   5.028  25.538  0.00  0.00    +0.145 HD
ENDBRANCH  26  30
BRANCH  26  27
ATOM     27  C   UNL     1      -3.962   3.859  24.352  0.00  0.00    +0.069 C 
BRANCH  27  29
ATOM     10  N   UNL     1      -5.798   1.143  26.014  0.00  0.00    -0.360 N 
ATOM     29  C   UNL     1      -4.576   2.580  24.843  0.00  0.00    -0.020 A 
ATOM     31  C   UNL     1      -4.337   1.274  24.333  0.00  0.00    +0.003 A 
ATOM     33  C   UNL     1      -5.479   2.467  25.876  0.00  0.00    +0.087 A 
ATOM     34  C   UNL     1      -5.115   0.391  25.084  0.00  0.00    +0.047 A 
ATOM     35  C   UNL     1      -3.530   0.756  23.300  0.00  0.00    +0.010 A 
ATOM     37  C   UNL     1      -5.128  -0.990  24.854  0.00  0.00    +0.026 A 
ATOM     39  C   UNL     1      -3.532  -0.623  23.059  0.00  0.00    +0.001 A 
ATOM     40  C   UNL     1      -4.319  -1.481  23.825  0.00  0.00    +0.002 A 
ATOM     44  H   UNL     1      -6.442   0.771  26.698  0.00  0.00    +0.165 HD
ENDBRANCH  27  29
ENDBRANCH  26  27
ENDBRANCH   8  26
ENDBRANCH  14  20
TORSDOF 8
ENDMDL
MODEL 4
REMARK VINA RESULT:       8.9      2.064      4.562
REMARK  Name = 7128114
REMARK  8 active torsions:
REMARK  status: ('A' for Active; 'I' for Inactive)
REMARK    1  A    between atoms: N_6  and  C_13
REMARK    2  A    between atoms: N_7  and  C_17
REMARK    3  A    between atoms: N_8  and  C_26
REMARK    4  A    between atoms: C_14  and  C_20
REMARK    5  A    between atoms: C_25  and  C_28
REMARK    6  A    between atoms: C_26  and  C_27
REMARK    7  A    between atoms: C_26  and  C_30
REMARK    8  A    between atoms: C_27  and  C_29
REMARK                            x       y       z     vdW  Elec       q    Type
REMARK                         _______ _______ _______ _____ _____    ______ ____
ROOT
ATOM      3  O   UNL     1      -1.284  -0.700  26.655  0.00  0.00    -0.268 OA
ATOM      5  N   UNL     1      -1.106   0.437  24.630  0.00  0.00    -0.283 N 
ATOM     13  C   UNL     1       0.616   1.713  23.617  0.00  0.00    +0.105 C 
ATOM     14  C   UNL     1       0.103   1.184  24.957  0.00  0.00    +0.182 C 
ATOM     15  C   UNL     1      -0.654   1.835  22.773  0.00  0.00    +0.043 C 
ATOM     16  C   UNL     1      -1.519   0.675  23.248  0.00  0.00    +0.111 C 
ATOM     25  C   UNL     1      -1.640  -0.510  25.494  0.00  0.00    +0.267 C 
ENDROOT
BRANCH  13   6
ATOM      2  O   UNL     1       3.483   1.938  23.592  0.00  0.00    -0.253 OA
ATOM      6  N   UNL     1       1.551   0.790  23.015  0.00  0.00    -0.294 N 
ATOM      7  N   UNL     1       3.600  -0.051  22.399  0.00  0.00    -0.297 N 
ATOM     24  C   UNL     1       2.930   0.982  23.052  0.00  0.00    +0.300 C 
ATOM     41  H   UNL     1       1.186   0.005  22.485  0.00  0.00    +0.151 HD
ATOM     42  H   UNL     1       3.042  -0.754  21.926  0.00  0.00    +0.151 HD
BRANCH   7  17
ATOM     17  C   UNL     1       5.040  -0.110  22.283  0.00  0.00    +0.074 C 
ATOM     18  C   UNL     1       5.553  -1.533  22.523  0.00  0.00    +0.022 C 
ATOM     19  C   UNL     1       5.710   0.891  23.231  0.00  0.00    +0.022 C 
ATOM     21  C   UNL     1       5.451  -1.953  23.989  0.00  0.00    +0.002 C 
ATOM     22  C   UNL     1       5.606   0.466  24.697  0.00  0.00    +0.002 C 
ATOM     23  C   UNL     1       6.134  -0.949  24.912  0.00  0.00    +0.000 C 
ENDBRANCH   7  17
ENDBRANCH  13   6
BRANCH  25  28
ATOM      9  N   UNL     1      -2.427  -2.668  24.806  0.00  0.00    -0.247 NA
ATOM     12  N   UNL     1      -4.953  -1.617  24.190  0.00  0.00    -0.259 NA
ATOM     28  C   UNL     1      -2.717  -1.362  24.973  0.00  0.00    +0.144 A 
ATOM     32  C   UNL     1      -3.958  -0.846  24.671  0.00  0.00    +0.143 A 
ATOM     36  C   UNL     1      -3.423  -3.439  24.327  0.00  0.00    +0.131 A 
ATOM     38  C   UNL     1      -4.663  -2.924  24.024  0.00  0.00    +0.130 A 
ENDBRANCH  25  28
BRANCH  14  20
ATOM      1  O   UNL     1      -0.242   2.201  27.089  0.00  0.00    -0.274 OA
ATOM      8  N   UNL     1      -0.808   3.389  25.168  0.00  0.00    -0.302 N 
ATOM     20  C   UNL     1      -0.320   2.298  25.867  0.00  0.00    +0.236 C 
ATOM     43  H   UNL     1      -0.731   3.395  24.156  0.00  0.00    +0.150 HD
BRANCH   8  26
ATOM     26  C   UNL     1      -1.301   4.584  25.813  0.00  0.00    +0.163 C 
BRANCH  26  30
ATOM      4  O   UNL     1      -1.793   6.778  24.889  0.00  0.00    -0.274 OA
ATOM     11  N   UNL     1      -0.236   5.463  23.828  0.00  0.00    -0.328 N 
ATOM     30  C   UNL     1      -1.169   5.721  24.810  0.00  0.00    +0.231 C 
ATOM     45  H   UNL     1      -0.040   6.145  23.104  0.00  0.00    +0.145 HD
ATOM     46  H   UNL     1       0.288   4.594  23.789  0.00  0.00    +0.145 HD
ENDBRANCH  26  30
BRANCH  26  27
ATOM     27  C   UNL     1      -2.759   4.439  26.269  0.00  0.00    +0.069 C 
BRANCH  27  29
ATOM     10  N   UNL     1      -4.421   2.935  23.356  0.00  0.00    -0.360 N 
ATOM     29  C   UNL     1      -3.617   3.711  25.273  0.00  0.00    -0.020 A 
ATOM     31  C   UNL     1      -4.750   2.902  25.562  0.00  0.00    +0.003 A 
ATOM     33  C   UNL     1      -3.439   3.713  23.908  0.00  0.00    +0.087 A 
ATOM     34  C   UNL     1      -5.236   2.427  24.342  0.00  0.00    +0.047 A 
ATOM     35  C   UNL     1      -5.411   2.526  26.748  0.00  0.00    +0.010 A 
ATOM     37  C   UNL     1      -6.355   1.591  24.248  0.00  0.00    +0.026 A 
ATOM     39  C   UNL     1      -6.532   1.690  26.670  0.00  0.00    +0.001 A 
ATOM     40  C   UNL     1      -6.995   1.233  25.438  0.00  0.00    +0.002 A 
ATOM     44  H   UNL     1      -4.532   2.759  22.367  0.00  0.00    +0.165 HD
ENDBRANCH  27  29
ENDBRANCH  26  27
ENDBRANCH   8  26
ENDBRANCH  14  20
TORSDOF 8
ENDMDL
MODEL 5
REMARK VINA RESULT:      10.3      1.892      5.726
REMARK  Name = 7128114
REMARK  8 active torsions:
REMARK  status: ('A' for Active; 'I' for Inactive)
REMARK    1  A    between atoms: N_6  and  C_13
REMARK    2  A    between atoms: N_7  and  C_17
REMARK    3  A    between atoms: N_8  and  C_26
REMARK    4  A    between atoms: C_14  and  C_20
REMARK    5  A    between atoms: C_25  and  C_28
REMARK    6  A    between atoms: C_26  and  C_27
REMARK    7  A    between atoms: C_26  and  C_30
REMARK    8  A    between atoms: C_27  and  C_29
REMARK                            x       y       z     vdW  Elec       q    Type
REMARK                         _______ _______ _______ _____ _____    ______ ____
ROOT
ATOM      3  O   UNL     1       0.368  -1.052  24.053  0.00  0.00    -0.268 OA
ATOM      5  N   UNL     1      -0.082   1.222  23.819  0.00  0.00    -0.283 N 
ATOM     13  C   UNL     1      -1.565   2.715  24.910  0.00  0.00    +0.105 C 
ATOM     14  C   UNL     1      -1.306   1.238  24.613  0.00  0.00    +0.182 C 
ATOM     15  C   UNL     1      -0.918   3.435  23.725  0.00  0.00    +0.043 C 
ATOM     16  C   UNL     1       0.288   2.569  23.388  0.00  0.00    +0.111 C 
ATOM     25  C   UNL     1       0.692   0.076  23.686  0.00  0.00    +0.267 C 
ENDROOT
BRANCH  13   6
ATOM      2  O   UNL     1      -0.161   1.015  26.756  0.00  0.00    -0.253 OA
ATOM      6  N   UNL     1      -0.951   3.113  26.155  0.00  0.00    -0.294 N 
ATOM      7  N   UNL     1       0.210   2.855  28.124  0.00  0.00    -0.297 N 
ATOM     24  C   UNL     1      -0.289   2.216  26.991  0.00  0.00    +0.300 C 
ATOM     41  H   UNL     1      -1.064   4.072  26.469  0.00  0.00    +0.151 HD
ATOM     42  H   UNL     1      -0.015   3.837  28.252  0.00  0.00    +0.151 HD
BRANCH   7  17
ATOM     17  C   UNL     1       0.942   2.166  29.162  0.00  0.00    +0.074 C 
ATOM     18  C   UNL     1       0.990   2.999  30.447  0.00  0.00    +0.022 C 
ATOM     19  C   UNL     1       2.351   1.792  28.688  0.00  0.00    +0.022 C 
ATOM     21  C   UNL     1       1.910   4.214  30.323  0.00  0.00    +0.002 C 
ATOM     22  C   UNL     1       3.268   3.010  28.566  0.00  0.00    +0.002 C 
ATOM     23  C   UNL     1       3.309   3.817  29.860  0.00  0.00    +0.000 C 
ENDBRANCH   7  17
ENDBRANCH  13   6
BRANCH  25  28
ATOM      9  N   UNL     1       3.007   0.671  23.854  0.00  0.00    -0.247 NA
ATOM     12  N   UNL     1       3.422   0.066  21.147  0.00  0.00    -0.259 NA
ATOM     28  C   UNL     1       2.012   0.227  23.062  0.00  0.00    +0.144 A 
ATOM     32  C   UNL     1       2.216  -0.070  21.732  0.00  0.00    +0.143 A 
ATOM     36  C   UNL     1       4.214   0.806  23.269  0.00  0.00    +0.131 A 
ATOM     38  C   UNL     1       4.418   0.509  21.940  0.00  0.00    +0.130 A 
ENDBRANCH  25  28
BRANCH  14  20
ATOM      1  O   UNL     1      -2.395   0.815  22.531  0.00  0.00    -0.274 OA
ATOM      8  N   UNL     1      -3.320  -0.051  24.485  0.00  0.00    -0.302 N 
ATOM     20  C   UNL     1      -2.380   0.650  23.749  0.00  0.00    +0.236 C 
ATOM     43  H   UNL     1      -3.150  -0.205  25.473  0.00  0.00    +0.150 HD
BRANCH   8  26
ATOM     26  C   UNL     1      -4.469  -0.694  23.890  0.00  0.00    +0.163 C 
BRANCH  26  30
ATOM      4  O   UNL     1      -4.702  -3.035  23.276  0.00  0.00    -0.274 OA
ATOM     11  N   UNL     1      -3.557  -2.512  25.198  0.00  0.00    -0.328 N 
ATOM     30  C   UNL     1      -4.286  -2.195  24.071  0.00  0.00    +0.231 C 
ATOM     45  H   UNL     1      -3.350  -3.478  25.429  0.00  0.00    +0.145 HD
ATOM     46  H   UNL     1      -3.200  -1.805  25.834  0.00  0.00    +0.145 HD
ENDBRANCH  26  30
BRANCH  26  27
ATOM     27  C   UNL     1      -5.787  -0.235  24.528  0.00  0.00    +0.069 C 
BRANCH  27  29
ATOM     10  N   UNL     1      -5.816   2.723  26.711  0.00  0.00    -0.360 N 
ATOM     29  C   UNL     1      -5.681   1.107  25.195  0.00  0.00    -0.020 A 
ATOM     31  C   UNL     1      -5.155   2.299  24.623  0.00  0.00    +0.003 A 
ATOM     33  C   UNL     1      -6.079   1.399  26.480  0.00  0.00    +0.087 A 
ATOM     34  C   UNL     1      -5.251   3.297  25.594  0.00  0.00    +0.047 A 
ATOM     35  C   UNL     1      -4.604   2.625  23.368  0.00  0.00    +0.010 A 
ATOM     37  C   UNL     1      -4.822   4.611  25.373  0.00  0.00    +0.026 A 
ATOM     39  C   UNL     1      -4.171   3.935  23.132  0.00  0.00    +0.001 A 
ATOM     40  C   UNL     1      -4.280   4.911  24.120  0.00  0.00    +0.002 A 
ATOM     44  H   UNL     1      -6.008   3.208  27.576  0.00  0.00    +0.165 HD
ENDBRANCH  27  29
ENDBRANCH  26  27
ENDBRANCH   8  26
ENDBRANCH  14  20
TORSDOF 8
ENDMDL
MODEL 6
REMARK VINA RESULT:      10.4      1.435      3.517
REMARK  Name = 7128114
REMARK  8 active torsions:
REMARK  status: ('A' for Active; 'I' for Inactive)
REMARK    1  A    between atoms: N_6  and  C_13
REMARK    2  A    between atoms: N_7  and  C_17
REMARK    3  A    between atoms: N_8  and  C_26
REMARK    4  A    between atoms: C_14  and  C_20
REMARK    5  A    between atoms: C_25  and  C_28
REMARK    6  A    between atoms: C_26  and  C_27
REMARK    7  A    between atoms: C_26  and  C_30
REMARK    8  A    between atoms: C_27  and  C_29
REMARK                            x       y       z     vdW  Elec       q    Type
REMARK                         _______ _______ _______ _____ _____    ______ ____
ROOT
ATOM      3  O   UNL     1      -0.286   3.122  25.097  0.00  0.00    -0.268 OA
ATOM      5  N   UNL     1      -0.182   0.816  25.413  0.00  0.00    -0.283 N 
ATOM     13  C   UNL     1      -0.082  -1.034  23.933  0.00  0.00    +0.105 C 
ATOM     14  C   UNL     1      -0.478   0.440  24.035  0.00  0.00    +0.182 C 
ATOM     15  C   UNL     1      -0.262  -1.550  25.362  0.00  0.00    +0.043 C 
ATOM     16  C   UNL     1       0.119  -0.358  26.230  0.00  0.00    +0.111 C 
ATOM     25  C   UNL     1      -0.029   2.143  25.795  0.00  0.00    +0.267 C 
ENDROOT
BRANCH  13   6
ATOM      2  O   UNL     1       1.721   1.083  23.198  0.00  0.00    -0.253 OA
ATOM      6  N   UNL     1       1.289  -1.177  23.501  0.00  0.00    -0.294 N 
ATOM      7  N   UNL     1       3.366  -0.502  22.780  0.00  0.00    -0.297 N 
ATOM     24  C   UNL     1       2.091  -0.089  23.162  0.00  0.00    +0.300 C 
ATOM     41  H   UNL     1       1.664  -2.112  23.372  0.00  0.00    +0.151 HD
ATOM     42  H   UNL     1       3.543  -1.499  22.718  0.00  0.00    +0.151 HD
BRANCH   7  17
ATOM     17  C   UNL     1       4.407   0.417  22.378  0.00  0.00    +0.074 C 
ATOM     18  C   UNL     1       5.641  -0.336  21.872  0.00  0.00    +0.022 C 
ATOM     19  C   UNL     1       4.768   1.374  23.519  0.00  0.00    +0.022 C 
ATOM     21  C   UNL     1       6.407  -1.029  23.000  0.00  0.00    +0.002 C 
ATOM     22  C   UNL     1       5.535   0.678  24.644  0.00  0.00    +0.002 C 
ATOM     23  C   UNL     1       6.765  -0.055  24.118  0.00  0.00    +0.000 C 
ENDBRANCH   7  17
ENDBRANCH  13   6
BRANCH  25  28
ATOM      9  N   UNL     1       1.800   2.703  27.238  0.00  0.00    -0.247 NA
ATOM     12  N   UNL     1       0.144   2.550  29.497  0.00  0.00    -0.259 NA
ATOM     28  C   UNL     1       0.492   2.396  27.144  0.00  0.00    +0.144 A 
ATOM     32  C   UNL     1      -0.322   2.321  28.253  0.00  0.00    +0.143 A 
ATOM     36  C   UNL     1       2.266   2.933  28.483  0.00  0.00    +0.131 A 
ATOM     38  C   UNL     1       1.453   2.858  29.591  0.00  0.00    +0.130 A 
ENDBRANCH  25  28
BRANCH  14  20
ATOM      1  O   UNL     1      -2.421   1.672  23.399  0.00  0.00    -0.274 OA
ATOM      8  N   UNL     1      -2.680  -0.473  24.265  0.00  0.00    -0.302 N 
ATOM     20  C   UNL     1      -1.954   0.630  23.851  0.00  0.00    +0.236 C 
ATOM     43  H   UNL     1      -2.180  -1.316  24.528  0.00  0.00    +0.150 HD
BRANCH   8  26
ATOM     26  C   UNL     1      -4.123  -0.533  24.213  0.00  0.00    +0.163 C 
BRANCH  26  30
ATOM      4  O   UNL     1      -5.458  -2.342  23.289  0.00  0.00    -0.274 OA
ATOM     11  N   UNL     1      -3.627  -2.873  24.572  0.00  0.00    -0.328 N 
ATOM     30  C   UNL     1      -4.502  -1.989  23.976  0.00  0.00    +0.231 C 
ATOM     45  H   UNL     1      -3.757  -3.875  24.480  0.00  0.00    +0.145 HD
ATOM     46  H   UNL     1      -2.828  -2.565  25.117  0.00  0.00    +0.145 HD
ENDBRANCH  26  30
BRANCH  26  27
ATOM     27  C   UNL     1      -4.773  -0.014  25.502  0.00  0.00    +0.069 C 
BRANCH  27  29
ATOM     10  N   UNL     1      -6.652   3.099  24.964  0.00  0.00    -0.360 N 
ATOM     29  C   UNL     1      -5.300   1.387  25.371  0.00  0.00    -0.020 A 
ATOM     31  C   UNL     1      -4.596   2.588  25.661  0.00  0.00    +0.003 A 
ATOM     33  C   UNL     1      -6.562   1.733  24.945  0.00  0.00    +0.087 A 
ATOM     34  C   UNL     1      -5.467   3.648  25.398  0.00  0.00    +0.047 A 
ATOM     35  C   UNL     1      -3.297   2.878  26.125  0.00  0.00    +0.010 A 
ATOM     37  C   UNL     1      -5.103   4.987  25.576  0.00  0.00    +0.026 A 
ATOM     39  C   UNL     1      -2.919   4.213  26.307  0.00  0.00    +0.001 A 
ATOM     40  C   UNL     1      -3.809   5.250  26.035  0.00  0.00    +0.002 A 
ATOM     44  H   UNL     1      -7.472   3.629  24.699  0.00  0.00    +0.165 HD
ENDBRANCH  27  29
ENDBRANCH  26  27
ENDBRANCH   8  26
ENDBRANCH  14  20
TORSDOF 8
ENDMDL
MODEL 7
REMARK VINA RESULT:      11.6      2.383      4.164
REMARK  Name = 7128114
REMARK  8 active torsions:
REMARK  status: ('A' for Active; 'I' for Inactive)
REMARK    1  A    between atoms: N_6  and  C_13
REMARK    2  A    between atoms: N_7  and  C_17
REMARK    3  A    between atoms: N_8  and  C_26
REMARK    4  A    between atoms: C_14  and  C_20
REMARK    5  A    between atoms: C_25  and  C_28
REMARK    6  A    between atoms: C_26  and  C_27
REMARK    7  A    between atoms: C_26  and  C_30
REMARK    8  A    between atoms: C_27  and  C_29
REMARK                            x       y       z     vdW  Elec       q    Type
REMARK                         _______ _______ _______ _____ _____    ______ ____
ROOT
ATOM      3  O   UNL     1      -1.351   1.225  22.521  0.00  0.00    -0.268 OA
ATOM      5  N   UNL     1      -0.903   0.311  24.616  0.00  0.00    -0.283 N 
ATOM     13  C   UNL     1      -0.099  -1.797  25.342  0.00  0.00    +0.105 C 
ATOM     14  C   UNL     1      -0.773  -1.074  24.177  0.00  0.00    +0.182 C 
ATOM     15  C   UNL     1      -0.528  -0.983  26.564  0.00  0.00    +0.043 C 
ATOM     16  C   UNL     1      -0.602   0.446  26.041  0.00  0.00    +0.111 C 
ATOM     25  C   UNL     1      -1.098   1.352  23.717  0.00  0.00    +0.267 C 
ENDROOT
BRANCH  13   6
ATOM      2  O   UNL     1       1.392  -1.069  22.993  0.00  0.00    -0.253 OA
ATOM      6  N   UNL     1       1.338  -1.793  25.197  0.00  0.00    -0.294 N 
ATOM      7  N   UNL     1       3.361  -1.509  24.141  0.00  0.00    -0.297 N 
ATOM     24  C   UNL     1       1.977  -1.424  24.015  0.00  0.00    +0.300 C 
ATOM     41  H   UNL     1       1.906  -2.139  25.965  0.00  0.00    +0.151 HD
ATOM     42  H   UNL     1       3.737  -1.882  25.007  0.00  0.00    +0.151 HD
BRANCH   7  17
ATOM     17  C   UNL     1       4.274  -1.183  23.069  0.00  0.00    +0.074 C 
ATOM     18  C   UNL     1       5.682  -0.909  23.608  0.00  0.00    +0.022 C 
ATOM     19  C   UNL     1       3.755  -0.001  22.243  0.00  0.00    +0.022 C 
ATOM     21  C   UNL     1       5.772   0.419  24.361  0.00  0.00    +0.002 C 
ATOM     22  C   UNL     1       3.848   1.325  22.999  0.00  0.00    +0.002 C 
ATOM     23  C   UNL     1       5.260   1.581  23.516  0.00  0.00    +0.000 C 
ENDBRANCH   7  17
ENDBRANCH  13   6
BRANCH  25  28
ATOM      9  N   UNL     1      -1.648   2.988  25.380  0.00  0.00    -0.247 NA
ATOM     12  N   UNL     1      -0.123   4.935  24.056  0.00  0.00    -0.259 NA
ATOM     28  C   UNL     1      -0.983   2.720  24.239  0.00  0.00    +0.144 A 
ATOM     32  C   UNL     1      -0.234   3.676  23.589  0.00  0.00    +0.143 A 
ATOM     36  C   UNL     1      -1.536   4.247  25.848  0.00  0.00    +0.131 A 
ATOM     38  C   UNL     1      -0.787   5.203  25.199  0.00  0.00    +0.130 A 
ENDBRANCH  25  28
BRANCH  14  20
ATOM      1  O   UNL     1      -2.384  -2.705  23.512  0.00  0.00    -0.274 OA
ATOM      8  N   UNL     1      -3.125  -0.626  24.252  0.00  0.00    -0.302 N 
ATOM     20  C   UNL     1      -2.167  -1.577  23.945  0.00  0.00    +0.236 C 
ATOM     43  H   UNL     1      -2.831   0.238  24.697  0.00  0.00    +0.150 HD
BRANCH   8  26
ATOM     26  C   UNL     1      -4.543  -0.854  24.094  0.00  0.00    +0.163 C 
BRANCH  26  30
ATOM      4  O   UNL     1      -5.255  -2.807  22.834  0.00  0.00    -0.274 OA
ATOM     11  N   UNL     1      -4.206  -3.124  24.853  0.00  0.00    -0.328 N 
ATOM     30  C   UNL     1      -4.732  -2.344  23.845  0.00  0.00    +0.231 C 
ATOM     45  H   UNL     1      -4.252  -4.137  24.805  0.00  0.00    +0.145 HD
ATOM     46  H   UNL     1      -3.756  -2.727  25.672  0.00  0.00    +0.145 HD
ENDBRANCH  26  30
BRANCH  26  27
ATOM     27  C   UNL     1      -5.344  -0.410  25.325  0.00  0.00    +0.069 C 
BRANCH  27  29
ATOM     10  N   UNL     1      -5.765   3.097  26.342  0.00  0.00    -0.360 N 
ATOM     29  C   UNL     1      -5.387   1.083  25.491  0.00  0.00    -0.020 A 
ATOM     31  C   UNL     1      -4.891   2.052  24.576  0.00  0.00    +0.003 A 
ATOM     33  C   UNL     1      -5.918   1.755  26.568  0.00  0.00    +0.087 A 
ATOM     34  C   UNL     1      -5.140   3.308  25.134  0.00  0.00    +0.047 A 
ATOM     35  C   UNL     1      -4.252   1.982  23.322  0.00  0.00    +0.010 A 
ATOM     37  C   UNL     1      -4.781   4.502  24.498  0.00  0.00    +0.026 A 
ATOM     39  C   UNL     1      -3.887   3.168  22.674  0.00  0.00    +0.001 A 
ATOM     40  C   UNL     1      -4.149   4.407  23.255  0.00  0.00    +0.002 A 
ATOM     44  H   UNL     1      -6.066   3.828  26.973  0.00  0.00    +0.165 HD
ENDBRANCH  27  29
ENDBRANCH  26  27
ENDBRANCH   8  26
ENDBRANCH  14  20
TORSDOF 8
ENDMDL
