MODEL 1
REMARK VINA RESULT:      -2.8      0.000      0.000
REMARK  Name = 28962073
REMARK  8 active torsions:
REMARK  status: ('A' for Active; 'I' for Inactive)
REMARK    1  A    between atoms: O_3  and  C_11
REMARK    2  A    between atoms: O_4  and  C_18
REMARK    3  A    between atoms: N_5  and  C_9
REMARK    4  A    between atoms: N_7  and  C_15
REMARK    5  A    between atoms: N_7  and  C_20
REMARK    6  A    between atoms: C_10  and  C_15
REMARK    7  A    between atoms: C_12  and  C_18
REMARK    8  A    between atoms: C_20  and  C_22
REMARK                            x       y       z     vdW  Elec       q    Type
REMARK                         _______ _______ _______ _____ _____    ______ ____
ROOT
ATOM      2  O   UNL     1      14.985 -10.778  31.580  0.00  0.00    -0.366 OA
ATOM      9  C   UNL     1      15.265 -10.476  29.235  0.00  0.00    +0.118 C 
ATOM     10  C   UNL     1      16.007 -10.642  30.567  0.00  0.00    +0.152 C 
ATOM     11  C   UNL     1      13.928  -9.887  29.659  0.00  0.00    +0.165 C 
ATOM     12  C   UNL     1      13.690 -10.637  30.963  0.00  0.00    +0.174 C 
ENDROOT
BRANCH   9   5
ATOM      5  N   UNL     1      15.965  -9.741  28.197  0.00  0.00    -0.292 NA
ATOM      6  N   UNL     1      16.441  -7.558  26.417  0.00  0.00    -0.313 N 
ATOM      8  N   UNL     1      17.094  -6.929  24.230  0.00  0.00    -0.240 NA
ATOM     13  C   UNL     1      15.089  -9.523  27.040  0.00  0.00    +0.104 C 
ATOM     14  C   UNL     1      16.443  -8.452  28.712  0.00  0.00    +0.104 C 
ATOM     16  C   UNL     1      15.834  -8.798  25.916  0.00  0.00    +0.122 C 
ATOM     17  C   UNL     1      17.232  -7.691  27.644  0.00  0.00    +0.122 C 
ATOM     19  C   UNL     1      16.762  -6.562  25.488  0.00  0.00    +0.121 A 
ATOM     21  C   UNL     1      16.718  -5.248  25.927  0.00  0.00    +0.043 A 
ATOM     23  C   UNL     1      17.034  -4.247  25.015  0.00  0.00    +0.005 A 
ATOM     24  C   UNL     1      17.395  -5.928  23.372  0.00  0.00    +0.113 A 
ATOM     27  C   UNL     1      17.380  -4.585  23.712  0.00  0.00    +0.020 A 
ENDBRANCH   9   5
BRANCH  11   3
ATOM      3  O   UNL     1      14.029  -8.489  29.901  0.00  0.00    -0.388 OA
ATOM     31  H   UNL     1      13.154  -8.098  29.738  0.00  0.00    +0.210 HD
ENDBRANCH  11   3
BRANCH  10  15
ATOM     15  C   UNL     1      16.913  -9.491  30.993  0.00  0.00    +0.114 C 
BRANCH  15   7
ATOM      7  N   UNL     1      16.330  -8.751  32.103  0.00  0.00    -0.310 NA
ATOM     32  H   UNL     1      15.314  -8.835  32.067  0.00  0.00    +0.122 HD
BRANCH   7  20
ATOM     20  C   UNL     1      16.713  -7.347  32.052  0.00  0.00    +0.116 C 
BRANCH  20  22
ATOM      1  F   UNL     1      12.218  -3.950  31.936  0.00  0.00    -0.205 F 
ATOM     22  C   UNL     1      15.512  -6.440  32.020  0.00  0.00    -0.033 A 
ATOM     25  C   UNL     1      15.482  -5.352  31.147  0.00  0.00    +0.008 A 
ATOM     26  C   UNL     1      14.428  -6.686  32.864  0.00  0.00    +0.008 A 
ATOM     28  C   UNL     1      14.369  -4.511  31.119  0.00  0.00    +0.038 A 
ATOM     29  C   UNL     1      13.316  -5.846  32.835  0.00  0.00    +0.038 A 
ATOM     30  C   UNL     1      13.286  -4.758  31.962  0.00  0.00    +0.123 A 
ENDBRANCH  20  22
ENDBRANCH   7  20
ENDBRANCH  15   7
ENDBRANCH  10  15
BRANCH  12  18
ATOM     18  C   UNL     1      12.742  -9.965  31.939  0.00  0.00    +0.190 C 
BRANCH  18   4
ATOM      4  O   UNL     1      11.765  -9.242  31.206  0.00  0.00    -0.392 OA
ATOM     33  H   UNL     1      12.163  -8.389  30.964  0.00  0.00    +0.210 HD
ENDBRANCH  18   4
ENDBRANCH  12  18
TORSDOF 8
ENDMDL
MODEL 2
REMARK VINA RESULT:      -2.5      2.401      3.088
REMARK  Name = 28962073
REMARK  8 active torsions:
REMARK  status: ('A' for Active; 'I' for Inactive)
REMARK    1  A    between atoms: O_3  and  C_11
REMARK    2  A    between atoms: O_4  and  C_18
REMARK    3  A    between atoms: N_5  and  C_9
REMARK    4  A    between atoms: N_7  and  C_15
REMARK    5  A    between atoms: N_7  and  C_20
REMARK    6  A    between atoms: C_10  and  C_15
REMARK    7  A    between atoms: C_12  and  C_18
REMARK    8  A    between atoms: C_20  and  C_22
REMARK                            x       y       z     vdW  Elec       q    Type
REMARK                         _______ _______ _______ _____ _____    ______ ____
ROOT
ATOM      2  O   UNL     1      15.632  -8.911  30.483  0.00  0.00    -0.366 OA
ATOM      9  C   UNL     1      15.847  -8.336  28.183  0.00  0.00    +0.118 C 
ATOM     10  C   UNL     1      16.620  -8.561  29.489  0.00  0.00    +0.152 C 
ATOM     11  C   UNL     1      14.461  -7.940  28.670  0.00  0.00    +0.165 C 
ATOM     12  C   UNL     1      14.321  -8.844  29.888  0.00  0.00    +0.174 C 
ENDROOT
BRANCH   9   5
ATOM      5  N   UNL     1      16.452  -7.425  27.228  0.00  0.00    -0.292 NA
ATOM      6  N   UNL     1      16.579  -5.125  25.537  0.00  0.00    -0.313 N 
ATOM      8  N   UNL     1      17.261  -4.286  23.432  0.00  0.00    -0.240 NA
ATOM     13  C   UNL     1      15.653  -7.363  25.999  0.00  0.00    +0.104 C 
ATOM     14  C   UNL     1      16.582  -6.082  27.807  0.00  0.00    +0.104 C 
ATOM     16  C   UNL     1      16.311  -6.450  24.961  0.00  0.00    +0.122 C 
ATOM     17  C   UNL     1      17.270  -5.126  26.830  0.00  0.00    +0.122 C 
ATOM     19  C   UNL     1      16.748  -4.048  24.660  0.00  0.00    +0.121 A 
ATOM     21  C   UNL     1      16.372  -2.795  25.116  0.00  0.00    +0.043 A 
ATOM     23  C   UNL     1      16.533  -1.715  24.255  0.00  0.00    +0.005 A 
ATOM     24  C   UNL     1      17.404  -3.211  22.624  0.00  0.00    +0.113 A 
ATOM     27  C   UNL     1      17.058  -1.918  22.984  0.00  0.00    +0.020 A 
ENDBRANCH   9   5
BRANCH  11   3
ATOM      3  O   UNL     1      14.417  -6.573  29.060  0.00  0.00    -0.388 OA
ATOM     31  H   UNL     1      15.318  -6.216  28.982  0.00  0.00    +0.210 HD
ENDBRANCH  11   3
BRANCH  10  15
ATOM     15  C   UNL     1      17.405  -7.372  30.032  0.00  0.00    +0.114 C 
BRANCH  15   7
ATOM      7  N   UNL     1      16.509  -6.341  30.536  0.00  0.00    -0.310 NA
ATOM     32  H   UNL     1      16.390  -5.620  29.824  0.00  0.00    +0.122 HD
BRANCH   7  20
ATOM     20  C   UNL     1      17.032  -5.747  31.759  0.00  0.00    +0.116 C 
BRANCH  20  22
ATOM      1  F   UNL     1      16.680  -0.123  31.673  0.00  0.00    -0.205 F 
ATOM     22  C   UNL     1      16.939  -4.245  31.736  0.00  0.00    -0.033 A 
ATOM     25  C   UNL     1      16.430  -3.561  32.840  0.00  0.00    +0.008 A 
ATOM     26  C   UNL     1      17.361  -3.536  30.610  0.00  0.00    +0.008 A 
ATOM     28  C   UNL     1      16.343  -2.168  32.819  0.00  0.00    +0.038 A 
ATOM     29  C   UNL     1      17.274  -2.144  30.589  0.00  0.00    +0.038 A 
ATOM     30  C   UNL     1      16.765  -1.460  31.694  0.00  0.00    +0.123 A 
ENDBRANCH  20  22
ENDBRANCH   7  20
ENDBRANCH  15   7
ENDBRANCH  10  15
BRANCH  12  18
ATOM     18  C   UNL     1      13.321  -8.383  30.932  0.00  0.00    +0.190 C 
BRANCH  18   4
ATOM      4  O   UNL     1      13.985  -7.548  31.867  0.00  0.00    -0.392 OA
ATOM     33  H   UNL     1      13.442  -7.533  32.674  0.00  0.00    +0.210 HD
ENDBRANCH  18   4
ENDBRANCH  12  18
TORSDOF 8
ENDMDL
MODEL 3
REMARK VINA RESULT:      -2.2     17.896     19.747
REMARK  Name = 28962073
REMARK  8 active torsions:
REMARK  status: ('A' for Active; 'I' for Inactive)
REMARK    1  A    between atoms: O_3  and  C_11
REMARK    2  A    between atoms: O_4  and  C_18
REMARK    3  A    between atoms: N_5  and  C_9
REMARK    4  A    between atoms: N_7  and  C_15
REMARK    5  A    between atoms: N_7  and  C_20
REMARK    6  A    between atoms: C_10  and  C_15
REMARK    7  A    between atoms: C_12  and  C_18
REMARK    8  A    between atoms: C_20  and  C_22
REMARK                            x       y       z     vdW  Elec       q    Type
REMARK                         _______ _______ _______ _____ _____    ______ ____
ROOT
ATOM      2  O   UNL     1      -4.743   2.885  23.549  0.00  0.00    -0.366 OA
ATOM      9  C   UNL     1      -2.369   2.857  23.729  0.00  0.00    +0.118 C 
ATOM     10  C   UNL     1      -3.583   2.124  23.143  0.00  0.00    +0.152 C 
ATOM     11  C   UNL     1      -2.953   3.577  24.935  0.00  0.00    +0.165 C 
ATOM     12  C   UNL     1      -4.320   3.975  24.391  0.00  0.00    +0.174 C 
ENDROOT
BRANCH   9   5
ATOM      5  N   UNL     1      -1.198   2.042  24.001  0.00  0.00    -0.292 NA
ATOM      6  N   UNL     1       1.436   1.032  23.552  0.00  0.00    -0.313 N 
ATOM      8  N   UNL     1       2.819  -0.889  23.571  0.00  0.00    -0.240 NA
ATOM     13  C   UNL     1      -0.934   1.131  22.881  0.00  0.00    +0.104 C 
ATOM     14  C   UNL     1      -0.024   2.892  24.240  0.00  0.00    +0.104 C 
ATOM     16  C   UNL     1       0.265   0.227  23.180  0.00  0.00    +0.122 C 
ATOM     17  C   UNL     1       1.205   2.047  24.583  0.00  0.00    +0.122 C 
ATOM     19  C   UNL     1       2.702   0.450  23.422  0.00  0.00    +0.121 A 
ATOM     21  C   UNL     1       3.764   1.296  23.145  0.00  0.00    +0.043 A 
ATOM     23  C   UNL     1       5.028   0.732  23.013  0.00  0.00    +0.005 A 
ATOM     24  C   UNL     1       4.064  -1.401  23.436  0.00  0.00    +0.113 A 
ATOM     27  C   UNL     1       5.189  -0.641  23.159  0.00  0.00    +0.020 A 
ENDBRANCH   9   5
BRANCH  11   3
ATOM      3  O   UNL     1      -3.098   2.700  26.045  0.00  0.00    -0.388 OA
ATOM     31  H   UNL     1      -3.586   3.179  26.736  0.00  0.00    +0.210 HD
ENDBRANCH  11   3
BRANCH  10  15
ATOM     15  C   UNL     1      -3.802   0.687  23.602  0.00  0.00    +0.114 C 
BRANCH  15   7
ATOM      7  N   UNL     1      -4.753   0.631  24.703  0.00  0.00    -0.310 NA
ATOM     32  H   UNL     1      -4.607   1.433  25.316  0.00  0.00    +0.122 HD
BRANCH   7  20
ATOM     20  C   UNL     1      -4.602  -0.605  25.460  0.00  0.00    +0.116 C 
BRANCH  20  22
ATOM      1  F   UNL     1       0.729  -2.432  25.452  0.00  0.00    -0.205 F 
ATOM     22  C   UNL     1      -3.178  -1.093  25.457  0.00  0.00    -0.033 A 
ATOM     25  C   UNL     1      -2.826  -2.214  24.705  0.00  0.00    +0.008 A 
ATOM     26  C   UNL     1      -2.209  -0.424  26.207  0.00  0.00    +0.008 A 
ATOM     28  C   UNL     1      -1.506  -2.666  24.703  0.00  0.00    +0.038 A 
ATOM     29  C   UNL     1      -0.891  -0.876  26.205  0.00  0.00    +0.038 A 
ATOM     30  C   UNL     1      -0.538  -1.997  25.453  0.00  0.00    +0.123 A 
ENDBRANCH  20  22
ENDBRANCH   7  20
ENDBRANCH  15   7
ENDBRANCH  10  15
BRANCH  12  18
ATOM     18  C   UNL     1      -5.387   4.243  25.436  0.00  0.00    +0.190 C 
BRANCH  18   4
ATOM      4  O   UNL     1      -5.835   3.003  25.961  0.00  0.00    -0.392 OA
ATOM     33  H   UNL     1      -5.047   2.454  26.111  0.00  0.00    +0.210 HD
ENDBRANCH  18   4
ENDBRANCH  12  18
TORSDOF 8
ENDMDL
MODEL 4
REMARK VINA RESULT:       0.7     17.718     19.474
REMARK  Name = 28962073
REMARK  8 active torsions:
REMARK  status: ('A' for Active; 'I' for Inactive)
REMARK    1  A    between atoms: O_3  and  C_11
REMARK    2  A    between atoms: O_4  and  C_18
REMARK    3  A    between atoms: N_5  and  C_9
REMARK    4  A    between atoms: N_7  and  C_15
REMARK    5  A    between atoms: N_7  and  C_20
REMARK    6  A    between atoms: C_10  and  C_15
REMARK    7  A    between atoms: C_12  and  C_18
REMARK    8  A    between atoms: C_20  and  C_22
REMARK                            x       y       z     vdW  Elec       q    Type
REMARK                         _______ _______ _______ _____ _____    ______ ____
ROOT
ATOM      2  O   UNL     1      -3.769   2.001  25.378  0.00  0.00    -0.366 OA
ATOM      9  C   UNL     1      -2.276   1.698  23.549  0.00  0.00    +0.118 C 
ATOM     10  C   UNL     1      -2.634   1.210  24.958  0.00  0.00    +0.152 C 
ATOM     11  C   UNL     1      -2.795   3.127  23.538  0.00  0.00    +0.165 C 
ATOM     12  C   UNL     1      -4.072   2.969  24.355  0.00  0.00    +0.174 C 
ENDROOT
BRANCH   9   5
ATOM      5  N   UNL     1      -0.889   1.539  23.148  0.00  0.00    -0.292 NA
ATOM      6  N   UNL     1       1.802   0.609  23.381  0.00  0.00    -0.313 N 
ATOM      8  N   UNL     1       4.088   1.161  23.115  0.00  0.00    -0.240 NA
ATOM     13  C   UNL     1       0.008   2.108  24.162  0.00  0.00    +0.104 C 
ATOM     14  C   UNL     1      -0.572   0.121  22.941  0.00  0.00    +0.104 C 
ATOM     16  C   UNL     1       1.470   1.998  23.725  0.00  0.00    +0.122 C 
ATOM     17  C   UNL     1       0.872  -0.056  22.464  0.00  0.00    +0.122 C 
ATOM     19  C   UNL     1       3.149   0.231  23.398  0.00  0.00    +0.121 A 
ATOM     21  C   UNL     1       3.434  -1.089  23.708  0.00  0.00    +0.043 A 
ATOM     23  C   UNL     1       4.768  -1.480  23.730  0.00  0.00    +0.005 A 
ATOM     24  C   UNL     1       5.374   0.745  23.146  0.00  0.00    +0.113 A 
ATOM     27  C   UNL     1       5.763  -0.551  23.445  0.00  0.00    +0.020 A 
ENDBRANCH   9   5
BRANCH  11   3
ATOM      3  O   UNL     1      -1.895   4.013  24.192  0.00  0.00    -0.388 OA
ATOM     31  H   UNL     1      -1.029   3.573  24.236  0.00  0.00    +0.210 HD
ENDBRANCH  11   3
BRANCH  10  15
ATOM     15  C   UNL     1      -1.558   1.362  26.029  0.00  0.00    +0.114 C 
BRANCH  15   7
ATOM      7  N   UNL     1      -0.702   0.187  26.078  0.00  0.00    -0.310 NA
ATOM     32  H   UNL     1      -0.370  -0.029  25.137  0.00  0.00    +0.122 HD
BRANCH   7  20
ATOM     20  C   UNL     1      -1.419  -0.958  26.624  0.00  0.00    +0.116 C 
BRANCH  20  22
ATOM      1  F   UNL     1      -4.861  -3.288  22.819  0.00  0.00    -0.205 F 
ATOM     22  C   UNL     1      -2.338  -1.580  25.608  0.00  0.00    -0.033 A 
ATOM     25  C   UNL     1      -3.679  -1.198  25.553  0.00  0.00    +0.008 A 
ATOM     26  C   UNL     1      -1.850  -2.540  24.719  0.00  0.00    +0.008 A 
ATOM     28  C   UNL     1      -4.531  -1.775  24.611  0.00  0.00    +0.038 A 
ATOM     29  C   UNL     1      -2.702  -3.116  23.777  0.00  0.00    +0.038 A 
ATOM     30  C   UNL     1      -4.042  -2.733  23.723  0.00  0.00    +0.123 A 
ENDBRANCH  20  22
ENDBRANCH   7  20
ENDBRANCH  15   7
ENDBRANCH  10  15
BRANCH  12  18
ATOM     18  C   UNL     1      -4.592   4.238  25.006  0.00  0.00    +0.190 C 
BRANCH  18   4
ATOM      4  O   UNL     1      -5.766   3.928  25.739  0.00  0.00    -0.392 OA
ATOM     33  H   UNL     1      -6.322   4.726  25.740  0.00  0.00    +0.210 HD
ENDBRANCH  18   4
ENDBRANCH  12  18
TORSDOF 8
ENDMDL
