MODEL 1
REMARK VINA RESULT:      -4.4      0.000      0.000
REMARK  Name = 11866103
REMARK  13 active torsions:
REMARK  status: ('A' for Active; 'I' for Inactive)
REMARK    1  A    between atoms: O_1  and  C_11
REMARK    2  A    between atoms: O_2  and  C_12
REMARK    3  A    between atoms: N_6  and  C_10
REMARK    4  A    between atoms: N_7  and  C_16
REMARK    5  A    between atoms: N_7  and  C_23
REMARK    6  A    between atoms: N_8  and  C_22
REMARK    7  A    between atoms: C_15  and  C_19
REMARK    8  A    between atoms: C_16  and  C_17
REMARK    9  A    between atoms: C_16  and  C_18
REMARK   10  A    between atoms: C_17  and  C_20
REMARK   11  A    between atoms: C_17  and  C_21
REMARK   12  A    between atoms: C_22  and  C_24
REMARK   13  A    between atoms: C_22  and  C_25
REMARK                            x       y       z     vdW  Elec       q    Type
REMARK                         _______ _______ _______ _____ _____    ______ ____
ROOT
ATOM     10  C   UNL     1      -1.525   0.345  25.284  0.00  0.00    +0.127 C 
ATOM     11  C   UNL     1      -2.409  -0.855  24.892  0.00  0.00    +0.167 C 
ATOM     12  C   UNL     1      -1.565  -2.086  24.544  0.00  0.00    +0.149 C 
ATOM     13  C   UNL     1      -0.543  -1.792  23.432  0.00  0.00    +0.074 C 
ATOM     14  C   UNL     1      -0.340   0.532  24.374  0.00  0.00    +0.006 C 
ATOM     15  C   UNL     1       0.084  -0.431  23.542  0.00  0.00    +0.015 C 
ENDROOT
BRANCH  10   6
ATOM      3  O   UNL     1      -2.321   1.956  23.038  0.00  0.00    -0.274 OA
ATOM      6  N   UNL     1      -2.280   1.573  25.325  0.00  0.00    -0.305 N 
ATOM     18  C   UNL     1      -2.620   2.286  24.185  0.00  0.00    +0.231 C 
ATOM     26  H   UNL     1      -2.535   1.946  26.236  0.00  0.00    +0.149 HD
BRANCH  18  16
ATOM     16  C   UNL     1      -3.410   3.555  24.503  0.00  0.00    +0.143 C 
BRANCH  16   7
ATOM      7  N   UNL     1      -4.573   3.147  25.294  0.00  0.00    -0.309 NA
ATOM     23  C   UNL     1      -5.375   2.178  24.565  0.00  0.00    +0.101 C 
ATOM     29  H   UNL     1      -5.156   3.961  25.489  0.00  0.00    +0.122 HD
ENDBRANCH  16   7
BRANCH  16  17
ATOM     17  C   UNL     1      -2.574   4.624  25.246  0.00  0.00    +0.009 C 
ATOM     20  C   UNL     1      -2.784   4.560  26.762  0.00  0.00    +0.009 C 
ATOM     21  C   UNL     1      -1.075   4.573  24.929  0.00  0.00    +0.009 C 
ENDBRANCH  16  17
ENDBRANCH  18  16
ENDBRANCH  10   6
BRANCH  15  19
ATOM      4  O   UNL     1       1.224  -0.341  21.490  0.00  0.00    -0.271 OA
ATOM      8  N   UNL     1       2.317   0.370  23.423  0.00  0.00    -0.301 N 
ATOM     19  C   UNL     1       1.249  -0.137  22.704  0.00  0.00    +0.240 C 
ATOM     30  H   UNL     1       2.227   0.494  24.428  0.00  0.00    +0.150 HD
BRANCH   8  22
ATOM     22  C   UNL     1       3.577   0.732  22.815  0.00  0.00    +0.156 C 
ATOM     24  C   UNL     1       3.591   0.385  21.335  0.00  0.00    +0.038 C 
BRANCH  22  25
ATOM      5  O   UNL     1       5.766   0.521  23.848  0.00  0.00    -0.274 OA
ATOM      9  N   UNL     1       4.344  -1.282  23.909  0.00  0.00    -0.328 N 
ATOM     25  C   UNL     1       4.689   0.005  23.557  0.00  0.00    +0.231 C 
ATOM     31  H   UNL     1       4.992  -1.873  24.419  0.00  0.00    +0.145 HD
ATOM     32  H   UNL     1       3.443  -1.688  23.680  0.00  0.00    +0.145 HD
ENDBRANCH  22  25
ENDBRANCH   8  22
ENDBRANCH  15  19
BRANCH  11   1
ATOM      1  O   UNL     1      -3.209  -0.510  23.759  0.00  0.00    -0.387 OA
ATOM     27  H   UNL     1      -4.101  -0.865  23.912  0.00  0.00    +0.210 HD
ENDBRANCH  11   1
BRANCH  12   2
ATOM      2  O   UNL     1      -0.896  -2.568  25.706  0.00  0.00    -0.389 OA
ATOM     28  H   UNL     1       0.058  -2.423  25.580  0.00  0.00    +0.210 HD
ENDBRANCH  12   2
TORSDOF 9
ENDMDL
MODEL 2
REMARK VINA RESULT:      -4.2      2.108      6.609
REMARK  Name = 11866103
REMARK  13 active torsions:
REMARK  status: ('A' for Active; 'I' for Inactive)
REMARK    1  A    between atoms: O_1  and  C_11
REMARK    2  A    between atoms: O_2  and  C_12
REMARK    3  A    between atoms: N_6  and  C_10
REMARK    4  A    between atoms: N_7  and  C_16
REMARK    5  A    between atoms: N_7  and  C_23
REMARK    6  A    between atoms: N_8  and  C_22
REMARK    7  A    between atoms: C_15  and  C_19
REMARK    8  A    between atoms: C_16  and  C_17
REMARK    9  A    between atoms: C_16  and  C_18
REMARK   10  A    between atoms: C_17  and  C_20
REMARK   11  A    between atoms: C_17  and  C_21
REMARK   12  A    between atoms: C_22  and  C_24
REMARK   13  A    between atoms: C_22  and  C_25
REMARK                            x       y       z     vdW  Elec       q    Type
REMARK                         _______ _______ _______ _____ _____    ______ ____
ROOT
ATOM     10  C   UNL     1      -0.712  -0.992  23.684  0.00  0.00    +0.127 C 
ATOM     11  C   UNL     1      -0.680  -2.045  24.807  0.00  0.00    +0.167 C 
ATOM     12  C   UNL     1      -2.078  -2.608  25.091  0.00  0.00    +0.149 C 
ATOM     13  C   UNL     1      -3.091  -1.501  25.427  0.00  0.00    +0.074 C 
ATOM     14  C   UNL     1      -1.854  -0.021  23.812  0.00  0.00    +0.006 C 
ATOM     15  C   UNL     1      -2.911  -0.257  24.603  0.00  0.00    +0.015 C 
ENDROOT
BRANCH  10   6
ATOM      3  O   UNL     1       1.011  -0.732  21.395  0.00  0.00    -0.274 OA
ATOM      6  N   UNL     1       0.524  -0.252  23.612  0.00  0.00    -0.305 N 
ATOM     18  C   UNL     1       1.294  -0.182  22.459  0.00  0.00    +0.231 C 
ATOM     26  H   UNL     1       0.860   0.201  24.457  0.00  0.00    +0.149 HD
BRANCH  18  16
ATOM     16  C   UNL     1       2.558   0.654  22.650  0.00  0.00    +0.143 C 
BRANCH  16   7
ATOM      7  N   UNL     1       2.329   1.516  23.812  0.00  0.00    -0.309 NA
ATOM     23  C   UNL     1       1.032   2.167  23.718  0.00  0.00    +0.101 C 
ATOM     29  H   UNL     1       3.047   2.240  23.846  0.00  0.00    +0.122 HD
ENDBRANCH  16   7
BRANCH  16  17
ATOM     17  C   UNL     1       3.834  -0.203  22.831  0.00  0.00    +0.009 C 
ATOM     20  C   UNL     1       5.013   0.631  23.341  0.00  0.00    +0.009 C 
ATOM     21  C   UNL     1       3.639  -1.428  23.731  0.00  0.00    +0.009 C 
ENDBRANCH  16  17
ENDBRANCH  18  16
ENDBRANCH  10   6
BRANCH  15  19
ATOM      4  O   UNL     1      -5.106   0.474  25.010  0.00  0.00    -0.271 OA
ATOM      8  N   UNL     1      -3.527   2.009  24.245  0.00  0.00    -0.301 N 
ATOM     19  C   UNL     1      -3.965   0.760  24.647  0.00  0.00    +0.240 C 
ATOM     30  H   UNL     1      -2.559   2.130  23.960  0.00  0.00    +0.150 HD
BRANCH   8  22
ATOM     22  C   UNL     1      -4.387   3.170  24.201  0.00  0.00    +0.156 C 
ATOM     24  C   UNL     1      -3.736   4.305  23.426  0.00  0.00    +0.038 C 
BRANCH  22  25
ATOM      5  O   UNL     1      -3.864   4.103  26.383  0.00  0.00    -0.274 OA
ATOM      9  N   UNL     1      -6.007   3.378  25.983  0.00  0.00    -0.328 N 
ATOM     25  C   UNL     1      -4.691   3.591  25.631  0.00  0.00    +0.231 C 
ATOM     31  H   UNL     1      -6.345   3.626  26.907  0.00  0.00    +0.145 HD
ATOM     32  H   UNL     1      -6.684   2.973  25.344  0.00  0.00    +0.145 HD
ENDBRANCH  22  25
ENDBRANCH   8  22
ENDBRANCH  15  19
BRANCH  11   1
ATOM      1  O   UNL     1      -0.172  -1.453  26.005  0.00  0.00    -0.387 OA
ATOM     27  H   UNL     1       0.275  -2.153  26.511  0.00  0.00    +0.210 HD
ENDBRANCH  11   1
BRANCH  12   2
ATOM      2  O   UNL     1      -2.537  -3.368  23.975  0.00  0.00    -0.389 OA
ATOM     28  H   UNL     1      -1.778  -3.516  23.386  0.00  0.00    +0.210 HD
ENDBRANCH  12   2
TORSDOF 9
ENDMDL
MODEL 3
REMARK VINA RESULT:      -4.1      1.229      1.980
REMARK  Name = 11866103
REMARK  13 active torsions:
REMARK  status: ('A' for Active; 'I' for Inactive)
REMARK    1  A    between atoms: O_1  and  C_11
REMARK    2  A    between atoms: O_2  and  C_12
REMARK    3  A    between atoms: N_6  and  C_10
REMARK    4  A    between atoms: N_7  and  C_16
REMARK    5  A    between atoms: N_7  and  C_23
REMARK    6  A    between atoms: N_8  and  C_22
REMARK    7  A    between atoms: C_15  and  C_19
REMARK    8  A    between atoms: C_16  and  C_17
REMARK    9  A    between atoms: C_16  and  C_18
REMARK   10  A    between atoms: C_17  and  C_20
REMARK   11  A    between atoms: C_17  and  C_21
REMARK   12  A    between atoms: C_22  and  C_24
REMARK   13  A    between atoms: C_22  and  C_25
REMARK                            x       y       z     vdW  Elec       q    Type
REMARK                         _______ _______ _______ _____ _____    ______ ____
ROOT
ATOM     10  C   UNL     1      -1.518   0.590  25.219  0.00  0.00    +0.127 C 
ATOM     11  C   UNL     1      -2.467  -0.558  24.824  0.00  0.00    +0.167 C 
ATOM     12  C   UNL     1      -1.694  -1.842  24.500  0.00  0.00    +0.149 C 
ATOM     13  C   UNL     1      -0.639  -1.621  23.403  0.00  0.00    +0.074 C 
ATOM     14  C   UNL     1      -0.309   0.695  24.328  0.00  0.00    +0.006 C 
ATOM     15  C   UNL     1       0.068  -0.300  23.512  0.00  0.00    +0.015 C 
ENDROOT
BRANCH  10   6
ATOM      3  O   UNL     1      -0.720   2.949  26.658  0.00  0.00    -0.274 OA
ATOM      6  N   UNL     1      -2.197   1.862  25.237  0.00  0.00    -0.305 N 
ATOM     18  C   UNL     1      -1.737   2.950  25.964  0.00  0.00    +0.231 C 
ATOM     26  H   UNL     1      -3.071   1.943  24.726  0.00  0.00    +0.149 HD
BRANCH  18  16
ATOM     16  C   UNL     1      -2.643   4.172  25.824  0.00  0.00    +0.143 C 
BRANCH  16   7
ATOM      7  N   UNL     1      -1.844   5.226  25.193  0.00  0.00    -0.309 NA
ATOM     23  C   UNL     1      -0.589   4.687  24.694  0.00  0.00    +0.101 C 
ATOM     29  H   UNL     1      -1.629   5.948  25.880  0.00  0.00    +0.122 HD
ENDBRANCH  16   7
BRANCH  16  17
ATOM     17  C   UNL     1      -3.932   3.887  25.017  0.00  0.00    +0.009 C 
ATOM     20  C   UNL     1      -3.622   3.281  23.644  0.00  0.00    +0.009 C 
ATOM     21  C   UNL     1      -4.945   3.005  25.754  0.00  0.00    +0.009 C 
ENDBRANCH  16  17
ENDBRANCH  18  16
ENDBRANCH  10   6
BRANCH  15  19
ATOM      4  O   UNL     1       1.277  -0.394  21.499  0.00  0.00    -0.271 OA
ATOM      8  N   UNL     1       2.311   0.475  23.399  0.00  0.00    -0.301 N 
ATOM     19  C   UNL     1       1.263  -0.086  22.691  0.00  0.00    +0.240 C 
ATOM     30  H   UNL     1       2.190   0.686  24.386  0.00  0.00    +0.150 HD
BRANCH   8  22
ATOM     22  C   UNL     1       3.594   0.777  22.805  0.00  0.00    +0.156 C 
ATOM     24  C   UNL     1       3.625   0.376  21.338  0.00  0.00    +0.038 C 
BRANCH  22  25
ATOM      5  O   UNL     1       5.713   0.566  23.974  0.00  0.00    -0.274 OA
ATOM      9  N   UNL     1       4.325  -1.262  23.879  0.00  0.00    -0.328 N 
ATOM     25  C   UNL     1       4.667   0.043  23.594  0.00  0.00    +0.231 C 
ATOM     31  H   UNL     1       4.949  -1.860  24.411  0.00  0.00    +0.145 HD
ATOM     32  H   UNL     1       3.448  -1.675  23.576  0.00  0.00    +0.145 HD
ENDBRANCH  22  25
ENDBRANCH   8  22
ENDBRANCH  15  19
BRANCH  11   1
ATOM      1  O   UNL     1      -3.226  -0.176  23.674  0.00  0.00    -0.387 OA
ATOM     27  H   UNL     1      -3.823   0.543  23.944  0.00  0.00    +0.210 HD
ENDBRANCH  11   1
BRANCH  12   2
ATOM      2  O   UNL     1      -1.075  -2.353  25.678  0.00  0.00    -0.389 OA
ATOM     28  H   UNL     1      -1.643  -2.123  26.433  0.00  0.00    +0.210 HD
ENDBRANCH  12   2
TORSDOF 9
ENDMDL
MODEL 4
REMARK VINA RESULT:      -3.0      1.815      2.279
REMARK  Name = 11866103
REMARK  13 active torsions:
REMARK  status: ('A' for Active; 'I' for Inactive)
REMARK    1  A    between atoms: O_1  and  C_11
REMARK    2  A    between atoms: O_2  and  C_12
REMARK    3  A    between atoms: N_6  and  C_10
REMARK    4  A    between atoms: N_7  and  C_16
REMARK    5  A    between atoms: N_7  and  C_23
REMARK    6  A    between atoms: N_8  and  C_22
REMARK    7  A    between atoms: C_15  and  C_19
REMARK    8  A    between atoms: C_16  and  C_17
REMARK    9  A    between atoms: C_16  and  C_18
REMARK   10  A    between atoms: C_17  and  C_20
REMARK   11  A    between atoms: C_17  and  C_21
REMARK   12  A    between atoms: C_22  and  C_24
REMARK   13  A    between atoms: C_22  and  C_25
REMARK                            x       y       z     vdW  Elec       q    Type
REMARK                         _______ _______ _______ _____ _____    ______ ____
ROOT
ATOM     10  C   UNL     1      -3.333  -0.292  25.557  0.00  0.00    +0.127 C 
ATOM     11  C   UNL     1      -4.139  -1.159  24.571  0.00  0.00    +0.167 C 
ATOM     12  C   UNL     1      -3.490  -2.534  24.370  0.00  0.00    +0.149 C 
ATOM     13  C   UNL     1      -2.027  -2.422  23.909  0.00  0.00    +0.074 C 
ATOM     14  C   UNL     1      -1.848  -0.347  25.320  0.00  0.00    +0.006 C 
ATOM     15  C   UNL     1      -1.276  -1.302  24.572  0.00  0.00    +0.015 C 
ENDROOT
BRANCH  10   6
ATOM      3  O   UNL     1      -2.460   1.744  23.723  0.00  0.00    -0.274 OA
ATOM      6  N   UNL     1      -3.760   1.085  25.528  0.00  0.00    -0.305 N 
ATOM     18  C   UNL     1      -3.283   2.002  24.602  0.00  0.00    +0.231 C 
ATOM     26  H   UNL     1      -4.408   1.400  26.245  0.00  0.00    +0.149 HD
BRANCH  18  16
ATOM     16  C   UNL     1      -3.884   3.393  24.793  0.00  0.00    +0.143 C 
BRANCH  16   7
ATOM      7  N   UNL     1      -5.167   3.214  25.477  0.00  0.00    -0.309 NA
ATOM     23  C   UNL     1      -5.902   4.467  25.524  0.00  0.00    +0.101 C 
ATOM     29  H   UNL     1      -5.002   2.905  26.435  0.00  0.00    +0.122 HD
ENDBRANCH  16   7
BRANCH  16  17
ATOM     17  C   UNL     1      -2.959   4.354  25.578  0.00  0.00    +0.009 C 
ATOM     20  C   UNL     1      -1.918   3.594  26.405  0.00  0.00    +0.009 C 
ATOM     21  C   UNL     1      -2.260   5.400  24.702  0.00  0.00    +0.009 C 
ENDBRANCH  16  17
ENDBRANCH  18  16
ENDBRANCH  10   6
BRANCH  15  19
ATOM      4  O   UNL     1       0.908  -2.047  25.013  0.00  0.00    -0.271 OA
ATOM      8  N   UNL     1       0.597  -0.261  23.547  0.00  0.00    -0.301 N 
ATOM     19  C   UNL     1       0.180  -1.257  24.413  0.00  0.00    +0.240 C 
ATOM     30  H   UNL     1      -0.095   0.340  23.107  0.00  0.00    +0.150 HD
BRANCH   8  22
ATOM     22  C   UNL     1       1.987  -0.020  23.234  0.00  0.00    +0.156 C 
ATOM     24  C   UNL     1       2.414   1.371  23.674  0.00  0.00    +0.038 C 
BRANCH  22  25
ATOM      5  O   UNL     1       1.320  -0.681  20.993  0.00  0.00    -0.274 OA
ATOM      9  N   UNL     1       3.387   0.279  21.285  0.00  0.00    -0.328 N 
ATOM     25  C   UNL     1       2.174  -0.199  21.734  0.00  0.00    +0.231 C 
ATOM     31  H   UNL     1       3.633   0.231  20.302  0.00  0.00    +0.145 HD
ATOM     32  H   UNL     1       4.074   0.694  21.907  0.00  0.00    +0.145 HD
ENDBRANCH  22  25
ENDBRANCH   8  22
ENDBRANCH  15  19
BRANCH  11   1
ATOM      1  O   UNL     1      -4.217  -0.498  23.305  0.00  0.00    -0.387 OA
ATOM     27  H   UNL     1      -3.979   0.434  23.448  0.00  0.00    +0.210 HD
ENDBRANCH  11   1
BRANCH  12   2
ATOM      2  O   UNL     1      -3.566  -3.293  25.575  0.00  0.00    -0.389 OA
ATOM     28  H   UNL     1      -3.694  -4.225  25.329  0.00  0.00    +0.210 HD
ENDBRANCH  12   2
TORSDOF 9
ENDMDL
MODEL 5
REMARK VINA RESULT:      -2.8      1.831      3.955
REMARK  Name = 11866103
REMARK  13 active torsions:
REMARK  status: ('A' for Active; 'I' for Inactive)
REMARK    1  A    between atoms: O_1  and  C_11
REMARK    2  A    between atoms: O_2  and  C_12
REMARK    3  A    between atoms: N_6  and  C_10
REMARK    4  A    between atoms: N_7  and  C_16
REMARK    5  A    between atoms: N_7  and  C_23
REMARK    6  A    between atoms: N_8  and  C_22
REMARK    7  A    between atoms: C_15  and  C_19
REMARK    8  A    between atoms: C_16  and  C_17
REMARK    9  A    between atoms: C_16  and  C_18
REMARK   10  A    between atoms: C_17  and  C_20
REMARK   11  A    between atoms: C_17  and  C_21
REMARK   12  A    between atoms: C_22  and  C_24
REMARK   13  A    between atoms: C_22  and  C_25
REMARK                            x       y       z     vdW  Elec       q    Type
REMARK                         _______ _______ _______ _____ _____    ______ ____
ROOT
ATOM     10  C   UNL     1      -1.887   2.096  24.014  0.00  0.00    +0.127 C 
ATOM     11  C   UNL     1      -1.556   3.047  25.180  0.00  0.00    +0.167 C 
ATOM     12  C   UNL     1      -0.265   3.832  24.919  0.00  0.00    +0.149 C 
ATOM     13  C   UNL     1       0.928   2.905  24.633  0.00  0.00    +0.074 C 
ATOM     14  C   UNL     1      -0.688   1.340  23.506  0.00  0.00    +0.006 C 
ATOM     15  C   UNL     1       0.568   1.708  23.798  0.00  0.00    +0.015 C 
ENDROOT
BRANCH  10   6
ATOM      3  O   UNL     1      -1.576  -0.271  25.617  0.00  0.00    -0.274 OA
ATOM      6  N   UNL     1      -2.917   1.152  24.371  0.00  0.00    -0.305 N 
ATOM     18  C   UNL     1      -2.674   0.033  25.153  0.00  0.00    +0.231 C 
ATOM     26  H   UNL     1      -3.850   1.300  23.996  0.00  0.00    +0.149 HD
BRANCH  18  16
ATOM     16  C   UNL     1      -3.930  -0.810  25.375  0.00  0.00    +0.143 C 
BRANCH  16   7
ATOM      7  N   UNL     1      -5.039  -0.099  24.735  0.00  0.00    -0.309 NA
ATOM     23  C   UNL     1      -5.438   1.051  25.530  0.00  0.00    +0.101 C 
ATOM     29  H   UNL     1      -5.842  -0.723  24.653  0.00  0.00    +0.122 HD
ENDBRANCH  16   7
BRANCH  16  17
ATOM     17  C   UNL     1      -3.800  -2.253  24.832  0.00  0.00    +0.009 C 
ATOM     20  C   UNL     1      -4.607  -2.451  23.545  0.00  0.00    +0.009 C 
ATOM     21  C   UNL     1      -2.353  -2.707  24.610  0.00  0.00    +0.009 C 
ENDBRANCH  16  17
ENDBRANCH  18  16
ENDBRANCH  10   6
BRANCH  15  19
ATOM      4  O   UNL     1       1.456  -0.254  22.860  0.00  0.00    -0.271 OA
ATOM      8  N   UNL     1       2.868   1.566  23.223  0.00  0.00    -0.301 N 
ATOM     19  C   UNL     1       1.657   0.897  23.246  0.00  0.00    +0.240 C 
ATOM     30  H   UNL     1       2.919   2.518  23.573  0.00  0.00    +0.150 HD
BRANCH   8  22
ATOM     22  C   UNL     1       4.088   0.971  22.726  0.00  0.00    +0.156 C 
ATOM     24  C   UNL     1       3.822   0.133  21.485  0.00  0.00    +0.038 C 
BRANCH  22  25
ATOM      5  O   UNL     1       5.437   0.570  24.706  0.00  0.00    -0.274 OA
ATOM      9  N   UNL     1       4.276  -1.190  23.794  0.00  0.00    -0.328 N 
ATOM     25  C   UNL     1       4.691   0.124  23.837  0.00  0.00    +0.231 C 
ATOM     31  H   UNL     1       4.595  -1.859  24.487  0.00  0.00    +0.145 HD
ATOM     32  H   UNL     1       3.642  -1.539  23.082  0.00  0.00    +0.145 HD
ENDBRANCH  22  25
ENDBRANCH   8  22
ENDBRANCH  15  19
BRANCH  11   1
ATOM      1  O   UNL     1      -1.399   2.292  26.385  0.00  0.00    -0.387 OA
ATOM     27  H   UNL     1      -1.581   1.361  26.171  0.00  0.00    +0.210 HD
ENDBRANCH  11   1
BRANCH  12   2
ATOM      2  O   UNL     1      -0.452   4.736  23.833  0.00  0.00    -0.389 OA
ATOM     28  H   UNL     1      -1.348   5.106  23.906  0.00  0.00    +0.210 HD
ENDBRANCH  12   2
TORSDOF 9
ENDMDL
MODEL 6
REMARK VINA RESULT:      -2.2      1.741      6.384
REMARK  Name = 11866103
REMARK  13 active torsions:
REMARK  status: ('A' for Active; 'I' for Inactive)
REMARK    1  A    between atoms: O_1  and  C_11
REMARK    2  A    between atoms: O_2  and  C_12
REMARK    3  A    between atoms: N_6  and  C_10
REMARK    4  A    between atoms: N_7  and  C_16
REMARK    5  A    between atoms: N_7  and  C_23
REMARK    6  A    between atoms: N_8  and  C_22
REMARK    7  A    between atoms: C_15  and  C_19
REMARK    8  A    between atoms: C_16  and  C_17
REMARK    9  A    between atoms: C_16  and  C_18
REMARK   10  A    between atoms: C_17  and  C_20
REMARK   11  A    between atoms: C_17  and  C_21
REMARK   12  A    between atoms: C_22  and  C_24
REMARK   13  A    between atoms: C_22  and  C_25
REMARK                            x       y       z     vdW  Elec       q    Type
REMARK                         _______ _______ _______ _____ _____    ______ ____
ROOT
ATOM     10  C   UNL     1      -0.888  -1.078  23.945  0.00  0.00    +0.127 C 
ATOM     11  C   UNL     1      -1.384  -2.272  24.783  0.00  0.00    +0.167 C 
ATOM     12  C   UNL     1      -2.916  -2.326  24.833  0.00  0.00    +0.149 C 
ATOM     13  C   UNL     1      -3.525  -1.015  25.359  0.00  0.00    +0.074 C 
ATOM     14  C   UNL     1      -1.633   0.198  24.228  0.00  0.00    +0.006 C 
ATOM     15  C   UNL     1      -2.810   0.213  24.871  0.00  0.00    +0.015 C 
ENDROOT
BRANCH  10   6
ATOM      3  O   UNL     1       1.020  -0.337  21.924  0.00  0.00    -0.274 OA
ATOM      6  N   UNL     1       0.524  -0.846  24.132  0.00  0.00    -0.305 N 
ATOM     18  C   UNL     1       1.372  -0.490  23.093  0.00  0.00    +0.231 C 
ATOM     26  H   UNL     1       0.912  -0.991  25.059  0.00  0.00    +0.149 HD
BRANCH  18  16
ATOM     16  C   UNL     1       2.818  -0.315  23.553  0.00  0.00    +0.143 C 
BRANCH  16   7
ATOM      7  N   UNL     1       3.415  -1.652  23.603  0.00  0.00    -0.309 NA
ATOM     23  C   UNL     1       4.795  -1.581  24.054  0.00  0.00    +0.101 C 
ATOM     29  H   UNL     1       3.405  -2.065  22.671  0.00  0.00    +0.122 HD
ENDBRANCH  16   7
BRANCH  16  17
ATOM     17  C   UNL     1       3.637   0.631  22.642  0.00  0.00    +0.009 C 
ATOM     20  C   UNL     1       3.115   2.070  22.699  0.00  0.00    +0.009 C 
ATOM     21  C   UNL     1       5.144   0.615  22.923  0.00  0.00    +0.009 C 
ENDBRANCH  16  17
ENDBRANCH  18  16
ENDBRANCH  10   6
BRANCH  15  19
ATOM      4  O   UNL     1      -4.659   1.604  25.278  0.00  0.00    -0.271 OA
ATOM      8  N   UNL     1      -2.548   2.567  25.054  0.00  0.00    -0.301 N 
ATOM     19  C   UNL     1      -3.446   1.515  25.089  0.00  0.00    +0.240 C 
ATOM     30  H   UNL     1      -1.564   2.377  24.885  0.00  0.00    +0.150 HD
BRANCH   8  22
ATOM     22  C   UNL     1      -2.940   3.946  25.239  0.00  0.00    +0.156 C 
ATOM     24  C   UNL     1      -3.957   4.372  24.193  0.00  0.00    +0.038 C 
BRANCH  22  25
ATOM      5  O   UNL     1      -1.707   6.038  25.163  0.00  0.00    -0.274 OA
ATOM      9  N   UNL     1      -0.527   4.067  25.157  0.00  0.00    -0.328 N 
ATOM     25  C   UNL     1      -1.689   4.809  25.169  0.00  0.00    +0.231 C 
ATOM     31  H   UNL     1       0.380   4.521  25.123  0.00  0.00    +0.145 HD
ATOM     32  H   UNL     1      -0.526   3.052  25.183  0.00  0.00    +0.145 HD
ENDBRANCH  22  25
ENDBRANCH   8  22
ENDBRANCH  15  19
BRANCH  11   1
ATOM      1  O   UNL     1      -0.884  -2.160  26.118  0.00  0.00    -0.387 OA
ATOM     27  H   UNL     1      -1.591  -2.452  26.720  0.00  0.00    +0.210 HD
ENDBRANCH  11   1
BRANCH  12   2
ATOM      2  O   UNL     1      -3.439  -2.623  23.541  0.00  0.00    -0.389 OA
ATOM     28  H   UNL     1      -4.379  -2.849  23.647  0.00  0.00    +0.210 HD
ENDBRANCH  12   2
TORSDOF 9
ENDMDL
MODEL 7
REMARK VINA RESULT:      -2.0      2.330      6.677
REMARK  Name = 11866103
REMARK  13 active torsions:
REMARK  status: ('A' for Active; 'I' for Inactive)
REMARK    1  A    between atoms: O_1  and  C_11
REMARK    2  A    between atoms: O_2  and  C_12
REMARK    3  A    between atoms: N_6  and  C_10
REMARK    4  A    between atoms: N_7  and  C_16
REMARK    5  A    between atoms: N_7  and  C_23
REMARK    6  A    between atoms: N_8  and  C_22
REMARK    7  A    between atoms: C_15  and  C_19
REMARK    8  A    between atoms: C_16  and  C_17
REMARK    9  A    between atoms: C_16  and  C_18
REMARK   10  A    between atoms: C_17  and  C_20
REMARK   11  A    between atoms: C_17  and  C_21
REMARK   12  A    between atoms: C_22  and  C_24
REMARK   13  A    between atoms: C_22  and  C_25
REMARK                            x       y       z     vdW  Elec       q    Type
REMARK                         _______ _______ _______ _____ _____    ______ ____
ROOT
ATOM     10  C   UNL     1       0.203   2.331  24.693  0.00  0.00    +0.127 C 
ATOM     11  C   UNL     1      -0.168   3.645  23.979  0.00  0.00    +0.167 C 
ATOM     12  C   UNL     1      -1.451   4.256  24.555  0.00  0.00    +0.149 C 
ATOM     13  C   UNL     1      -2.633   3.272  24.509  0.00  0.00    +0.074 C 
ATOM     14  C   UNL     1      -0.976   1.423  24.918  0.00  0.00    +0.006 C 
ATOM     15  C   UNL     1      -2.242   1.856  24.823  0.00  0.00    +0.015 C 
ENDROOT
BRANCH  10   6
ATOM      3  O   UNL     1       0.174  -0.464  24.017  0.00  0.00    -0.274 OA
ATOM      6  N   UNL     1       1.222   1.604  23.977  0.00  0.00    -0.305 N 
ATOM     18  C   UNL     1       1.123   0.250  23.694  0.00  0.00    +0.231 C 
ATOM     26  H   UNL     1       2.065   2.105  23.708  0.00  0.00    +0.149 HD
BRANCH  18  16
ATOM     16  C   UNL     1       2.339  -0.281  22.937  0.00  0.00    +0.143 C 
BRANCH  16   7
ATOM      7  N   UNL     1       2.120   0.013  21.519  0.00  0.00    -0.309 NA
ATOM     23  C   UNL     1       0.957  -0.703  21.021  0.00  0.00    +0.101 C 
ATOM     29  H   UNL     1       2.932  -0.285  20.979  0.00  0.00    +0.122 HD
ENDBRANCH  16   7
BRANCH  16  17
ATOM     17  C   UNL     1       3.676   0.319  23.434  0.00  0.00    +0.009 C 
ATOM     20  C   UNL     1       4.687  -0.771  23.804  0.00  0.00    +0.009 C 
ATOM     21  C   UNL     1       4.318   1.308  22.454  0.00  0.00    +0.009 C 
ENDBRANCH  16  17
ENDBRANCH  18  16
ENDBRANCH  10   6
BRANCH  15  19
ATOM      4  O   UNL     1      -4.491   1.229  25.088  0.00  0.00    -0.271 OA
ATOM      8  N   UNL     1      -2.836  -0.404  25.254  0.00  0.00    -0.301 N 
ATOM     19  C   UNL     1      -3.310   0.882  25.065  0.00  0.00    +0.240 C 
ATOM     30  H   UNL     1      -1.835  -0.576  25.218  0.00  0.00    +0.150 HD
BRANCH   8  22
ATOM     22  C   UNL     1      -3.699  -1.534  25.511  0.00  0.00    +0.156 C 
ATOM     24  C   UNL     1      -3.393  -2.161  26.862  0.00  0.00    +0.038 C 
BRANCH  22  25
ATOM      5  O   UNL     1      -4.438  -3.014  23.732  0.00  0.00    -0.274 OA
ATOM      9  N   UNL     1      -2.186  -2.836  24.148  0.00  0.00    -0.328 N 
ATOM     25  C   UNL     1      -3.511  -2.541  24.387  0.00  0.00    +0.231 C 
ATOM     31  H   UNL     1      -1.921  -3.486  23.415  0.00  0.00    +0.145 HD
ATOM     32  H   UNL     1      -1.429  -2.421  24.684  0.00  0.00    +0.145 HD
ENDBRANCH  22  25
ENDBRANCH   8  22
ENDBRANCH  15  19
BRANCH  11   1
ATOM      1  O   UNL     1      -0.365   3.393  22.585  0.00  0.00    -0.387 OA
ATOM     27  H   UNL     1      -1.293   3.131  22.464  0.00  0.00    +0.210 HD
ENDBRANCH  11   1
BRANCH  12   2
ATOM      2  O   UNL     1      -1.229   4.691  25.895  0.00  0.00    -0.389 OA
ATOM     28  H   UNL     1      -1.869   5.397  26.086  0.00  0.00    +0.210 HD
ENDBRANCH  12   2
TORSDOF 9
ENDMDL
MODEL 8
REMARK VINA RESULT:      -2.0      2.010      3.558
REMARK  Name = 11866103
REMARK  13 active torsions:
REMARK  status: ('A' for Active; 'I' for Inactive)
REMARK    1  A    between atoms: O_1  and  C_11
REMARK    2  A    between atoms: O_2  and  C_12
REMARK    3  A    between atoms: N_6  and  C_10
REMARK    4  A    between atoms: N_7  and  C_16
REMARK    5  A    between atoms: N_7  and  C_23
REMARK    6  A    between atoms: N_8  and  C_22
REMARK    7  A    between atoms: C_15  and  C_19
REMARK    8  A    between atoms: C_16  and  C_17
REMARK    9  A    between atoms: C_16  and  C_18
REMARK   10  A    between atoms: C_17  and  C_20
REMARK   11  A    between atoms: C_17  and  C_21
REMARK   12  A    between atoms: C_22  and  C_24
REMARK   13  A    between atoms: C_22  and  C_25
REMARK                            x       y       z     vdW  Elec       q    Type
REMARK                         _______ _______ _______ _____ _____    ______ ____
ROOT
ATOM     10  C   UNL     1      -1.971   2.793  24.449  0.00  0.00    +0.127 C 
ATOM     11  C   UNL     1      -1.414   3.578  25.652  0.00  0.00    +0.167 C 
ATOM     12  C   UNL     1       0.005   4.092  25.381  0.00  0.00    +0.149 C 
ATOM     13  C   UNL     1       0.968   2.956  24.995  0.00  0.00    +0.074 C 
ATOM     14  C   UNL     1      -0.974   1.838  23.850  0.00  0.00    +0.006 C 
ATOM     15  C   UNL     1       0.339   1.917  24.110  0.00  0.00    +0.015 C 
ENDROOT
BRANCH  10   6
ATOM      3  O   UNL     1      -4.422   2.690  22.947  0.00  0.00    -0.274 OA
ATOM      6  N   UNL     1      -3.166   2.065  24.795  0.00  0.00    -0.305 N 
ATOM     18  C   UNL     1      -4.307   2.073  24.006  0.00  0.00    +0.231 C 
ATOM     26  H   UNL     1      -3.179   1.559  25.677  0.00  0.00    +0.149 HD
BRANCH  18  16
ATOM     16  C   UNL     1      -5.436   1.231  24.601  0.00  0.00    +0.143 C 
BRANCH  16   7
ATOM      7  N   UNL     1      -4.807   0.108  25.300  0.00  0.00    -0.309 NA
ATOM     23  C   UNL     1      -4.292  -0.864  24.349  0.00  0.00    +0.101 C 
ATOM     29  H   UNL     1      -5.498  -0.357  25.888  0.00  0.00    +0.122 HD
ENDBRANCH  16   7
BRANCH  16  17
ATOM     17  C   UNL     1      -6.361   2.033  25.546  0.00  0.00    +0.009 C 
ATOM     20  C   UNL     1      -6.473   1.377  26.926  0.00  0.00    +0.009 C 
ATOM     21  C   UNL     1      -5.965   3.506  25.704  0.00  0.00    +0.009 C 
ENDBRANCH  16  17
ENDBRANCH  18  16
ENDBRANCH  10   6
BRANCH  15  19
ATOM      4  O   UNL     1       0.822  -0.208  23.230  0.00  0.00    -0.271 OA
ATOM      8  N   UNL     1       2.475   1.436  23.186  0.00  0.00    -0.301 N 
ATOM     19  C   UNL     1       1.217   0.934  23.468  0.00  0.00    +0.240 C 
ATOM     30  H   UNL     1       2.694   2.398  23.432  0.00  0.00    +0.150 HD
BRANCH   8  22
ATOM     22  C   UNL     1       3.514   0.654  22.557  0.00  0.00    +0.156 C 
ATOM     24  C   UNL     1       2.954  -0.189  21.422  0.00  0.00    +0.038 C 
BRANCH  22  25
ATOM      5  O   UNL     1       3.933  -1.424  23.745  0.00  0.00    -0.274 OA
ATOM      9  N   UNL     1       5.063   0.465  24.403  0.00  0.00    -0.328 N 
ATOM     25  C   UNL     1       4.159  -0.222  23.620  0.00  0.00    +0.231 C 
ATOM     31  H   UNL     1       5.573  -0.005  25.144  0.00  0.00    +0.145 HD
ATOM     32  H   UNL     1       5.255   1.453  24.275  0.00  0.00    +0.145 HD
ENDBRANCH  22  25
ENDBRANCH   8  22
ENDBRANCH  15  19
BRANCH  11   1
ATOM      1  O   UNL     1      -1.385   2.732  26.804  0.00  0.00    -0.387 OA
ATOM     27  H   UNL     1      -1.269   3.303  27.583  0.00  0.00    +0.210 HD
ENDBRANCH  11   1
BRANCH  12   2
ATOM      2  O   UNL     1      -0.018   5.083  24.357  0.00  0.00    -0.389 OA
ATOM     28  H   UNL     1      -0.949   5.298  24.175  0.00  0.00    +0.210 HD
ENDBRANCH  12   2
TORSDOF 9
ENDMDL
MODEL 9
REMARK VINA RESULT:      -1.2      2.120      3.888
REMARK  Name = 11866103
REMARK  13 active torsions:
REMARK  status: ('A' for Active; 'I' for Inactive)
REMARK    1  A    between atoms: O_1  and  C_11
REMARK    2  A    between atoms: O_2  and  C_12
REMARK    3  A    between atoms: N_6  and  C_10
REMARK    4  A    between atoms: N_7  and  C_16
REMARK    5  A    between atoms: N_7  and  C_23
REMARK    6  A    between atoms: N_8  and  C_22
REMARK    7  A    between atoms: C_15  and  C_19
REMARK    8  A    between atoms: C_16  and  C_17
REMARK    9  A    between atoms: C_16  and  C_18
REMARK   10  A    between atoms: C_17  and  C_20
REMARK   11  A    between atoms: C_17  and  C_21
REMARK   12  A    between atoms: C_22  and  C_24
REMARK   13  A    between atoms: C_22  and  C_25
REMARK                            x       y       z     vdW  Elec       q    Type
REMARK                         _______ _______ _______ _____ _____    ______ ____
ROOT
ATOM     10  C   UNL     1      -2.331   3.314  23.896  0.00  0.00    +0.127 C 
ATOM     11  C   UNL     1      -1.995   4.143  25.150  0.00  0.00    +0.167 C 
ATOM     12  C   UNL     1      -0.495   4.449  25.238  0.00  0.00    +0.149 C 
ATOM     13  C   UNL     1       0.359   3.170  25.200  0.00  0.00    +0.074 C 
ATOM     14  C   UNL     1      -1.364   2.187  23.652  0.00  0.00    +0.006 C 
ATOM     15  C   UNL     1      -0.164   2.130  24.250  0.00  0.00    +0.015 C 
ENDROOT
BRANCH  10   6
ATOM      3  O   UNL     1      -3.173   0.935  25.277  0.00  0.00    -0.274 OA
ATOM      6  N   UNL     1      -3.668   2.776  23.955  0.00  0.00    -0.305 N 
ATOM     18  C   UNL     1      -3.983   1.617  24.649  0.00  0.00    +0.231 C 
ATOM     26  H   UNL     1      -4.397   3.251  23.430  0.00  0.00    +0.149 HD
BRANCH  18  16
ATOM     16  C   UNL     1      -5.465   1.257  24.545  0.00  0.00    +0.143 C 
BRANCH  16   7
ATOM      7  N   UNL     1      -5.575  -0.177  24.821  0.00  0.00    -0.309 NA
ATOM     23  C   UNL     1      -4.584  -0.923  24.062  0.00  0.00    +0.101 C 
ATOM     29  H   UNL     1      -6.500  -0.507  24.545  0.00  0.00    +0.122 HD
ENDBRANCH  16   7
BRANCH  16  17
ATOM     17  C   UNL     1      -6.361   2.082  25.500  0.00  0.00    +0.009 C 
ATOM     20  C   UNL     1      -6.511   1.407  26.866  0.00  0.00    +0.009 C 
ATOM     21  C   UNL     1      -5.901   3.532  25.687  0.00  0.00    +0.009 C 
ENDBRANCH  16  17
ENDBRANCH  18  16
ENDBRANCH  10   6
BRANCH  15  19
ATOM      4  O   UNL     1       0.282  -0.167  24.044  0.00  0.00    -0.271 OA
ATOM      8  N   UNL     1       1.963   1.362  23.522  0.00  0.00    -0.301 N 
ATOM     19  C   UNL     1       0.696   0.987  23.934  0.00  0.00    +0.240 C 
ATOM     30  H   UNL     1       2.198   2.349  23.471  0.00  0.00    +0.150 HD
BRANCH   8  22
ATOM     22  C   UNL     1       2.988   0.411  23.159  0.00  0.00    +0.156 C 
ATOM     24  C   UNL     1       4.373   0.943  23.495  0.00  0.00    +0.038 C 
BRANCH  22  25
ATOM      5  O   UNL     1       3.780   0.261  20.867  0.00  0.00    -0.274 OA
ATOM      9  N   UNL     1       1.618  -0.365  21.325  0.00  0.00    -0.328 N 
ATOM     25  C   UNL     1       2.862   0.120  21.671  0.00  0.00    +0.231 C 
ATOM     31  H   UNL     1       1.405  -0.610  20.363  0.00  0.00    +0.145 HD
ATOM     32  H   UNL     1       0.875  -0.496  22.003  0.00  0.00    +0.145 HD
ENDBRANCH  22  25
ENDBRANCH   8  22
ENDBRANCH  15  19
BRANCH  11   1
ATOM      1  O   UNL     1      -2.386   3.422  26.321  0.00  0.00    -0.387 OA
ATOM     27  H   UNL     1      -1.894   2.583  26.325  0.00  0.00    +0.210 HD
ENDBRANCH  11   1
BRANCH  12   2
ATOM      2  O   UNL     1      -0.109   5.325  24.181  0.00  0.00    -0.389 OA
ATOM     28  H   UNL     1       0.688   5.802  24.469  0.00  0.00    +0.210 HD
ENDBRANCH  12   2
TORSDOF 9
ENDMDL
