MODEL 1
REMARK VINA RESULT:       7.8      0.000      0.000
REMARK  Name = 7673881
REMARK  5 active torsions:
REMARK  status: ('A' for Active; 'I' for Inactive)
REMARK    1  A    between atoms: S_1  and  N_7
REMARK    2  A    between atoms: S_1  and  C_22
REMARK    3  A    between atoms: N_9  and  C_20
REMARK    4  A    between atoms: C_26  and  C_27
REMARK    5  A    between atoms: C_32  and  C_33
REMARK                            x       y       z     vdW  Elec       q    Type
REMARK                         _______ _______ _______ _____ _____    ______ ____
ROOT
ATOM      5  O   UNL     1       0.116   2.646  26.039  0.00  0.00    -0.266 OA
ATOM      7  N   UNL     1      -4.776   1.992  25.361  0.00  0.00    -0.175 NA
ATOM      8  N   UNL     1      -1.904   3.274  25.046  0.00  0.00    -0.310 N 
ATOM     11  C   UNL     1      -3.918   4.095  26.399  0.00  0.00    +0.025 C 
ATOM     12  C   UNL     1      -4.080   3.921  23.954  0.00  0.00    +0.052 C 
ATOM     13  C   UNL     1      -4.272   4.868  25.135  0.00  0.00    +0.017 C 
ATOM     14  C   UNL     1      -4.840   2.875  26.561  0.00  0.00    +0.114 C 
ATOM     15  C   UNL     1      -5.044   2.728  24.089  0.00  0.00    +0.119 C 
ATOM     16  C   UNL     1      -2.435   3.706  26.346  0.00  0.00    +0.130 C 
ATOM     17  C   UNL     1      -2.645   3.434  23.871  0.00  0.00    +0.026 A 
ATOM     18  C   UNL     1      -2.096   3.138  22.681  0.00  0.00    +0.024 A 
ATOM     19  C   UNL     1      -0.580   2.789  25.034  0.00  0.00    +0.273 A 
ATOM     20  C   UNL     1      -0.014   2.450  23.690  0.00  0.00    +0.099 A 
ATOM     21  C   UNL     1      -0.755   2.635  22.592  0.00  0.00    +0.030 A 
ENDROOT
BRANCH  20   9
ATOM      6  O   UNL     1       0.747  -0.219  23.019  0.00  0.00    -0.270 OA
ATOM      9  N   UNL     1       1.260   1.965  23.636  0.00  0.00    -0.277 N 
ATOM     26  C   UNL     1       1.565   0.653  23.302  0.00  0.00    +0.248 C 
ATOM     34  H   UNL     1       1.973   2.587  24.001  0.00  0.00    +0.155 HD
BRANCH  26  27
ATOM     27  C   UNL     1       3.013   0.316  23.273  0.00  0.00    +0.037 A 
ATOM     28  C   UNL     1       3.911   1.273  22.849  0.00  0.00    +0.014 A 
ATOM     29  C   UNL     1       3.411  -0.944  23.670  0.00  0.00    +0.014 A 
ATOM     30  C   UNL     1       5.269   0.957  22.821  0.00  0.00    +0.019 A 
ATOM     31  C   UNL     1       4.770  -1.260  23.642  0.00  0.00    +0.019 A 
ATOM     32  C   UNL     1       5.698  -0.310  23.218  0.00  0.00    +0.052 A 
BRANCH  32  33
ATOM     10  N   UNL     1       8.221  -0.899  23.165  0.00  0.00    -0.191 NA
ATOM     33  C   UNL     1       7.090  -0.635  23.188  0.00  0.00    +0.099 C 
ENDBRANCH  32  33
ENDBRANCH  26  27
ENDBRANCH  20   9
BRANCH   7   1
ATOM      1  S   UNL     1      -5.554   0.476  25.516  0.00  0.00    +0.067 S 
ATOM      3  O   UNL     1      -6.568   0.355  24.490  0.00  0.00    -0.152 OA
ATOM      4  O   UNL     1      -5.875   0.251  26.910  0.00  0.00    -0.152 OA
BRANCH   1  22
ATOM      2  S   UNL     1      -2.697  -0.123  25.694  0.00  0.00    -0.077 S 
ATOM     22  C   UNL     1      -4.223  -0.600  25.087  0.00  0.00    +0.143 A 
ATOM     23  C   UNL     1      -4.155  -1.760  24.355  0.00  0.00    +0.036 A 
ATOM     24  C   UNL     1      -2.827  -2.269  24.288  0.00  0.00    +0.010 A 
ATOM     25  C   UNL     1      -1.934  -1.476  24.974  0.00  0.00    +0.047 A 
ENDBRANCH   1  22
ENDBRANCH   7   1
TORSDOF 5
ENDMDL
MODEL 2
REMARK VINA RESULT:       8.6      2.048      3.954
REMARK  Name = 7673881
REMARK  5 active torsions:
REMARK  status: ('A' for Active; 'I' for Inactive)
REMARK    1  A    between atoms: S_1  and  N_7
REMARK    2  A    between atoms: S_1  and  C_22
REMARK    3  A    between atoms: N_9  and  C_20
REMARK    4  A    between atoms: C_26  and  C_27
REMARK    5  A    between atoms: C_32  and  C_33
REMARK                            x       y       z     vdW  Elec       q    Type
REMARK                         _______ _______ _______ _____ _____    ______ ____
ROOT
ATOM      5  O   UNL     1      -0.653   0.356  22.476  0.00  0.00    -0.266 OA
ATOM      7  N   UNL     1      -4.296   2.203  25.329  0.00  0.00    -0.175 NA
ATOM      8  N   UNL     1      -2.453   0.047  23.933  0.00  0.00    -0.310 N 
ATOM     11  C   UNL     1      -4.843   0.769  23.359  0.00  0.00    +0.025 C 
ATOM     12  C   UNL     1      -4.374  -0.274  25.533  0.00  0.00    +0.052 C 
ATOM     13  C   UNL     1      -5.257  -0.361  24.291  0.00  0.00    +0.017 C 
ATOM     14  C   UNL     1      -5.043   2.133  24.040  0.00  0.00    +0.114 C 
ATOM     15  C   UNL     1      -4.617   1.069  26.245  0.00  0.00    +0.119 C 
ATOM     16  C   UNL     1      -3.391   0.544  22.917  0.00  0.00    +0.130 C 
ATOM     17  C   UNL     1      -2.907  -0.421  25.170  0.00  0.00    +0.026 A 
ATOM     18  C   UNL     1      -2.046  -0.976  26.039  0.00  0.00    +0.024 A 
ATOM     19  C   UNL     1      -1.096  -0.028  23.559  0.00  0.00    +0.273 A 
ATOM     20  C   UNL     1      -0.166  -0.633  24.564  0.00  0.00    +0.099 A 
ATOM     21  C   UNL     1      -0.648  -1.081  25.728  0.00  0.00    +0.030 A 
ENDROOT
BRANCH  20   9
ATOM      6  O   UNL     1       1.479   1.516  23.655  0.00  0.00    -0.270 OA
ATOM      9  N   UNL     1       1.158  -0.712  24.245  0.00  0.00    -0.277 N 
ATOM     26  C   UNL     1       1.905   0.373  23.808  0.00  0.00    +0.248 C 
ATOM     34  H   UNL     1       1.535  -1.652  24.206  0.00  0.00    +0.155 HD
BRANCH  26  27
ATOM     27  C   UNL     1       3.339   0.098  23.530  0.00  0.00    +0.037 A 
ATOM     28  C   UNL     1       3.872  -1.113  23.924  0.00  0.00    +0.014 A 
ATOM     29  C   UNL     1       4.090   1.061  22.891  0.00  0.00    +0.014 A 
ATOM     30  C   UNL     1       5.218  -1.370  23.664  0.00  0.00    +0.019 A 
ATOM     31  C   UNL     1       5.437   0.803  22.632  0.00  0.00    +0.019 A 
ATOM     32  C   UNL     1       6.000  -0.413  23.018  0.00  0.00    +0.052 A 
BRANCH  32  33
ATOM     10  N   UNL     1       8.502  -0.890  22.540  0.00  0.00    -0.191 NA
ATOM     33  C   UNL     1       7.380  -0.677  22.754  0.00  0.00    +0.099 C 
ENDBRANCH  32  33
ENDBRANCH  26  27
ENDBRANCH  20   9
BRANCH   7   1
ATOM      1  S   UNL     1      -4.227   3.748  26.061  0.00  0.00    +0.067 S 
ATOM      3  O   UNL     1      -4.205   3.591  27.499  0.00  0.00    -0.152 OA
ATOM      4  O   UNL     1      -5.194   4.616  25.421  0.00  0.00    -0.152 OA
BRANCH   1  22
ATOM      2  S   UNL     1      -1.422   3.042  25.631  0.00  0.00    -0.077 S 
ATOM     22  C   UNL     1      -2.617   4.262  25.550  0.00  0.00    +0.143 A 
ATOM     23  C   UNL     1      -2.117   5.456  25.093  0.00  0.00    +0.036 A 
ATOM     24  C   UNL     1      -0.724   5.372  24.804  0.00  0.00    +0.010 A 
ATOM     25  C   UNL     1      -0.220   4.114  25.052  0.00  0.00    +0.047 A 
ENDBRANCH   1  22
ENDBRANCH   7   1
TORSDOF 5
ENDMDL
