MODEL 1
REMARK VINA RESULT:       8.3      0.000      0.000
REMARK  Name = 11941442
REMARK  9 active torsions:
REMARK  status: ('A' for Active; 'I' for Inactive)
REMARK    1  A    between atoms: S_1  and  C_22
REMARK    2  A    between atoms: S_1  and  C_29
REMARK    3  A    between atoms: O_5  and  C_25
REMARK    4  A    between atoms: O_5  and  C_31
REMARK    5  A    between atoms: O_6  and  C_30
REMARK    6  A    between atoms: O_6  and  C_32
REMARK    7  A    between atoms: N_8  and  C_10
REMARK    8  A    between atoms: C_18  and  C_22
REMARK    9  A    between atoms: C_21  and  C_24
REMARK                            x       y       z     vdW  Elec       q    Type
REMARK                         _______ _______ _______ _____ _____    ______ ____
ROOT
ATOM      2  O   UNL     1      -5.516  -0.245  25.426  0.00  0.00    -0.273 OA
ATOM      3  O   UNL     1      -2.123   1.627  21.857  0.00  0.00    -0.270 OA
ATOM      7  N   UNL     1      -3.601   1.733  23.616  0.00  0.00    -0.284 N 
ATOM      9  N   UNL     1      -3.369  -0.864  24.981  0.00  0.00    -0.283 N 
ATOM     10  C   UNL     1      -5.069   2.534  25.288  0.00  0.00    +0.104 C 
ATOM     11  C   UNL     1      -3.940   1.532  25.013  0.00  0.00    +0.183 C 
ATOM     12  C   UNL     1      -5.718   2.726  23.916  0.00  0.00    +0.043 C 
ATOM     13  C   UNL     1      -4.544   2.623  22.954  0.00  0.00    +0.111 C 
ATOM     14  C   UNL     1      -4.366   0.080  25.124  0.00  0.00    +0.240 C 
ATOM     15  C   UNL     1      -2.449   1.297  22.997  0.00  0.00    +0.249 C 
ATOM     16  C   UNL     1      -1.567   0.359  23.739  0.00  0.00    +0.059 A 
ATOM     17  C   UNL     1      -2.031  -0.674  24.571  0.00  0.00    +0.046 A 
ATOM     19  C   UNL     1      -0.196   0.437  23.433  0.00  0.00    +0.023 A 
ATOM     20  C   UNL     1      -1.119  -1.644  25.022  0.00  0.00    +0.024 A 
ATOM     21  C   UNL     1       0.702  -0.508  23.929  0.00  0.00    -0.014 A 
ATOM     23  C   UNL     1       0.239  -1.556  24.713  0.00  0.00    +0.010 A 
ATOM     34  H   UNL     1      -3.610  -1.802  25.289  0.00  0.00    +0.155 HD
ENDROOT
BRANCH  21  24
ATOM     24  C   UNL     1       2.109  -0.410  23.607  0.00  0.00    +0.024 A 
ATOM     25  C   UNL     1       2.662   0.793  23.164  0.00  0.00    +0.131 A 
ATOM     26  C   UNL     1       2.920  -1.538  23.744  0.00  0.00    +0.016 A 
ATOM     27  C   UNL     1       4.021   0.868  22.859  0.00  0.00    +0.091 A 
ATOM     28  C   UNL     1       4.279  -1.464  23.439  0.00  0.00    +0.046 A 
ATOM     30  C   UNL     1       4.829  -0.260  22.996  0.00  0.00    +0.124 A 
BRANCH  25   5
ATOM      5  O   UNL     1       1.895   1.912  23.021  0.00  0.00    -0.494 OA
ATOM     31  C   UNL     1       1.245   2.405  24.190  0.00  0.00    +0.277 C 
ENDBRANCH  25   5
BRANCH  30   6
ATOM      6  O   UNL     1       6.156  -0.188  22.699  0.00  0.00    -0.495 OA
ATOM     32  C   UNL     1       7.071  -0.248  23.791  0.00  0.00    +0.277 C 
ENDBRANCH  30   6
ENDBRANCH  21  24
BRANCH  10   8
ATOM      4  O   UNL     1      -2.343   3.086  26.089  0.00  0.00    -0.275 OA
ATOM      8  N   UNL     1      -4.542   3.779  25.795  0.00  0.00    -0.309 N 
ATOM     18  C   UNL     1      -3.216   3.951  26.155  0.00  0.00    +0.223 C 
ATOM     33  H   UNL     1      -5.197   4.541  25.948  0.00  0.00    +0.149 HD
BRANCH  18  22
ATOM     22  C   UNL     1      -2.920   5.339  26.673  0.00  0.00    +0.164 C 
BRANCH  22   1
ATOM      1  S   UNL     1      -2.172   6.313  25.346  0.00  0.00    -0.155 S 
ATOM     29  C   UNL     1      -0.895   5.139  24.836  0.00  0.00    +0.085 C 
ENDBRANCH  22   1
ENDBRANCH  18  22
ENDBRANCH  10   8
TORSDOF 6
ENDMDL
