MODEL 1
REMARK VINA RESULT:      -1.8      0.000      0.000
REMARK  Name = 45784383
REMARK  10 active torsions:
REMARK  status: ('A' for Active; 'I' for Inactive)
REMARK    1  A    between atoms: O_1  and  C_11
REMARK    2  A    between atoms: N_4  and  C_15
REMARK    3  A    between atoms: N_5  and  C_25
REMARK    4  A    between atoms: C_8  and  C_18
REMARK    5  A    between atoms: C_10  and  C_20
REMARK    6  A    between atoms: C_14  and  C_19
REMARK    7  A    between atoms: C_19  and  C_21
REMARK    8  A    between atoms: C_19  and  C_22
REMARK    9  A    between atoms: C_23  and  C_24
REMARK   10  A    between atoms: C_25  and  C_27
REMARK                            x       y       z     vdW  Elec       q    Type
REMARK                         _______ _______ _______ _____ _____    ______ ____
ROOT
ATOM      8  C   UNL     1      -2.960  -1.343  24.866  0.00  0.00    -0.027 C 
ATOM      9  C   UNL     1      -2.613  -0.013  24.117  0.00  0.00    +0.028 C 
ATOM     10  C   UNL     1      -1.073   0.290  24.201  0.00  0.00    +0.012 C 
ATOM     11  C   UNL     1      -3.548   1.148  24.564  0.00  0.00    +0.122 C 
ATOM     12  C   UNL     1      -4.459  -1.670  24.669  0.00  0.00    +0.007 C 
ATOM     13  C   UNL     1      -2.140  -2.498  24.248  0.00  0.00    +0.009 C 
ATOM     14  C   UNL     1      -5.046   0.777  24.463  0.00  0.00    +0.029 C 
ATOM     15  C   UNL     1      -0.257  -0.910  23.645  0.00  0.00    +0.076 C 
ATOM     16  C   UNL     1      -5.378  -0.552  25.143  0.00  0.00    +0.007 C 
ATOM     17  C   UNL     1      -0.639  -2.249  24.277  0.00  0.00    +0.023 C 
ATOM     18  C   UNL     1      -2.664  -1.262  26.385  0.00  0.00    +0.011 C 
ATOM     20  C   UNL     1      -0.657   1.571  23.458  0.00  0.00    +0.010 C 
ENDROOT
BRANCH  15   4
ATOM      3  O   UNL     1       1.648  -0.320  21.580  0.00  0.00    -0.268 OA
ATOM      4  N   UNL     1       1.167  -0.714  23.814  0.00  0.00    -0.307 N 
ATOM     23  C   UNL     1       2.007  -0.431  22.749  0.00  0.00    +0.264 C 
ATOM     35  H   UNL     1       1.567  -0.844  24.739  0.00  0.00    +0.149 HD
BRANCH  23  24
ATOM      6  N   UNL     1       4.051  -1.354  23.637  0.00  0.00    -0.247 NA
ATOM      7  N   UNL     1       5.428   1.039  23.143  0.00  0.00    -0.259 NA
ATOM     24  C   UNL     1       3.446  -0.284  23.084  0.00  0.00    +0.143 A 
ATOM     26  C   UNL     1       4.123   0.892  22.841  0.00  0.00    +0.143 A 
ATOM     28  C   UNL     1       5.356  -1.207  23.939  0.00  0.00    +0.131 A 
ATOM     31  C   UNL     1       6.033  -0.031  23.696  0.00  0.00    +0.130 A 
ENDBRANCH  23  24
ENDBRANCH  15   4
BRANCH  11   1
ATOM      1  O   UNL     1      -3.349   2.276  23.713  0.00  0.00    -0.391 OA
ATOM     36  H   UNL     1      -2.827   2.935  24.200  0.00  0.00    +0.210 HD
ENDBRANCH  11   1
BRANCH  14  19
ATOM     19  C   UNL     1      -5.946   1.881  25.030  0.00  0.00    +0.077 C 
ATOM     21  C   UNL     1      -7.152   2.092  24.122  0.00  0.00    +0.017 C 
BRANCH  19  22
ATOM      2  O   UNL     1      -5.131   4.059  24.353  0.00  0.00    -0.276 OA
ATOM      5  N   UNL     1      -4.452   3.209  26.402  0.00  0.00    -0.311 N 
ATOM     22  C   UNL     1      -5.146   3.168  25.201  0.00  0.00    +0.216 C 
ATOM     37  H   UNL     1      -4.557   2.454  27.073  0.00  0.00    +0.149 HD
BRANCH   5  25
ATOM     25  C   UNL     1      -3.622   4.325  26.788  0.00  0.00    +0.139 C 
BRANCH  25  27
ATOM     27  C   UNL     1      -2.268   4.270  26.141  0.00  0.00    -0.030 A 
ATOM     29  C   UNL     1      -1.906   5.232  25.199  0.00  0.00    +0.005 A 
ATOM     30  C   UNL     1      -1.373   3.257  26.483  0.00  0.00    +0.005 A 
ATOM     32  C   UNL     1      -0.648   5.181  24.598  0.00  0.00    +0.000 A 
ATOM     33  C   UNL     1      -0.115   3.205  25.883  0.00  0.00    +0.000 A 
ATOM     34  C   UNL     1       0.247   4.167  24.940  0.00  0.00    +0.000 A 
ENDBRANCH  25  27
ENDBRANCH   5  25
ENDBRANCH  19  22
ENDBRANCH  14  19
TORSDOF 7
ENDMDL
