MODEL 1
REMARK VINA RESULT:      -0.5      0.000      0.000
REMARK  Name = 44716362
REMARK  8 active torsions:
REMARK  status: ('A' for Active; 'I' for Inactive)
REMARK    1  A    between atoms: O_4  and  C_18
REMARK    2  A    between atoms: O_4  and  C_23
REMARK    3  A    between atoms: N_7  and  C_21
REMARK    4  A    between atoms: N_9  and  C_29
REMARK    5  A    between atoms: C_11  and  C_17
REMARK    6  A    between atoms: C_12  and  C_18
REMARK    7  A    between atoms: C_20  and  C_22
REMARK    8  A    between atoms: C_36  and  C_39
REMARK                            x       y       z     vdW  Elec       q    Type
REMARK                         _______ _______ _______ _____ _____    ______ ____
ROOT
ATOM      6  N   UNL     1      16.617  -9.746  29.873  0.00  0.00    -0.296 NA
ATOM     10  C   UNL     1      14.723  -8.588  28.510  0.00  0.00    +0.002 C 
ATOM     11  C   UNL     1      16.088  -8.437  27.782  0.00  0.00    +0.055 C 
ATOM     12  C   UNL     1      15.827  -8.851  30.759  0.00  0.00    +0.095 C 
ATOM     13  C   UNL     1      14.836  -8.002  29.934  0.00  0.00    +0.026 C 
ATOM     14  C   UNL     1      14.464 -10.103  28.663  0.00  0.00    +0.019 C 
ATOM     15  C   UNL     1      17.188  -8.969  28.744  0.00  0.00    +0.094 C 
ATOM     16  C   UNL     1      15.692 -10.762  29.314  0.00  0.00    +0.085 C 
ENDROOT
BRANCH  11  17
ATOM      7  N   UNL     1      16.932  -6.050  27.944  0.00  0.00    -0.270 N 
ATOM      8  N   UNL     1      17.181  -4.934  27.238  0.00  0.00    -0.171 NA
ATOM     17  C   UNL     1      16.442  -7.079  27.195  0.00  0.00    +0.044 A 
ATOM     19  C   UNL     1      16.365  -6.602  25.908  0.00  0.00    +0.053 A 
ATOM     20  C   UNL     1      16.833  -5.278  25.995  0.00  0.00    +0.093 A 
ATOM     21  C   UNL     1      17.191  -6.058  29.365  0.00  0.00    +0.172 C 
BRANCH  20  22
ATOM     22  C   UNL     1      16.951  -4.334  24.914  0.00  0.00    +0.003 A 
ATOM     24  C   UNL     1      16.777  -2.971  25.155  0.00  0.00    +0.018 A 
ATOM     25  C   UNL     1      17.240  -4.782  23.628  0.00  0.00    +0.011 A 
ATOM     26  C   UNL     1      16.889  -2.038  24.111  0.00  0.00    -0.017 A 
ATOM     27  C   UNL     1      17.356  -3.870  22.579  0.00  0.00    +0.009 A 
ATOM     28  C   UNL     1      17.183  -2.495  22.804  0.00  0.00    -0.018 A 
ATOM     30  C   UNL     1      16.716  -0.663  24.336  0.00  0.00    +0.008 A 
ATOM     31  C   UNL     1      17.295  -1.562  21.761  0.00  0.00    +0.008 A 
ATOM     34  C   UNL     1      16.831   0.250  23.288  0.00  0.00    +0.001 A 
ATOM     35  C   UNL     1      17.120  -0.198  22.002  0.00  0.00    +0.001 A 
ENDBRANCH  20  22
ENDBRANCH  11  17
BRANCH  12  18
ATOM     18  C   UNL     1      16.716  -7.983  31.651  0.00  0.00    +0.252 C 
BRANCH  18   4
ATOM      4  O   UNL     1      16.023  -7.724  32.856  0.00  0.00    -0.449 OA
BRANCH   4  23
ATOM      5  O   UNL     1      14.092  -8.950  32.873  0.00  0.00    -0.226 OA
ATOM      9  N   UNL     1      14.069  -6.612  32.733  0.00  0.00    -0.251 N 
ATOM     23  C   UNL     1      14.652  -7.862  32.824  0.00  0.00    +0.405 C 
ATOM     40  H   UNL     1      14.705  -5.820  32.705  0.00  0.00    +0.158 HD
BRANCH   9  29
ATOM     29  C   UNL     1      12.692  -6.297  32.674  0.00  0.00    +0.037 A 
ATOM     32  C   UNL     1      11.754  -7.305  32.450  0.00  0.00    +0.035 A 
ATOM     33  C   UNL     1      12.272  -4.977  32.842  0.00  0.00    +0.023 A 
ATOM     36  C   UNL     1      10.396  -6.993  32.393  0.00  0.00    +0.057 A 
ATOM     37  C   UNL     1      10.913  -4.666  32.784  0.00  0.00    +0.002 A 
ATOM     38  C   UNL     1       9.975  -5.674  32.559  0.00  0.00    +0.012 A 
BRANCH  36  39
ATOM      1  F   UNL     1       8.220  -7.854  32.815  0.00  0.00    -0.166 F 
ATOM      2  F   UNL     1       9.049  -8.214  30.837  0.00  0.00    -0.166 F 
ATOM      3  F   UNL     1       9.814  -9.307  32.547  0.00  0.00    -0.166 F 
ATOM     39  C   UNL     1       9.393  -8.070  32.151  0.00  0.00    +0.417 C 
ENDBRANCH  36  39
ENDBRANCH   9  29
ENDBRANCH   4  23
ENDBRANCH  18   4
ENDBRANCH  12  18
TORSDOF 7
ENDMDL
