MODEL 1
REMARK VINA RESULT:      -1.0      0.000      0.000
REMARK  Name = 11886125
REMARK  5 active torsions:
REMARK  status: ('A' for Active; 'I' for Inactive)
REMARK    1  A    between atoms: S_1  and  N_7
REMARK    2  A    between atoms: S_1  and  C_18
REMARK    3  A    between atoms: N_6  and  C_14
REMARK    4  A    between atoms: N_7  and  C_13
REMARK    5  A    between atoms: C_17  and  C_19
REMARK                            x       y       z     vdW  Elec       q    Type
REMARK                         _______ _______ _______ _____ _____    ______ ____
ROOT
ATOM      2  O   UNL     1       0.030   2.174  26.519  0.00  0.00    -0.370 OA
ATOM      3  O   UNL     1      -0.242   3.818  23.851  0.00  0.00    -0.370 OA
ATOM     11  C   UNL     1      -1.147   3.024  24.634  0.00  0.00    +0.170 C 
ATOM     12  C   UNL     1      -0.370   1.841  25.178  0.00  0.00    +0.175 C 
ATOM     13  C   UNL     1      -1.580   3.785  25.867  0.00  0.00    +0.133 C 
ATOM     14  C   UNL     1       0.853   1.740  24.286  0.00  0.00    +0.168 C 
ATOM     15  C   UNL     1      -0.459   3.484  26.844  0.00  0.00    +0.183 C 
ATOM     16  C   UNL     1       1.038   3.172  23.795  0.00  0.00    +0.190 C 
ENDROOT
BRANCH  14   6
ATOM      6  N   UNL     1       0.697   0.738  23.228  0.00  0.00    -0.217 N 
ATOM      8  N   UNL     1      -0.495   0.530  22.661  0.00  0.00    -0.043 NA
ATOM      9  N   UNL     1       1.039  -0.817  21.766  0.00  0.00    -0.108 NA
ATOM     10  N   UNL     1      -0.280  -0.425  21.764  0.00  0.00    -0.023 NA
ATOM     17  C   UNL     1       1.626  -0.082  22.682  0.00  0.00    +0.182 A 
BRANCH  17  19
ATOM     19  C   UNL     1       3.015  -0.118  23.063  0.00  0.00    +0.021 A 
ATOM     22  C   UNL     1       3.550  -1.268  23.646  0.00  0.00    +0.011 A 
ATOM     23  C   UNL     1       3.829   0.996  22.851  0.00  0.00    +0.011 A 
ATOM     27  C   UNL     1       4.894  -1.304  24.016  0.00  0.00    +0.001 A 
ATOM     28  C   UNL     1       5.173   0.960  23.221  0.00  0.00    +0.001 A 
ATOM     31  C   UNL     1       5.706  -0.190  23.803  0.00  0.00    +0.000 A 
ENDBRANCH  17  19
ENDBRANCH  14   6
BRANCH  13   7
ATOM      7  N   UNL     1      -2.847   3.301  26.361  0.00  0.00    -0.182 NA
ATOM     34  H   UNL     1      -2.826   2.704  27.196  0.00  0.00    +0.148 HD
BRANCH   7   1
ATOM      1  S   UNL     1      -4.175   3.184  25.308  0.00  0.00    +0.059 S 
ATOM      4  O   UNL     1      -3.886   3.906  24.084  0.00  0.00    -0.153 OA
ATOM      5  O   UNL     1      -5.387   3.466  26.053  0.00  0.00    -0.153 OA
BRANCH   1  18
ATOM     18  C   UNL     1      -4.191   1.457  24.933  0.00  0.00    +0.106 A 
ATOM     20  C   UNL     1      -3.028   0.721  25.083  0.00  0.00    +0.037 A 
ATOM     21  C   UNL     1      -5.364   0.873  24.497  0.00  0.00    +0.029 A 
ATOM     24  C   UNL     1      -3.024  -0.651  24.787  0.00  0.00    -0.016 A 
ATOM     25  C   UNL     1      -5.379  -0.490  24.200  0.00  0.00    +0.010 A 
ATOM     26  C   UNL     1      -4.217  -1.267  24.340  0.00  0.00    -0.018 A 
ATOM     29  C   UNL     1      -1.862  -1.428  24.928  0.00  0.00    +0.008 A 
ATOM     30  C   UNL     1      -4.213  -2.639  24.045  0.00  0.00    +0.008 A 
ATOM     32  C   UNL     1      -1.877  -2.790  24.631  0.00  0.00    +0.001 A 
ATOM     33  C   UNL     1      -3.050  -3.395  24.191  0.00  0.00    +0.001 A 
ENDBRANCH   1  18
ENDBRANCH   7   1
ENDBRANCH  13   7
TORSDOF 5
ENDMDL
MODEL 2
REMARK VINA RESULT:       2.6      2.859      5.722
REMARK  Name = 11886125
REMARK  5 active torsions:
REMARK  status: ('A' for Active; 'I' for Inactive)
REMARK    1  A    between atoms: S_1  and  N_7
REMARK    2  A    between atoms: S_1  and  C_18
REMARK    3  A    between atoms: N_6  and  C_14
REMARK    4  A    between atoms: N_7  and  C_13
REMARK    5  A    between atoms: C_17  and  C_19
REMARK                            x       y       z     vdW  Elec       q    Type
REMARK                         _______ _______ _______ _____ _____    ______ ____
ROOT
ATOM      2  O   UNL     1      -2.501   5.199  24.419  0.00  0.00    -0.370 OA
ATOM      3  O   UNL     1      -2.366   3.642  27.149  0.00  0.00    -0.370 OA
ATOM     11  C   UNL     1      -1.984   3.332  25.800  0.00  0.00    +0.170 C 
ATOM     12  C   UNL     1      -3.023   3.939  24.876  0.00  0.00    +0.175 C 
ATOM     13  C   UNL     1      -0.701   4.046  25.439  0.00  0.00    +0.133 C 
ATOM     14  C   UNL     1      -4.234   4.172  25.759  0.00  0.00    +0.168 C 
ATOM     15  C   UNL     1      -1.203   5.407  24.993  0.00  0.00    +0.183 C 
ATOM     16  C   UNL     1      -3.622   4.336  27.146  0.00  0.00    +0.190 C 
ENDROOT
BRANCH  14   6
ATOM      6  N   UNL     1      -5.229   3.102  25.643  0.00  0.00    -0.217 N 
ATOM      8  N   UNL     1      -6.219   2.996  26.534  0.00  0.00    -0.043 NA
ATOM      9  N   UNL     1      -6.374   1.383  25.004  0.00  0.00    -0.108 NA
ATOM     10  N   UNL     1      -6.920   1.941  26.138  0.00  0.00    -0.023 NA
ATOM     17  C   UNL     1      -5.326   2.121  24.715  0.00  0.00    +0.182 A 
BRANCH  17  19
ATOM     19  C   UNL     1      -4.419   1.942  23.611  0.00  0.00    +0.021 A 
ATOM     22  C   UNL     1      -3.813   0.702  23.397  0.00  0.00    +0.011 A 
ATOM     23  C   UNL     1      -4.144   3.007  22.750  0.00  0.00    +0.011 A 
ATOM     27  C   UNL     1      -2.934   0.529  22.329  0.00  0.00    +0.001 A 
ATOM     28  C   UNL     1      -3.265   2.833  21.682  0.00  0.00    +0.001 A 
ATOM     31  C   UNL     1      -2.660   1.594  21.471  0.00  0.00    +0.000 A 
ENDBRANCH  17  19
ENDBRANCH  14   6
BRANCH  13   7
ATOM      7  N   UNL     1      -0.009   3.368  24.370  0.00  0.00    -0.182 NA
ATOM     34  H   UNL     1      -0.456   3.374  23.445  0.00  0.00    +0.148 HD
BRANCH   7   1
ATOM      1  S   UNL     1       1.101   2.134  24.731  0.00  0.00    +0.059 S 
ATOM      4  O   UNL     1       1.513   2.246  26.118  0.00  0.00    -0.153 OA
ATOM      5  O   UNL     1       2.096   2.077  23.677  0.00  0.00    -0.153 OA
BRANCH   1  18
ATOM     18  C   UNL     1       0.101   0.687  24.574  0.00  0.00    +0.106 A 
ATOM     20  C   UNL     1      -0.967   0.505  25.437  0.00  0.00    +0.037 A 
ATOM     21  C   UNL     1       0.401  -0.238  23.592  0.00  0.00    +0.029 A 
ATOM     24  C   UNL     1      -1.771  -0.641  25.326  0.00  0.00    -0.016 A 
ATOM     25  C   UNL     1      -0.388  -1.381  23.466  0.00  0.00    +0.010 A 
ATOM     26  C   UNL     1      -1.478  -1.598  24.325  0.00  0.00    -0.018 A 
ATOM     29  C   UNL     1      -2.861  -0.857  26.185  0.00  0.00    +0.008 A 
ATOM     30  C   UNL     1      -2.282  -2.744  24.214  0.00  0.00    +0.008 A 
ATOM     32  C   UNL     1      -3.649  -2.001  26.059  0.00  0.00    +0.001 A 
ATOM     33  C   UNL     1      -3.361  -2.942  25.076  0.00  0.00    +0.001 A 
ENDBRANCH   1  18
ENDBRANCH   7   1
ENDBRANCH  13   7
TORSDOF 5
ENDMDL
MODEL 3
REMARK VINA RESULT:       2.8      2.206      7.192
REMARK  Name = 11886125
REMARK  5 active torsions:
REMARK  status: ('A' for Active; 'I' for Inactive)
REMARK    1  A    between atoms: S_1  and  N_7
REMARK    2  A    between atoms: S_1  and  C_18
REMARK    3  A    between atoms: N_6  and  C_14
REMARK    4  A    between atoms: N_7  and  C_13
REMARK    5  A    between atoms: C_17  and  C_19
REMARK                            x       y       z     vdW  Elec       q    Type
REMARK                         _______ _______ _______ _____ _____    ______ ____
ROOT
ATOM      2  O   UNL     1      -1.956   2.362  23.331  0.00  0.00    -0.370 OA
ATOM      3  O   UNL     1      -1.879   3.700  26.176  0.00  0.00    -0.370 OA
ATOM     11  C   UNL     1      -1.742   2.352  25.700  0.00  0.00    +0.170 C 
ATOM     12  C   UNL     1      -2.706   2.172  24.543  0.00  0.00    +0.175 C 
ATOM     13  C   UNL     1      -0.376   2.150  25.083  0.00  0.00    +0.133 C 
ATOM     14  C   UNL     1      -3.716   3.291  24.706  0.00  0.00    +0.168 C 
ATOM     15  C   UNL     1      -0.588   2.639  23.662  0.00  0.00    +0.183 C 
ATOM     16  C   UNL     1      -2.926   4.362  25.451  0.00  0.00    +0.190 C 
ENDROOT
BRANCH  14   6
ATOM      6  N   UNL     1      -4.943   2.849  25.374  0.00  0.00    -0.217 N 
ATOM      8  N   UNL     1      -5.820   3.743  25.843  0.00  0.00    -0.043 NA
ATOM      9  N   UNL     1      -6.531   1.668  26.245  0.00  0.00    -0.108 NA
ATOM     10  N   UNL     1      -6.793   3.013  26.376  0.00  0.00    -0.023 NA
ATOM     17  C   UNL     1      -5.379   1.591  25.619  0.00  0.00    +0.182 A 
BRANCH  17  19
ATOM     19  C   UNL     1      -4.674   0.391  25.246  0.00  0.00    +0.021 A 
ATOM     22  C   UNL     1      -4.726  -0.070  23.929  0.00  0.00    +0.011 A 
ATOM     23  C   UNL     1      -3.937  -0.314  26.200  0.00  0.00    +0.011 A 
ATOM     27  C   UNL     1      -4.046  -1.232  23.568  0.00  0.00    +0.001 A 
ATOM     28  C   UNL     1      -3.256  -1.475  25.838  0.00  0.00    +0.001 A 
ATOM     31  C   UNL     1      -3.310  -1.934  24.522  0.00  0.00    +0.000 A 
ENDBRANCH  17  19
ENDBRANCH  14   6
BRANCH  13   7
ATOM      7  N   UNL     1       0.006   0.759  25.105  0.00  0.00    -0.182 NA
ATOM     34  H   UNL     1       0.484   0.418  25.948  0.00  0.00    +0.148 HD
BRANCH   7   1
ATOM      1  S   UNL     1       0.234  -0.077  23.644  0.00  0.00    +0.059 S 
ATOM      4  O   UNL     1      -0.427   0.639  22.570  0.00  0.00    -0.153 OA
ATOM      5  O   UNL     1      -0.043  -1.484  23.863  0.00  0.00    -0.153 OA
BRANCH   1  18
ATOM     18  C   UNL     1       1.979   0.073  23.407  0.00  0.00    +0.106 A 
ATOM     20  C   UNL     1       2.808  -0.959  23.816  0.00  0.00    +0.037 A 
ATOM     21  C   UNL     1       2.484   1.215  22.818  0.00  0.00    +0.029 A 
ATOM     24  C   UNL     1       4.196  -0.855  23.636  0.00  0.00    -0.016 A 
ATOM     25  C   UNL     1       3.861   1.335  22.630  0.00  0.00    +0.010 A 
ATOM     26  C   UNL     1       4.731   0.309  23.033  0.00  0.00    -0.018 A 
ATOM     29  C   UNL     1       5.066  -1.882  24.038  0.00  0.00    +0.008 A 
ATOM     30  C   UNL     1       6.120   0.412  22.854  0.00  0.00    +0.008 A 
ATOM     32  C   UNL     1       6.443  -1.762  23.851  0.00  0.00    +0.001 A 
ATOM     33  C   UNL     1       6.969  -0.618  23.260  0.00  0.00    +0.001 A 
ENDBRANCH   1  18
ENDBRANCH   7   1
ENDBRANCH  13   7
TORSDOF 5
ENDMDL
