MODEL 1
REMARK VINA RESULT:      -3.3      0.000      0.000
REMARK  Name = 45783392
REMARK  7 active torsions:
REMARK  status: ('A' for Active; 'I' for Inactive)
REMARK    1  A    between atoms: O_3  and  C_26
REMARK    2  A    between atoms: O_3  and  C_27
REMARK    3  A    between atoms: N_4  and  C_9
REMARK    4  A    between atoms: N_7  and  C_24
REMARK    5  A    between atoms: C_10  and  C_18
REMARK    6  A    between atoms: C_19  and  C_20
REMARK    7  A    between atoms: C_24  and  C_26
REMARK                            x       y       z     vdW  Elec       q    Type
REMARK                         _______ _______ _______ _____ _____    ______ ____
ROOT
ATOM      2  O   UNL     1      -3.975  -9.013  10.653  0.00  0.00    -0.336 OA
ATOM      5  N   UNL     1      -4.763 -10.498  12.134  0.00  0.00    -0.190 NA
ATOM      6  N   UNL     1      -3.095  -8.982  11.743  0.00  0.00    -0.056 NA
ATOM     18  C   UNL     1      -4.927  -9.931  10.965  0.00  0.00    +0.245 A 
ATOM     19  C   UNL     1      -3.626  -9.884  12.573  0.00  0.00    +0.205 A 
ENDROOT
BRANCH  19  20
ATOM      7  N   UNL     1      -5.225 -10.483  14.843  0.00  0.00    -0.326 N 
ATOM      8  N   UNL     1      -3.296 -10.781  16.181  0.00  0.00    -0.240 NA
ATOM     20  C   UNL     1      -3.048 -10.193  13.849  0.00  0.00    +0.062 A 
ATOM     21  C   UNL     1      -3.813 -10.487  14.967  0.00  0.00    +0.130 A 
ATOM     22  C   UNL     1      -1.664 -10.201  13.986  0.00  0.00    +0.016 A 
ATOM     23  C   UNL     1      -1.095 -10.499  15.220  0.00  0.00    +0.020 A 
ATOM     25  C   UNL     1      -1.948 -10.781  16.276  0.00  0.00    +0.113 A 
ATOM     28  H   UNL     1      -5.604  -9.918  14.090  0.00  0.00    +0.148 HD
BRANCH   7  24
ATOM     24  C   UNL     1      -6.094 -10.773  15.936  0.00  0.00    +0.131 C 
BRANCH  24  26
ATOM     26  C   UNL     1      -6.592  -9.482  16.562  0.00  0.00    +0.178 C 
BRANCH  26   3
ATOM      3  O   UNL     1      -7.082  -9.747  17.869  0.00  0.00    -0.381 OA
ATOM     27  C   UNL     1      -6.116 -10.425  18.661  0.00  0.00    +0.194 C 
ENDBRANCH  26   3
ENDBRANCH  24  26
ENDBRANCH   7  24
ENDBRANCH  19  20
BRANCH  18  10
ATOM      4  N   UNL     1      -7.259  -9.434  10.252  0.00  0.00    -0.288 NA
ATOM     10  C   UNL     1      -6.013 -10.157   9.933  0.00  0.00    +0.146 C 
ATOM     11  C   UNL     1      -7.904  -9.136   8.973  0.00  0.00    +0.085 C 
ATOM     12  C   UNL     1      -5.615  -9.652   8.533  0.00  0.00    +0.030 C 
ATOM     13  C   UNL     1      -6.728  -8.699   8.124  0.00  0.00    +0.017 C 
BRANCH   4   9
ATOM      1  O   UNL     1     -10.368 -10.171  12.977  0.00  0.00    -0.380 OA
ATOM      9  C   UNL     1      -8.140 -10.174  11.153  0.00  0.00    +0.062 C 
ATOM     14  C   UNL     1      -8.035  -9.617  12.576  0.00  0.00    +0.047 C 
ATOM     15  C   UNL     1      -9.594 -10.118  10.674  0.00  0.00    +0.047 C 
ATOM     16  C   UNL     1      -9.042 -10.307  13.490  0.00  0.00    +0.161 C 
ATOM     17  C   UNL     1     -10.514 -10.779  11.693  0.00  0.00    +0.161 C 
ENDBRANCH   4   9
ENDBRANCH  18  10
TORSDOF 6
ENDMDL
MODEL 2
REMARK VINA RESULT:      -0.9     14.251     16.718
REMARK  Name = 45783392
REMARK  7 active torsions:
REMARK  status: ('A' for Active; 'I' for Inactive)
REMARK    1  A    between atoms: O_3  and  C_26
REMARK    2  A    between atoms: O_3  and  C_27
REMARK    3  A    between atoms: N_4  and  C_9
REMARK    4  A    between atoms: N_7  and  C_24
REMARK    5  A    between atoms: C_10  and  C_18
REMARK    6  A    between atoms: C_19  and  C_20
REMARK    7  A    between atoms: C_24  and  C_26
REMARK                            x       y       z     vdW  Elec       q    Type
REMARK                         _______ _______ _______ _____ _____    ______ ____
ROOT
ATOM      2  O   UNL     1      -0.829  -2.275  25.280  0.00  0.00    -0.336 OA
ATOM      5  N   UNL     1      -0.916  -0.351  24.136  0.00  0.00    -0.190 NA
ATOM      6  N   UNL     1       0.493  -1.965  24.938  0.00  0.00    -0.056 NA
ATOM     18  C   UNL     1      -1.593  -1.274  24.770  0.00  0.00    +0.245 A 
ATOM     19  C   UNL     1       0.360  -0.818  24.265  0.00  0.00    +0.205 A 
ENDROOT
BRANCH  19  20
ATOM      7  N   UNL     1       0.394   2.013  24.036  0.00  0.00    -0.326 N 
ATOM      8  N   UNL     1       2.553   1.955  23.069  0.00  0.00    -0.240 NA
ATOM     20  C   UNL     1       1.480  -0.115  23.709  0.00  0.00    +0.062 A 
ATOM     21  C   UNL     1       1.513   1.266  23.589  0.00  0.00    +0.130 A 
ATOM     22  C   UNL     1       2.585  -0.833  23.266  0.00  0.00    +0.016 A 
ATOM     23  C   UNL     1       3.674  -0.159  22.725  0.00  0.00    +0.020 A 
ATOM     25  C   UNL     1       3.609   1.223  22.650  0.00  0.00    +0.113 A 
ATOM     28  H   UNL     1      -0.491   1.516  24.062  0.00  0.00    +0.148 HD
BRANCH   7  24
ATOM     24  C   UNL     1       0.337   3.436  23.954  0.00  0.00    +0.131 C 
BRANCH  24  26
ATOM     26  C   UNL     1      -0.470   3.991  25.114  0.00  0.00    +0.178 C 
BRANCH  26   3
ATOM      3  O   UNL     1      -0.857   2.927  25.974  0.00  0.00    -0.381 OA
ATOM     27  C   UNL     1       0.191   2.570  26.865  0.00  0.00    +0.194 C 
ENDBRANCH  26   3
ENDBRANCH  24  26
ENDBRANCH   7  24
ENDBRANCH  19  20
BRANCH  18  10
ATOM      4  N   UNL     1      -3.857  -0.409  24.203  0.00  0.00    -0.288 NA
ATOM     10  C   UNL     1      -3.086  -1.375  25.009  0.00  0.00    +0.146 C 
ATOM     11  C   UNL     1      -5.163  -1.022  23.961  0.00  0.00    +0.085 C 
ATOM     12  C   UNL     1      -3.658  -2.752  24.622  0.00  0.00    +0.030 C 
ATOM     13  C   UNL     1      -4.783  -2.454  23.643  0.00  0.00    +0.017 C 
BRANCH   4   9
ATOM      1  O   UNL     1      -5.194   3.511  24.893  0.00  0.00    -0.380 OA
ATOM      9  C   UNL     1      -3.974   0.904  24.834  0.00  0.00    +0.062 C 
ATOM     14  C   UNL     1      -3.601   2.007  23.840  0.00  0.00    +0.047 C 
ATOM     15  C   UNL     1      -5.391   1.136  25.367  0.00  0.00    +0.047 C 
ATOM     16  C   UNL     1      -3.840   3.380  24.458  0.00  0.00    +0.161 C 
ATOM     17  C   UNL     1      -5.531   2.557  25.900  0.00  0.00    +0.161 C 
ENDBRANCH   4   9
ENDBRANCH  18  10
TORSDOF 6
ENDMDL
MODEL 3
REMARK VINA RESULT:       0.4     14.067     17.373
REMARK  Name = 45783392
REMARK  7 active torsions:
REMARK  status: ('A' for Active; 'I' for Inactive)
REMARK    1  A    between atoms: O_3  and  C_26
REMARK    2  A    between atoms: O_3  and  C_27
REMARK    3  A    between atoms: N_4  and  C_9
REMARK    4  A    between atoms: N_7  and  C_24
REMARK    5  A    between atoms: C_10  and  C_18
REMARK    6  A    between atoms: C_19  and  C_20
REMARK    7  A    between atoms: C_24  and  C_26
REMARK                            x       y       z     vdW  Elec       q    Type
REMARK                         _______ _______ _______ _____ _____    ______ ____
ROOT
ATOM      2  O   UNL     1      -5.403   1.362  24.780  0.00  0.00    -0.336 OA
ATOM      5  N   UNL     1      -3.251   0.800  25.051  0.00  0.00    -0.190 NA
ATOM      6  N   UNL     1      -5.294   0.026  24.374  0.00  0.00    -0.056 NA
ATOM     18  C   UNL     1      -4.156   1.740  25.163  0.00  0.00    +0.245 A 
ATOM     19  C   UNL     1      -3.997  -0.233  24.563  0.00  0.00    +0.205 A 
ENDROOT
BRANCH  19  20
ATOM      7  N   UNL     1      -1.189  -0.589  24.337  0.00  0.00    -0.326 N 
ATOM      8  N   UNL     1      -1.470  -2.895  23.886  0.00  0.00    -0.240 NA
ATOM     20  C   UNL     1      -3.415  -1.511  24.273  0.00  0.00    +0.062 A 
ATOM     21  C   UNL     1      -2.047  -1.703  24.159  0.00  0.00    +0.130 A 
ATOM     22  C   UNL     1      -4.244  -2.614  24.097  0.00  0.00    +0.016 A 
ATOM     23  C   UNL     1      -3.687  -3.857  23.815  0.00  0.00    +0.020 A 
ATOM     25  C   UNL     1      -2.307  -3.943  23.722  0.00  0.00    +0.113 A 
ATOM     28  H   UNL     1      -1.600   0.322  24.163  0.00  0.00    +0.148 HD
BRANCH   7  24
ATOM     24  C   UNL     1       0.231  -0.688  24.239  0.00  0.00    +0.131 C 
BRANCH  24  26
ATOM     26  C   UNL     1       0.704  -0.095  22.923  0.00  0.00    +0.178 C 
BRANCH  26   3
ATOM      3  O   UNL     1       2.047  -0.491  22.680  0.00  0.00    -0.381 OA
ATOM     27  C   UNL     1       2.938   0.614  22.754  0.00  0.00    +0.194 C 
ENDBRANCH  26   3
ENDBRANCH  24  26
ENDBRANCH   7  24
ENDBRANCH  19  20
BRANCH  18  10
ATOM      4  N   UNL     1      -3.175   3.991  24.753  0.00  0.00    -0.288 NA
ATOM     10  C   UNL     1      -4.003   3.165  25.654  0.00  0.00    +0.146 C 
ATOM     11  C   UNL     1      -3.656   5.366  24.893  0.00  0.00    +0.085 C 
ATOM     12  C   UNL     1      -5.348   3.911  25.742  0.00  0.00    +0.030 C 
ATOM     13  C   UNL     1      -5.159   5.170  24.910  0.00  0.00    +0.017 C 
BRANCH   4   9
ATOM      1  O   UNL     1       0.563   2.211  25.454  0.00  0.00    -0.380 OA
ATOM      9  C   UNL     1      -1.743   3.880  25.024  0.00  0.00    +0.062 C 
ATOM     14  C   UNL     1      -1.506   3.132  26.338  0.00  0.00    +0.047 C 
ATOM     15  C   UNL     1      -1.018   3.168  23.877  0.00  0.00    +0.047 C 
ATOM     16  C   UNL     1      -0.013   2.909  26.559  0.00  0.00    +0.161 C 
ATOM     17  C   UNL     1       0.446   2.943  24.234  0.00  0.00    +0.161 C 
ENDBRANCH   4   9
ENDBRANCH  18  10
TORSDOF 6
ENDMDL
