MODEL 1
REMARK VINA RESULT:       3.7      0.000      0.000
REMARK  Name = 51136828
REMARK  6 active torsions:
REMARK  status: ('A' for Active; 'I' for Inactive)
REMARK    1  A    between atoms: N_3  and  C_13
REMARK    2  A    between atoms: C_9  and  C_14
REMARK    3  A    between atoms: C_13  and  C_15
REMARK    4  A    between atoms: C_20  and  C_28
REMARK    5  A    between atoms: C_21  and  C_24
REMARK    6  A    between atoms: C_26  and  C_33
REMARK                            x       y       z     vdW  Elec       q    Type
REMARK                         _______ _______ _______ _____ _____    ______ ____
ROOT
ATOM      1  O   UNL     1      -6.513 -10.120  14.795  0.00  0.00    -0.336 OA
ATOM      6  N   UNL     1      -7.000  -9.583  12.676  0.00  0.00    -0.190 NA
ATOM      7  N   UNL     1      -5.291 -10.084  14.111  0.00  0.00    -0.056 NA
ATOM     14  C   UNL     1      -7.467  -9.813  13.877  0.00  0.00    +0.245 A 
ATOM     21  C   UNL     1      -5.661  -9.761  12.868  0.00  0.00    +0.202 A 
ENDROOT
BRANCH  21  24
ATOM      2  O   UNL     1       3.712  -7.780  11.622  0.00  0.00    -0.276 OA
ATOM      4  N   UNL     1      -1.270  -8.576  11.269  0.00  0.00    -0.312 N 
ATOM      5  N   UNL     1       1.402  -7.586  11.779  0.00  0.00    -0.299 N 
ATOM      8  N   UNL     1      -2.881  -9.319   9.710  0.00  0.00    -0.240 NA
ATOM     16  C   UNL     1      -1.015  -7.666  12.388  0.00  0.00    +0.125 C 
ATOM     17  C   UNL     1      -0.128  -9.027  10.469  0.00  0.00    +0.125 C 
ATOM     18  C   UNL     1       0.213  -6.798  12.113  0.00  0.00    +0.126 C 
ATOM     19  C   UNL     1       1.165  -8.937  11.276  0.00  0.00    +0.126 C 
ATOM     23  C   UNL     1      -2.557  -9.031  10.990  0.00  0.00    +0.122 A 
ATOM     24  C   UNL     1      -4.718  -9.609  11.796  0.00  0.00    +0.027 A 
ATOM     25  C   UNL     1      -3.430  -9.158  12.059  0.00  0.00    +0.055 A 
ATOM     26  C   UNL     1       2.709  -7.117  11.903  0.00  0.00    +0.213 C 
ATOM     30  C   UNL     1      -5.089  -9.917  10.492  0.00  0.00    +0.031 A 
ATOM     32  C   UNL     1      -4.143  -9.756   9.494  0.00  0.00    +0.113 A 
ATOM     33  C   UNL     1       2.867  -5.710  12.423  0.00  0.00    +0.109 C 
ENDBRANCH  21  24
BRANCH  14   9
ATOM      3  N   UNL     1      -8.989  -9.557  15.828  0.00  0.00    -0.287 NA
ATOM      9  C   UNL     1      -8.897  -9.784  14.373  0.00  0.00    +0.146 C 
ATOM     10  C   UNL     1      -9.722  -8.646  13.745  0.00  0.00    +0.030 C 
ATOM     11  C   UNL     1     -10.287  -7.867  14.924  0.00  0.00    +0.017 C 
ATOM     12  C   UNL     1     -10.261  -8.871  16.060  0.00  0.00    +0.085 C 
BRANCH   3  13
ATOM     13  C   UNL     1      -8.876 -10.781  16.610  0.00  0.00    +0.120 C 
BRANCH  13  15
ATOM     15  C   UNL     1      -7.793 -10.684  17.651  0.00  0.00    -0.030 A 
ATOM     20  C   UNL     1      -8.104 -10.683  19.011  0.00  0.00    -0.046 A 
ATOM     22  C   UNL     1      -6.464 -10.594  17.239  0.00  0.00    +0.005 A 
ATOM     27  C   UNL     1      -7.084 -10.592  19.959  0.00  0.00    +0.003 A 
ATOM     28  C   UNL     1      -9.520 -10.777  19.477  0.00  0.00    +0.044 C 
ATOM     29  C   UNL     1      -5.445 -10.504  18.186  0.00  0.00    +0.000 A 
ATOM     31  C   UNL     1      -5.755 -10.502  19.547  0.00  0.00    +0.000 A 
ENDBRANCH  13  15
ENDBRANCH   3  13
ENDBRANCH  14   9
TORSDOF 4
ENDMDL
MODEL 2
REMARK VINA RESULT:       7.5     14.114     15.936
REMARK  Name = 51136828
REMARK  6 active torsions:
REMARK  status: ('A' for Active; 'I' for Inactive)
REMARK    1  A    between atoms: N_3  and  C_13
REMARK    2  A    between atoms: C_9  and  C_14
REMARK    3  A    between atoms: C_13  and  C_15
REMARK    4  A    between atoms: C_20  and  C_28
REMARK    5  A    between atoms: C_21  and  C_24
REMARK    6  A    between atoms: C_26  and  C_33
REMARK                            x       y       z     vdW  Elec       q    Type
REMARK                         _______ _______ _______ _____ _____    ______ ____
ROOT
ATOM      1  O   UNL     1      -6.101   1.075  24.983  0.00  0.00    -0.336 OA
ATOM      6  N   UNL     1      -3.912   1.188  25.446  0.00  0.00    -0.190 NA
ATOM      7  N   UNL     1      -5.538  -0.114  24.501  0.00  0.00    -0.056 NA
ATOM     14  C   UNL     1      -5.075   1.783  25.525  0.00  0.00    +0.245 A 
ATOM     21  C   UNL     1      -4.246   0.028  24.811  0.00  0.00    +0.202 A 
ENDROOT
BRANCH  21  24
ATOM      2  O   UNL     1       5.332  -0.712  23.786  0.00  0.00    -0.276 OA
ATOM      4  N   UNL     1       0.300  -1.227  23.811  0.00  0.00    -0.312 N 
ATOM      5  N   UNL     1       3.061  -0.489  23.347  0.00  0.00    -0.299 N 
ATOM      8  N   UNL     1      -1.348  -2.915  23.893  0.00  0.00    -0.240 NA
ATOM     16  C   UNL     1       0.638   0.095  23.278  0.00  0.00    +0.125 C 
ATOM     17  C   UNL     1       1.398  -2.129  24.172  0.00  0.00    +0.125 C 
ATOM     18  C   UNL     1       1.972   0.056  22.533  0.00  0.00    +0.126 C 
ATOM     19  C   UNL     1       2.670  -1.338  24.470  0.00  0.00    +0.126 C 
ATOM     23  C   UNL     1      -1.025  -1.608  24.005  0.00  0.00    +0.122 A 
ATOM     24  C   UNL     1      -3.263  -0.971  24.498  0.00  0.00    +0.027 A 
ATOM     25  C   UNL     1      -1.936  -0.606  24.303  0.00  0.00    +0.055 A 
ATOM     26  C   UNL     1       4.413  -0.253  23.101  0.00  0.00    +0.213 C 
ATOM     30  C   UNL     1      -3.634  -2.307  24.391  0.00  0.00    +0.031 A 
ATOM     32  C   UNL     1      -2.649  -3.232  24.090  0.00  0.00    +0.113 A 
ATOM     33  C   UNL     1       4.733   0.627  21.918  0.00  0.00    +0.109 C 
ENDBRANCH  21  24
BRANCH  14   9
ATOM      3  N   UNL     1      -4.449   4.178  25.777  0.00  0.00    -0.287 NA
ATOM      9  C   UNL     1      -5.426   3.129  26.125  0.00  0.00    +0.146 C 
ATOM     10  C   UNL     1      -6.778   3.669  25.623  0.00  0.00    +0.030 C 
ATOM     11  C   UNL     1      -6.470   5.051  25.064  0.00  0.00    +0.017 C 
ATOM     12  C   UNL     1      -5.186   5.442  25.768  0.00  0.00    +0.085 C 
BRANCH   3  13
ATOM     13  C   UNL     1      -3.303   4.218  26.676  0.00  0.00    +0.120 C 
BRANCH  13  15
ATOM     15  C   UNL     1      -2.020   3.878  25.966  0.00  0.00    -0.030 A 
ATOM     20  C   UNL     1      -1.411   4.793  25.108  0.00  0.00    -0.046 A 
ATOM     22  C   UNL     1      -1.442   2.626  26.177  0.00  0.00    +0.005 A 
ATOM     27  C   UNL     1      -0.222   4.456  24.460  0.00  0.00    +0.003 A 
ATOM     28  C   UNL     1      -2.012   6.138  24.866  0.00  0.00    +0.044 C 
ATOM     29  C   UNL     1      -0.253   2.290  25.529  0.00  0.00    +0.000 A 
ATOM     31  C   UNL     1       0.356   3.205  24.670  0.00  0.00    +0.000 A 
ENDBRANCH  13  15
ENDBRANCH   3  13
ENDBRANCH  14   9
TORSDOF 4
ENDMDL
