MODEL 1
REMARK VINA RESULT:      -3.7      0.000      0.000
REMARK  Name = 45783454
REMARK  9 active torsions:
REMARK  status: ('A' for Active; 'I' for Inactive)
REMARK    1  A    between atoms: O_3  and  C_22
REMARK    2  A    between atoms: O_3  and  C_25
REMARK    3  A    between atoms: O_4  and  C_26
REMARK    4  A    between atoms: O_4  and  C_27
REMARK    5  A    between atoms: N_5  and  C_13
REMARK    6  A    between atoms: C_9  and  C_14
REMARK    7  A    between atoms: C_13  and  C_15
REMARK    8  A    between atoms: C_17  and  C_20
REMARK    9  A    between atoms: C_25  and  C_26
REMARK                            x       y       z     vdW  Elec       q    Type
REMARK                         _______ _______ _______ _____ _____    ______ ____
ROOT
ATOM      2  O   UNL     1      -1.817   2.667  25.481  0.00  0.00    -0.336 OA
ATOM      6  N   UNL     1      -1.886   1.558  23.537  0.00  0.00    -0.189 NA
ATOM      7  N   UNL     1      -0.502   2.267  25.213  0.00  0.00    -0.054 NA
ATOM     14  C   UNL     1      -2.568   2.209  24.445  0.00  0.00    +0.245 A 
ATOM     17  C   UNL     1      -0.624   1.620  24.051  0.00  0.00    +0.221 A 
ENDROOT
BRANCH  17  20
ATOM      8  N   UNL     1       0.208  -0.061  22.620  0.00  0.00    -0.252 NA
ATOM     20  C   UNL     1       0.493   1.022  23.379  0.00  0.00    +0.115 A 
ATOM     21  C   UNL     1       1.764   1.553  23.526  0.00  0.00    +0.077 A 
ATOM     22  C   UNL     1       2.811   0.934  22.853  0.00  0.00    +0.124 A 
ATOM     23  C   UNL     1       1.252  -0.636  21.980  0.00  0.00    +0.115 A 
ATOM     24  C   UNL     1       2.558  -0.182  22.063  0.00  0.00    +0.065 A 
BRANCH  22   3
ATOM      3  O   UNL     1       4.077   1.418  22.966  0.00  0.00    -0.490 OA
BRANCH   3  25
ATOM     25  C   UNL     1       5.140   0.467  22.941  0.00  0.00    +0.257 C 
BRANCH  25  26
ATOM     26  C   UNL     1       5.716   0.332  24.337  0.00  0.00    +0.200 C 
BRANCH  26   4
ATOM      4  O   UNL     1       5.672  -1.036  24.727  0.00  0.00    -0.380 OA
ATOM     27  C   UNL     1       4.762  -1.777  23.928  0.00  0.00    +0.194 C 
ENDBRANCH  26   4
ENDBRANCH  25  26
ENDBRANCH   3  25
ENDBRANCH  22   3
ENDBRANCH  17  20
BRANCH  14   9
ATOM      5  N   UNL     1      -4.826   1.455  25.166  0.00  0.00    -0.287 NA
ATOM      9  C   UNL     1      -4.049   2.517  24.497  0.00  0.00    +0.146 C 
ATOM     10  C   UNL     1      -4.363   3.794  25.298  0.00  0.00    +0.030 C 
ATOM     11  C   UNL     1      -5.369   3.363  26.357  0.00  0.00    +0.017 C 
ATOM     12  C   UNL     1      -5.987   2.110  25.771  0.00  0.00    +0.085 C 
BRANCH   5  13
ATOM     13  C   UNL     1      -5.213   0.374  24.269  0.00  0.00    +0.127 C 
BRANCH  13  15
ATOM      1  S   UNL     1      -3.360  -0.956  25.862  0.00  0.00    -0.100 S 
ATOM     15  C   UNL     1      -4.389  -0.865  24.496  0.00  0.00    +0.004 A 
ATOM     16  C   UNL     1      -4.329  -2.008  23.728  0.00  0.00    +0.012 A 
ATOM     18  C   UNL     1      -3.427  -2.969  24.268  0.00  0.00    +0.008 A 
ATOM     19  C   UNL     1      -2.831  -2.525  25.428  0.00  0.00    +0.045 A 
ENDBRANCH  13  15
ENDBRANCH   5  13
ENDBRANCH  14   9
TORSDOF 8
ENDMDL
MODEL 2
REMARK VINA RESULT:      -2.9     15.247     17.025
REMARK  Name = 45783454
REMARK  9 active torsions:
REMARK  status: ('A' for Active; 'I' for Inactive)
REMARK    1  A    between atoms: O_3  and  C_22
REMARK    2  A    between atoms: O_3  and  C_25
REMARK    3  A    between atoms: O_4  and  C_26
REMARK    4  A    between atoms: O_4  and  C_27
REMARK    5  A    between atoms: N_5  and  C_13
REMARK    6  A    between atoms: C_9  and  C_14
REMARK    7  A    between atoms: C_13  and  C_15
REMARK    8  A    between atoms: C_17  and  C_20
REMARK    9  A    between atoms: C_25  and  C_26
REMARK                            x       y       z     vdW  Elec       q    Type
REMARK                         _______ _______ _______ _____ _____    ______ ____
ROOT
ATOM      2  O   UNL     1      -6.528  -8.018   9.731  0.00  0.00    -0.336 OA
ATOM      6  N   UNL     1      -6.375 -10.020  10.722  0.00  0.00    -0.189 NA
ATOM      7  N   UNL     1      -5.279  -8.045  10.365  0.00  0.00    -0.054 NA
ATOM     14  C   UNL     1      -7.108  -9.219   9.992  0.00  0.00    +0.245 A 
ATOM     17  C   UNL     1      -5.263  -9.258  10.927  0.00  0.00    +0.221 A 
ENDROOT
BRANCH  17  20
ATOM      8  N   UNL     1      -4.469 -10.325  12.874  0.00  0.00    -0.252 NA
ATOM     20  C   UNL     1      -4.153  -9.736  11.699  0.00  0.00    +0.115 A 
ATOM     21  C   UNL     1      -2.858  -9.582  11.232  0.00  0.00    +0.077 A 
ATOM     22  C   UNL     1      -1.820 -10.063  12.021  0.00  0.00    +0.124 A 
ATOM     23  C   UNL     1      -3.433 -10.781  13.615  0.00  0.00    +0.115 A 
ATOM     24  C   UNL     1      -2.104 -10.675  13.237  0.00  0.00    +0.065 A 
BRANCH  22   3
ATOM      3  O   UNL     1      -0.530  -9.935  11.606  0.00  0.00    -0.490 OA
BRANCH   3  25
ATOM     25  C   UNL     1      -0.196  -8.755  10.878  0.00  0.00    +0.257 C 
BRANCH  25  26
ATOM     26  C   UNL     1       1.169  -8.268  11.323  0.00  0.00    +0.200 C 
BRANCH  26   4
ATOM      4  O   UNL     1       1.002  -7.291  12.344  0.00  0.00    -0.380 OA
ATOM     27  C   UNL     1       1.924  -6.221  12.196  0.00  0.00    +0.194 C 
ENDBRANCH  26   4
ENDBRANCH  25  26
ENDBRANCH   3  25
ENDBRANCH  22   3
ENDBRANCH  17  20
BRANCH  14   9
ATOM      5  N   UNL     1      -9.567  -9.134  10.365  0.00  0.00    -0.287 NA
ATOM      9  C   UNL     1      -8.486  -9.443   9.407  0.00  0.00    +0.146 C 
ATOM     10  C   UNL     1      -8.772  -8.540   8.193  0.00  0.00    +0.030 C 
ATOM     11  C   UNL     1     -10.061  -7.807   8.536  0.00  0.00    +0.017 C 
ATOM     12  C   UNL     1     -10.715  -8.702   9.568  0.00  0.00    +0.085 C 
BRANCH   5  13
ATOM     13  C   UNL     1      -9.896 -10.253  11.240  0.00  0.00    +0.127 C 
BRANCH  13  15
ATOM      1  S   UNL     1      -8.516 -10.404  13.651  0.00  0.00    -0.100 S 
ATOM     15  C   UNL     1      -9.830  -9.866  12.693  0.00  0.00    +0.004 A 
ATOM     16  C   UNL     1     -10.717  -9.100  13.418  0.00  0.00    +0.012 A 
ATOM     18  C   UNL     1     -10.313  -8.954  14.776  0.00  0.00    +0.008 A 
ATOM     19  C   UNL     1      -9.132  -9.613  15.039  0.00  0.00    +0.045 A 
ENDBRANCH  13  15
ENDBRANCH   5  13
ENDBRANCH  14   9
TORSDOF 8
ENDMDL
MODEL 3
REMARK VINA RESULT:      -1.3      1.975      3.459
REMARK  Name = 45783454
REMARK  9 active torsions:
REMARK  status: ('A' for Active; 'I' for Inactive)
REMARK    1  A    between atoms: O_3  and  C_22
REMARK    2  A    between atoms: O_3  and  C_25
REMARK    3  A    between atoms: O_4  and  C_26
REMARK    4  A    between atoms: O_4  and  C_27
REMARK    5  A    between atoms: N_5  and  C_13
REMARK    6  A    between atoms: C_9  and  C_14
REMARK    7  A    between atoms: C_13  and  C_15
REMARK    8  A    between atoms: C_17  and  C_20
REMARK    9  A    between atoms: C_25  and  C_26
REMARK                            x       y       z     vdW  Elec       q    Type
REMARK                         _______ _______ _______ _____ _____    ______ ____
ROOT
ATOM      2  O   UNL     1      -2.710  -0.851  25.599  0.00  0.00    -0.336 OA
ATOM      6  N   UNL     1      -2.051   0.867  24.323  0.00  0.00    -0.189 NA
ATOM      7  N   UNL     1      -1.524  -1.260  24.978  0.00  0.00    -0.054 NA
ATOM     14  C   UNL     1      -2.950   0.412  25.158  0.00  0.00    +0.245 A 
ATOM     17  C   UNL     1      -1.196  -0.193  24.242  0.00  0.00    +0.221 A 
ENDROOT
BRANCH  17  20
ATOM      8  N   UNL     1      -0.107  -0.839  22.252  0.00  0.00    -0.252 NA
ATOM     20  C   UNL     1      -0.024  -0.155  23.416  0.00  0.00    +0.115 A 
ATOM     21  C   UNL     1       1.096   0.549  23.823  0.00  0.00    +0.077 A 
ATOM     22  C   UNL     1       2.205   0.552  22.985  0.00  0.00    +0.124 A 
ATOM     23  C   UNL     1       0.990  -0.814  21.462  0.00  0.00    +0.115 A 
ATOM     24  C   UNL     1       2.159  -0.140  21.779  0.00  0.00    +0.065 A 
BRANCH  22   3
ATOM      3  O   UNL     1       3.330   1.229  23.340  0.00  0.00    -0.490 OA
BRANCH   3  25
ATOM     25  C   UNL     1       4.522   0.932  22.615  0.00  0.00    +0.257 C 
BRANCH  25  26
ATOM     26  C   UNL     1       5.605   0.517  23.592  0.00  0.00    +0.200 C 
BRANCH  26   4
ATOM      4  O   UNL     1       5.065  -0.425  24.511  0.00  0.00    -0.380 OA
ATOM     27  C   UNL     1       4.897  -1.701  23.911  0.00  0.00    +0.194 C 
ENDBRANCH  26   4
ENDBRANCH  25  26
ENDBRANCH   3  25
ENDBRANCH  22   3
ENDBRANCH  17  20
BRANCH  14   9
ATOM      5  N   UNL     1      -4.242   2.528  25.369  0.00  0.00    -0.287 NA
ATOM      9  C   UNL     1      -4.194   1.088  25.693  0.00  0.00    +0.146 C 
ATOM     10  C   UNL     1      -5.489   0.511  25.092  0.00  0.00    +0.030 C 
ATOM     11  C   UNL     1      -6.226   1.707  24.507  0.00  0.00    +0.017 C 
ATOM     12  C   UNL     1      -5.658   2.884  25.273  0.00  0.00    +0.085 C 
BRANCH   5  13
ATOM     13  C   UNL     1      -3.531   3.358  26.334  0.00  0.00    +0.127 C 
BRANCH  13  15
ATOM      1  S   UNL     1      -0.792   3.046  25.964  0.00  0.00    -0.100 S 
ATOM     15  C   UNL     1      -2.255   3.914  25.763  0.00  0.00    +0.004 A 
ATOM     16  C   UNL     1      -2.067   5.084  25.060  0.00  0.00    +0.012 A 
ATOM     18  C   UNL     1      -0.706   5.271  24.684  0.00  0.00    +0.008 A 
ATOM     19  C   UNL     1       0.096   4.236  25.112  0.00  0.00    +0.045 A 
ENDBRANCH  13  15
ENDBRANCH   5  13
ENDBRANCH  14   9
TORSDOF 8
ENDMDL
MODEL 4
REMARK VINA RESULT:      -0.4      1.559      3.284
REMARK  Name = 45783454
REMARK  9 active torsions:
REMARK  status: ('A' for Active; 'I' for Inactive)
REMARK    1  A    between atoms: O_3  and  C_22
REMARK    2  A    between atoms: O_3  and  C_25
REMARK    3  A    between atoms: O_4  and  C_26
REMARK    4  A    between atoms: O_4  and  C_27
REMARK    5  A    between atoms: N_5  and  C_13
REMARK    6  A    between atoms: C_9  and  C_14
REMARK    7  A    between atoms: C_13  and  C_15
REMARK    8  A    between atoms: C_17  and  C_20
REMARK    9  A    between atoms: C_25  and  C_26
REMARK                            x       y       z     vdW  Elec       q    Type
REMARK                         _______ _______ _______ _____ _____    ______ ____
ROOT
ATOM      2  O   UNL     1      -1.386   0.684  25.546  0.00  0.00    -0.336 OA
ATOM      6  N   UNL     1      -0.897  -0.732  23.882  0.00  0.00    -0.189 NA
ATOM      7  N   UNL     1      -0.156   1.104  25.026  0.00  0.00    -0.054 NA
ATOM     14  C   UNL     1      -1.752  -0.403  24.816  0.00  0.00    +0.245 A 
ATOM     17  C   UNL     1       0.065   0.220  24.048  0.00  0.00    +0.221 A 
ENDROOT
BRANCH  17  20
ATOM      8  N   UNL     1       1.131  -0.363  22.026  0.00  0.00    -0.252 NA
ATOM     20  C   UNL     1       1.237   0.260  23.222  0.00  0.00    +0.115 A 
ATOM     21  C   UNL     1       2.380   0.906  23.661  0.00  0.00    +0.077 A 
ATOM     22  C   UNL     1       3.488   0.914  22.821  0.00  0.00    +0.124 A 
ATOM     23  C   UNL     1       2.228  -0.335  21.236  0.00  0.00    +0.115 A 
ATOM     24  C   UNL     1       3.418   0.284  21.583  0.00  0.00    +0.065 A 
BRANCH  22   3
ATOM      3  O   UNL     1       4.634   1.536  23.207  0.00  0.00    -0.490 OA
BRANCH   3  25
ATOM     25  C   UNL     1       5.775   0.710  23.437  0.00  0.00    +0.257 C 
BRANCH  25  26
ATOM     26  C   UNL     1       5.456  -0.276  24.543  0.00  0.00    +0.200 C 
BRANCH  26   4
ATOM      4  O   UNL     1       5.450  -1.593  24.004  0.00  0.00    -0.380 OA
ATOM     27  C   UNL     1       4.146  -2.156  24.017  0.00  0.00    +0.194 C 
ENDBRANCH  26   4
ENDBRANCH  25  26
ENDBRANCH   3  25
ENDBRANCH  22   3
ENDBRANCH  17  20
BRANCH  14   9
ATOM      5  N   UNL     1      -4.216  -0.458  24.474  0.00  0.00    -0.287 NA
ATOM      9  C   UNL     1      -3.068  -1.053  25.187  0.00  0.00    +0.146 C 
ATOM     10  C   UNL     1      -3.116  -2.548  24.825  0.00  0.00    +0.030 C 
ATOM     11  C   UNL     1      -4.356  -2.708  23.956  0.00  0.00    +0.017 C 
ATOM     12  C   UNL     1      -5.213  -1.520  24.338  0.00  0.00    +0.085 C 
BRANCH   5  13
ATOM     13  C   UNL     1      -4.757   0.721  25.138  0.00  0.00    +0.127 C 
BRANCH  13  15
ATOM      1  S   UNL     1      -4.080   3.383  25.578  0.00  0.00    -0.100 S 
ATOM     15  C   UNL     1      -4.178   1.994  24.581  0.00  0.00    +0.004 A 
ATOM     16  C   UNL     1      -3.685   2.230  23.317  0.00  0.00    +0.012 A 
ATOM     18  C   UNL     1      -3.221   3.568  23.165  0.00  0.00    +0.008 A 
ATOM     19  C   UNL     1      -3.377   4.305  24.318  0.00  0.00    +0.045 A 
ENDBRANCH  13  15
ENDBRANCH   5  13
ENDBRANCH  14   9
TORSDOF 8
ENDMDL
MODEL 5
REMARK VINA RESULT:       0.3      2.406      4.396
REMARK  Name = 45783454
REMARK  9 active torsions:
REMARK  status: ('A' for Active; 'I' for Inactive)
REMARK    1  A    between atoms: O_3  and  C_22
REMARK    2  A    between atoms: O_3  and  C_25
REMARK    3  A    between atoms: O_4  and  C_26
REMARK    4  A    between atoms: O_4  and  C_27
REMARK    5  A    between atoms: N_5  and  C_13
REMARK    6  A    between atoms: C_9  and  C_14
REMARK    7  A    between atoms: C_13  and  C_15
REMARK    8  A    between atoms: C_17  and  C_20
REMARK    9  A    between atoms: C_25  and  C_26
REMARK                            x       y       z     vdW  Elec       q    Type
REMARK                         _______ _______ _______ _____ _____    ______ ____
ROOT
ATOM      2  O   UNL     1      -5.599   0.868  24.788  0.00  0.00    -0.336 OA
ATOM      6  N   UNL     1      -3.491   1.111  25.505  0.00  0.00    -0.189 NA
ATOM      7  N   UNL     1      -4.893  -0.239  24.304  0.00  0.00    -0.054 NA
ATOM     14  C   UNL     1      -4.699   1.613  25.484  0.00  0.00    +0.245 A 
ATOM     17  C   UNL     1      -3.658  -0.025  24.768  0.00  0.00    +0.221 A 
ENDROOT
BRANCH  17  20
ATOM      8  N   UNL     1      -2.887  -2.238  24.504  0.00  0.00    -0.252 NA
ATOM     20  C   UNL     1      -2.570  -0.924  24.512  0.00  0.00    +0.115 A 
ATOM     21  C   UNL     1      -1.294  -0.432  24.292  0.00  0.00    +0.077 A 
ATOM     22  C   UNL     1      -0.276  -1.347  24.049  0.00  0.00    +0.124 A 
ATOM     23  C   UNL     1      -1.871  -3.099  24.265  0.00  0.00    +0.115 A 
ATOM     24  C   UNL     1      -0.562  -2.708  24.034  0.00  0.00    +0.065 A 
BRANCH  22   3
ATOM      3  O   UNL     1       0.994  -0.915  23.827  0.00  0.00    -0.490 OA
BRANCH   3  25
ATOM     25  C   UNL     1       1.174   0.083  22.823  0.00  0.00    +0.257 C 
BRANCH  25  26
ATOM     26  C   UNL     1       2.611   0.046  22.341  0.00  0.00    +0.200 C 
BRANCH  26   4
ATOM      4  O   UNL     1       3.374   0.990  23.084  0.00  0.00    -0.380 OA
ATOM     27  C   UNL     1       4.734   0.593  23.189  0.00  0.00    +0.194 C 
ENDBRANCH  26   4
ENDBRANCH  25  26
ENDBRANCH   3  25
ENDBRANCH  22   3
ENDBRANCH  17  20
BRANCH  14   9
ATOM      5  N   UNL     1      -4.435   4.074  25.741  0.00  0.00    -0.287 NA
ATOM      9  C   UNL     1      -5.223   2.884  26.118  0.00  0.00    +0.146 C 
ATOM     10  C   UNL     1      -6.663   3.216  25.684  0.00  0.00    +0.030 C 
ATOM     11  C   UNL     1      -6.595   4.632  25.130  0.00  0.00    +0.017 C 
ATOM     12  C   UNL     1      -5.356   5.210  25.781  0.00  0.00    +0.085 C 
BRANCH   5  13
ATOM     13  C   UNL     1      -3.268   4.283  26.589  0.00  0.00    +0.127 C 
BRANCH  13  15
ATOM      1  S   UNL     1      -1.018   2.801  25.896  0.00  0.00    -0.100 S 
ATOM     15  C   UNL     1      -1.985   4.212  25.805  0.00  0.00    +0.004 A 
ATOM     16  C   UNL     1      -1.433   5.164  24.976  0.00  0.00    +0.012 A 
ATOM     18  C   UNL     1      -0.201   4.729  24.409  0.00  0.00    +0.008 A 
ATOM     19  C   UNL     1       0.143   3.462  24.824  0.00  0.00    +0.045 A 
ENDBRANCH  13  15
ENDBRANCH   5  13
ENDBRANCH  14   9
TORSDOF 8
ENDMDL
