MODEL 1
REMARK VINA RESULT:      12.5      0.000      0.000
REMARK  Name = 11939955
REMARK  11 active torsions:
REMARK  status: ('A' for Active; 'I' for Inactive)
REMARK    1  A    between atoms: O_4  and  C_29
REMARK    2  A    between atoms: O_4  and  C_37
REMARK    3  A    between atoms: O_5  and  C_30
REMARK    4  A    between atoms: O_5  and  C_38
REMARK    5  A    between atoms: N_6  and  C_14
REMARK    6  A    between atoms: N_7  and  C_15
REMARK    7  A    between atoms: N_8  and  C_21
REMARK    8  A    between atoms: N_11  and  C_34
REMARK    9  A    between atoms: N_11  and  C_35
REMARK   10  A    between atoms: N_11  and  C_36
REMARK   11  A    between atoms: C_20  and  C_24
REMARK                            x       y       z     vdW  Elec       q    Type
REMARK                         _______ _______ _______ _____ _____    ______ ____
ROOT
ATOM      1  O   UNL     1      -4.978  -1.487  23.680  0.00  0.00    -0.370 OA
ATOM      2  O   UNL     1      -3.404  -1.203  26.359  0.00  0.00    -0.370 OA
ATOM     12  C   UNL     1      -3.604  -0.326  25.237  0.00  0.00    +0.171 C 
ATOM     13  C   UNL     1      -3.607  -1.187  23.988  0.00  0.00    +0.171 C 
ATOM     14  C   UNL     1      -4.990   0.270  25.279  0.00  0.00    +0.130 C 
ATOM     15  C   UNL     1      -2.876  -2.443  24.406  0.00  0.00    +0.131 C 
ATOM     16  C   UNL     1      -5.833  -0.799  24.605  0.00  0.00    +0.185 C 
ATOM     17  C   UNL     1      -3.218  -2.543  25.882  0.00  0.00    +0.185 C 
ENDROOT
BRANCH  14   6
ATOM      6  N   UNL     1      -5.027   1.494  24.508  0.00  0.00    -0.306 N 
ATOM      9  N   UNL     1      -3.093   2.294  25.515  0.00  0.00    -0.214 NA
ATOM     10  N   UNL     1      -4.252   3.578  23.838  0.00  0.00    -0.223 NA
ATOM     18  C   UNL     1      -4.082   2.499  24.626  0.00  0.00    +0.216 A 
ATOM     20  C   UNL     1      -2.191   3.294  25.603  0.00  0.00    +0.076 A 
ATOM     22  C   UNL     1      -3.314   4.539  23.978  0.00  0.00    +0.116 A 
ATOM     23  C   UNL     1      -2.251   4.450  24.852  0.00  0.00    +0.048 A 
ATOM     39  H   UNL     1      -5.744   1.619  23.804  0.00  0.00    +0.149 HD
BRANCH  20  24
ATOM     24  C   UNL     1      -1.128   3.077  26.555  0.00  0.00    +0.001 A 
ATOM     27  C   UNL     1      -1.385   3.173  27.922  0.00  0.00    +0.012 A 
ATOM     28  C   UNL     1       0.158   2.768  26.108  0.00  0.00    +0.012 A 
ATOM     32  C   UNL     1      -0.359   2.963  28.843  0.00  0.00    +0.024 A 
ATOM     33  C   UNL     1       1.184   2.556  27.029  0.00  0.00    +0.024 A 
ATOM     34  C   UNL     1       0.925   2.653  28.395  0.00  0.00    +0.029 A 
BRANCH  34  11
ATOM     11  N   UNL     1       1.964   2.440  29.326  0.00  0.00    -0.336 N 
ATOM     35  C   UNL     1       1.671   1.929  30.650  0.00  0.00    +0.129 C 
ATOM     36  C   UNL     1       3.338   2.741  28.974  0.00  0.00    +0.129 C 
ENDBRANCH  34  11
ENDBRANCH  20  24
ENDBRANCH  14   6
BRANCH  15   7
ATOM      3  O   UNL     1      -1.451  -0.031  23.806  0.00  0.00    -0.252 OA
ATOM      7  N   UNL     1      -1.453  -2.308  24.207  0.00  0.00    -0.292 N 
ATOM      8  N   UNL     1       0.548  -1.264  23.776  0.00  0.00    -0.269 N 
ATOM     19  C   UNL     1      -0.832  -1.087  23.916  0.00  0.00    +0.304 C 
ATOM     40  H   UNL     1      -0.865  -3.125  24.348  0.00  0.00    +0.151 HD
ATOM     41  H   UNL     1       0.901  -2.210  23.897  0.00  0.00    +0.156 HD
BRANCH   8  21
ATOM     21  C   UNL     1       1.523  -0.282  23.483  0.00  0.00    +0.042 A 
ATOM     25  C   UNL     1       1.171   1.067  23.464  0.00  0.00    +0.069 A 
ATOM     26  C   UNL     1       2.838  -0.664  23.216  0.00  0.00    +0.069 A 
ATOM     29  C   UNL     1       3.799   0.304  22.929  0.00  0.00    +0.125 A 
ATOM     30  C   UNL     1       2.133   2.035  23.176  0.00  0.00    +0.125 A 
ATOM     31  C   UNL     1       3.447   1.654  22.909  0.00  0.00    +0.091 A 
BRANCH  29   4
ATOM      4  O   UNL     1       5.084  -0.067  22.668  0.00  0.00    -0.495 OA
ATOM     37  C   UNL     1       5.930  -0.308  23.791  0.00  0.00    +0.277 C 
ENDBRANCH  29   4
BRANCH  30   5
ATOM      5  O   UNL     1       1.789   3.352  23.159  0.00  0.00    -0.495 OA
ATOM     38  C   UNL     1       0.400   3.662  23.248  0.00  0.00    +0.277 C 
ENDBRANCH  30   5
ENDBRANCH   8  21
ENDBRANCH  15   7
TORSDOF 7
ENDMDL
MODEL 2
REMARK VINA RESULT:      12.5      0.040      2.148
REMARK  Name = 11939955
REMARK  11 active torsions:
REMARK  status: ('A' for Active; 'I' for Inactive)
REMARK    1  A    between atoms: O_4  and  C_29
REMARK    2  A    between atoms: O_4  and  C_37
REMARK    3  A    between atoms: O_5  and  C_30
REMARK    4  A    between atoms: O_5  and  C_38
REMARK    5  A    between atoms: N_6  and  C_14
REMARK    6  A    between atoms: N_7  and  C_15
REMARK    7  A    between atoms: N_8  and  C_21
REMARK    8  A    between atoms: N_11  and  C_34
REMARK    9  A    between atoms: N_11  and  C_35
REMARK   10  A    between atoms: N_11  and  C_36
REMARK   11  A    between atoms: C_20  and  C_24
REMARK                            x       y       z     vdW  Elec       q    Type
REMARK                         _______ _______ _______ _____ _____    ______ ____
ROOT
ATOM      1  O   UNL     1      -4.948  -1.491  23.645  0.00  0.00    -0.370 OA
ATOM      2  O   UNL     1      -3.397  -1.202  26.336  0.00  0.00    -0.370 OA
ATOM     12  C   UNL     1      -3.589  -0.327  25.212  0.00  0.00    +0.171 C 
ATOM     13  C   UNL     1      -3.581  -1.189  23.964  0.00  0.00    +0.171 C 
ATOM     14  C   UNL     1      -4.977   0.267  25.242  0.00  0.00    +0.130 C 
ATOM     15  C   UNL     1      -2.851  -2.443  24.388  0.00  0.00    +0.131 C 
ATOM     16  C   UNL     1      -5.812  -0.804  24.562  0.00  0.00    +0.185 C 
ATOM     17  C   UNL     1      -3.204  -2.543  25.861  0.00  0.00    +0.185 C 
ENDROOT
BRANCH  14   6
ATOM      6  N   UNL     1      -5.009   1.491  24.471  0.00  0.00    -0.306 N 
ATOM      9  N   UNL     1      -3.078   2.289  25.484  0.00  0.00    -0.214 NA
ATOM     10  N   UNL     1      -4.230   3.573  23.801  0.00  0.00    -0.223 NA
ATOM     18  C   UNL     1      -4.064   2.495  24.591  0.00  0.00    +0.216 A 
ATOM     20  C   UNL     1      -2.175   3.288  25.574  0.00  0.00    +0.076 A 
ATOM     22  C   UNL     1      -3.291   4.533  23.944  0.00  0.00    +0.116 A 
ATOM     23  C   UNL     1      -2.231   4.443  24.822  0.00  0.00    +0.048 A 
ATOM     39  H   UNL     1      -5.724   1.616  23.764  0.00  0.00    +0.149 HD
BRANCH  20  24
ATOM     24  C   UNL     1      -1.116   3.071  26.530  0.00  0.00    +0.001 A 
ATOM     27  C   UNL     1      -1.388   3.121  27.897  0.00  0.00    +0.012 A 
ATOM     28  C   UNL     1       0.181   2.807  26.088  0.00  0.00    +0.012 A 
ATOM     32  C   UNL     1      -0.366   2.910  28.821  0.00  0.00    +0.024 A 
ATOM     33  C   UNL     1       1.204   2.595  27.012  0.00  0.00    +0.024 A 
ATOM     34  C   UNL     1       0.930   2.646  28.378  0.00  0.00    +0.029 A 
BRANCH  34  11
ATOM     11  N   UNL     1       1.966   2.433  29.312  0.00  0.00    -0.336 N 
ATOM     35  C   UNL     1       3.344   2.710  28.957  0.00  0.00    +0.129 C 
ATOM     36  C   UNL     1       1.667   1.921  30.635  0.00  0.00    +0.129 C 
ENDBRANCH  34  11
ENDBRANCH  20  24
ENDBRANCH  14   6
BRANCH  15   7
ATOM      3  O   UNL     1      -1.426  -0.031  23.791  0.00  0.00    -0.252 OA
ATOM      7  N   UNL     1      -1.427  -2.306  24.201  0.00  0.00    -0.292 N 
ATOM      8  N   UNL     1       0.575  -1.259  23.783  0.00  0.00    -0.269 N 
ATOM     19  C   UNL     1      -0.805  -1.085  23.909  0.00  0.00    +0.304 C 
ATOM     40  H   UNL     1      -0.838  -3.120  24.350  0.00  0.00    +0.151 HD
ATOM     41  H   UNL     1       0.930  -2.203  23.910  0.00  0.00    +0.156 HD
BRANCH   8  21
ATOM     21  C   UNL     1       1.551  -0.276  23.493  0.00  0.00    +0.042 A 
ATOM     25  C   UNL     1       2.869  -0.655  23.241  0.00  0.00    +0.069 A 
ATOM     26  C   UNL     1       1.193   1.072  23.459  0.00  0.00    +0.069 A 
ATOM     29  C   UNL     1       2.155   2.040  23.172  0.00  0.00    +0.125 A 
ATOM     30  C   UNL     1       3.830   0.314  22.954  0.00  0.00    +0.125 A 
ATOM     31  C   UNL     1       3.473   1.661  22.919  0.00  0.00    +0.091 A 
BRANCH  29   4
ATOM      4  O   UNL     1       1.807   3.357  23.136  0.00  0.00    -0.495 OA
ATOM     37  C   UNL     1       0.415   3.662  23.188  0.00  0.00    +0.277 C 
ENDBRANCH  29   4
BRANCH  30   5
ATOM      5  O   UNL     1       5.117  -0.055  22.707  0.00  0.00    -0.495 OA
ATOM     38  C   UNL     1       5.924  -0.392  23.834  0.00  0.00    +0.277 C 
ENDBRANCH  30   5
ENDBRANCH   8  21
ENDBRANCH  15   7
TORSDOF 7
ENDMDL
MODEL 3
REMARK VINA RESULT:      13.4      2.441      5.871
REMARK  Name = 11939955
REMARK  11 active torsions:
REMARK  status: ('A' for Active; 'I' for Inactive)
REMARK    1  A    between atoms: O_4  and  C_29
REMARK    2  A    between atoms: O_4  and  C_37
REMARK    3  A    between atoms: O_5  and  C_30
REMARK    4  A    between atoms: O_5  and  C_38
REMARK    5  A    between atoms: N_6  and  C_14
REMARK    6  A    between atoms: N_7  and  C_15
REMARK    7  A    between atoms: N_8  and  C_21
REMARK    8  A    between atoms: N_11  and  C_34
REMARK    9  A    between atoms: N_11  and  C_35
REMARK   10  A    between atoms: N_11  and  C_36
REMARK   11  A    between atoms: C_20  and  C_24
REMARK                            x       y       z     vdW  Elec       q    Type
REMARK                         _______ _______ _______ _____ _____    ______ ____
ROOT
ATOM      1  O   UNL     1      -5.257   2.850  25.677  0.00  0.00    -0.370 OA
ATOM      2  O   UNL     1      -3.494   2.966  23.106  0.00  0.00    -0.370 OA
ATOM     12  C   UNL     1      -3.730   1.947  24.092  0.00  0.00    +0.171 C 
ATOM     13  C   UNL     1      -3.857   2.641  25.435  0.00  0.00    +0.171 C 
ATOM     14  C   UNL     1      -5.082   1.310  23.876  0.00  0.00    +0.130 C 
ATOM     15  C   UNL     1      -3.156   3.965  25.231  0.00  0.00    +0.131 C 
ATOM     16  C   UNL     1      -6.015   2.254  24.614  0.00  0.00    +0.185 C 
ATOM     17  C   UNL     1      -3.401   4.241  23.758  0.00  0.00    +0.185 C 
ENDROOT
BRANCH  14   6
ATOM      6  N   UNL     1      -5.115  -0.002  24.483  0.00  0.00    -0.306 N 
ATOM      9  N   UNL     1      -2.813  -0.249  24.294  0.00  0.00    -0.214 NA
ATOM     10  N   UNL     1      -4.181  -1.977  25.270  0.00  0.00    -0.223 NA
ATOM     18  C   UNL     1      -3.987  -0.776  24.692  0.00  0.00    +0.216 A 
ATOM     20  C   UNL     1      -1.735  -1.031  24.513  0.00  0.00    +0.076 A 
ATOM     22  C   UNL     1      -3.060  -2.705  25.459  0.00  0.00    +0.116 A 
ATOM     23  C   UNL     1      -1.799  -2.279  25.097  0.00  0.00    +0.048 A 
ATOM     39  H   UNL     1      -5.994  -0.371  24.827  0.00  0.00    +0.149 HD
BRANCH  20  24
ATOM     24  C   UNL     1      -0.475  -0.468  24.089  0.00  0.00    +0.001 A 
ATOM     27  C   UNL     1      -0.159   0.852  24.405  0.00  0.00    +0.012 A 
ATOM     28  C   UNL     1       0.428  -1.247  23.364  0.00  0.00    +0.012 A 
ATOM     32  C   UNL     1       1.059   1.395  23.997  0.00  0.00    +0.024 A 
ATOM     33  C   UNL     1       1.646  -0.704  22.957  0.00  0.00    +0.024 A 
ATOM     34  C   UNL     1       1.961   0.616  23.273  0.00  0.00    +0.029 A 
BRANCH  34  11
ATOM     11  N   UNL     1       3.193   1.165  22.859  0.00  0.00    -0.336 N 
ATOM     35  C   UNL     1       3.278   2.553  22.448  0.00  0.00    +0.129 C 
ATOM     36  C   UNL     1       4.388   0.345  22.826  0.00  0.00    +0.129 C 
ENDBRANCH  34  11
ENDBRANCH  20  24
ENDBRANCH  14   6
BRANCH  15   7
ATOM      3  O   UNL     1      -1.965   3.049  27.670  0.00  0.00    -0.252 OA
ATOM      7  N   UNL     1      -1.746   3.858  25.516  0.00  0.00    -0.292 N 
ATOM      8  N   UNL     1       0.155   3.404  26.724  0.00  0.00    -0.269 N 
ATOM     19  C   UNL     1      -1.243   3.399  26.739  0.00  0.00    +0.304 C 
ATOM     40  H   UNL     1      -1.085   4.065  24.772  0.00  0.00    +0.151 HD
ATOM     41  H   UNL     1       0.601   3.727  25.869  0.00  0.00    +0.156 HD
BRANCH   8  21
ATOM     21  C   UNL     1       1.035   3.015  27.760  0.00  0.00    +0.042 A 
ATOM     25  C   UNL     1       2.415   3.066  27.560  0.00  0.00    +0.069 A 
ATOM     26  C   UNL     1       0.523   2.582  28.984  0.00  0.00    +0.069 A 
ATOM     29  C   UNL     1       1.391   2.200  30.006  0.00  0.00    +0.125 A 
ATOM     30  C   UNL     1       3.282   2.684  28.583  0.00  0.00    +0.125 A 
ATOM     31  C   UNL     1       2.771   2.251  29.806  0.00  0.00    +0.091 A 
BRANCH  29   4
ATOM      4  O   UNL     1       0.893   1.778  31.202  0.00  0.00    -0.495 OA
ATOM     37  C   UNL     1       0.191   2.739  31.987  0.00  0.00    +0.277 C 
ENDBRANCH  29   4
BRANCH  30   5
ATOM      5  O   UNL     1       4.629   2.735  28.388  0.00  0.00    -0.495 OA
ATOM     38  C   UNL     1       5.208   1.707  27.586  0.00  0.00    +0.277 C 
ENDBRANCH  30   5
ENDBRANCH   8  21
ENDBRANCH  15   7
TORSDOF 7
ENDMDL
MODEL 4
REMARK VINA RESULT:      13.4      2.452      5.675
REMARK  Name = 11939955
REMARK  11 active torsions:
REMARK  status: ('A' for Active; 'I' for Inactive)
REMARK    1  A    between atoms: O_4  and  C_29
REMARK    2  A    between atoms: O_4  and  C_37
REMARK    3  A    between atoms: O_5  and  C_30
REMARK    4  A    between atoms: O_5  and  C_38
REMARK    5  A    between atoms: N_6  and  C_14
REMARK    6  A    between atoms: N_7  and  C_15
REMARK    7  A    between atoms: N_8  and  C_21
REMARK    8  A    between atoms: N_11  and  C_34
REMARK    9  A    between atoms: N_11  and  C_35
REMARK   10  A    between atoms: N_11  and  C_36
REMARK   11  A    between atoms: C_20  and  C_24
REMARK                            x       y       z     vdW  Elec       q    Type
REMARK                         _______ _______ _______ _____ _____    ______ ____
ROOT
ATOM      1  O   UNL     1      -5.260   2.881  25.690  0.00  0.00    -0.370 OA
ATOM      2  O   UNL     1      -3.497   3.031  23.119  0.00  0.00    -0.370 OA
ATOM     12  C   UNL     1      -3.739   1.996  24.088  0.00  0.00    +0.171 C 
ATOM     13  C   UNL     1      -3.861   2.668  25.442  0.00  0.00    +0.171 C 
ATOM     14  C   UNL     1      -5.095   1.372  23.861  0.00  0.00    +0.130 C 
ATOM     15  C   UNL     1      -3.152   3.991  25.262  0.00  0.00    +0.131 C 
ATOM     16  C   UNL     1      -6.022   2.309  24.616  0.00  0.00    +0.185 C 
ATOM     17  C   UNL     1      -3.396   4.293  23.794  0.00  0.00    +0.185 C 
ENDROOT
BRANCH  14   6
ATOM      6  N   UNL     1      -5.137   0.050  24.445  0.00  0.00    -0.306 N 
ATOM      9  N   UNL     1      -2.837  -0.208  24.253  0.00  0.00    -0.214 NA
ATOM     10  N   UNL     1      -4.215  -1.944  25.198  0.00  0.00    -0.223 NA
ATOM     18  C   UNL     1      -4.013  -0.735  24.641  0.00  0.00    +0.216 A 
ATOM     20  C   UNL     1      -1.763  -0.999  24.459  0.00  0.00    +0.076 A 
ATOM     22  C   UNL     1      -3.098  -2.682  25.375  0.00  0.00    +0.116 A 
ATOM     23  C   UNL     1      -1.834  -2.257  25.021  0.00  0.00    +0.048 A 
ATOM     39  H   UNL     1      -6.018  -0.320  24.782  0.00  0.00    +0.149 HD
BRANCH  20  24
ATOM     24  C   UNL     1      -0.500  -0.437  24.045  0.00  0.00    +0.001 A 
ATOM     27  C   UNL     1      -0.174   0.874  24.387  0.00  0.00    +0.012 A 
ATOM     28  C   UNL     1       0.397  -1.208  23.303  0.00  0.00    +0.012 A 
ATOM     32  C   UNL     1       1.047   1.417  23.989  0.00  0.00    +0.024 A 
ATOM     33  C   UNL     1       1.619  -0.665  22.906  0.00  0.00    +0.024 A 
ATOM     34  C   UNL     1       1.944   0.647  23.249  0.00  0.00    +0.029 A 
BRANCH  34  11
ATOM     11  N   UNL     1       3.179   1.195  22.845  0.00  0.00    -0.336 N 
ATOM     35  C   UNL     1       3.270   2.586  22.444  0.00  0.00    +0.129 C 
ATOM     36  C   UNL     1       4.372   0.372  22.812  0.00  0.00    +0.129 C 
ENDBRANCH  34  11
ENDBRANCH  20  24
ENDBRANCH  14   6
BRANCH  15   7
ATOM      3  O   UNL     1      -1.964   3.087  27.706  0.00  0.00    -0.252 OA
ATOM      7  N   UNL     1      -1.742   3.869  25.543  0.00  0.00    -0.292 N 
ATOM      8  N   UNL     1       0.157   3.405  26.750  0.00  0.00    -0.269 N 
ATOM     19  C   UNL     1      -1.241   3.417  26.770  0.00  0.00    +0.304 C 
ATOM     40  H   UNL     1      -1.081   4.059  24.794  0.00  0.00    +0.151 HD
ATOM     41  H   UNL     1       0.604   3.714  25.891  0.00  0.00    +0.156 HD
BRANCH   8  21
ATOM     21  C   UNL     1       1.036   3.017  27.789  0.00  0.00    +0.042 A 
ATOM     25  C   UNL     1       0.523   2.605  29.019  0.00  0.00    +0.069 A 
ATOM     26  C   UNL     1       2.415   3.044  27.581  0.00  0.00    +0.069 A 
ATOM     29  C   UNL     1       3.281   2.659  28.604  0.00  0.00    +0.125 A 
ATOM     30  C   UNL     1       1.390   2.221  30.041  0.00  0.00    +0.125 A 
ATOM     31  C   UNL     1       2.768   2.247  29.834  0.00  0.00    +0.091 A 
BRANCH  29   4
ATOM      4  O   UNL     1       4.628   2.683  28.402  0.00  0.00    -0.495 OA
ATOM     37  C   UNL     1       5.185   1.635  27.613  0.00  0.00    +0.277 C 
ENDBRANCH  29   4
BRANCH  30   5
ATOM      5  O   UNL     1       0.890   1.817  31.242  0.00  0.00    -0.495 OA
ATOM     38  C   UNL     1       0.164   2.783  32.000  0.00  0.00    +0.277 C 
ENDBRANCH  30   5
ENDBRANCH   8  21
ENDBRANCH  15   7
TORSDOF 7
ENDMDL
