MODEL 1
REMARK VINA RESULT:      -4.9      0.000      0.000
REMARK  Name = 38029756
REMARK  13 active torsions:
REMARK  status: ('A' for Active; 'I' for Inactive)
REMARK    1  A    between atoms: S_1  and  N_7
REMARK    2  A    between atoms: S_1  and  C_21
REMARK    3  A    between atoms: O_3  and  C_20
REMARK    4  A    between atoms: O_3  and  C_22
REMARK    5  A    between atoms: N_7  and  C_15
REMARK    6  A    between atoms: C_8  and  C_12
REMARK    7  A    between atoms: C_9  and  C_15
REMARK    8  A    between atoms: C_11  and  C_16
REMARK    9  A    between atoms: C_12  and  C_17
REMARK   10  A    between atoms: C_12  and  C_18
REMARK   11  A    between atoms: C_13  and  C_19
REMARK   12  A    between atoms: C_16  and  C_20
REMARK   13  A    between atoms: C_22  and  C_25
REMARK                            x       y       z     vdW  Elec       q    Type
REMARK                         _______ _______ _______ _____ _____    ______ ____
ROOT
ATOM      8  C   UNL     1      -2.294  -1.457  24.240  0.00  0.00    +0.000 C 
ATOM      9  C   UNL     1      -2.994  -0.616  25.336  0.00  0.00    +0.030 C 
ATOM     10  C   UNL     1      -0.780  -1.520  24.498  0.00  0.00    +0.012 C 
ATOM     11  C   UNL     1      -0.135  -0.122  24.528  0.00  0.00    +0.025 C 
ATOM     13  C   UNL     1      -0.927   0.845  25.384  0.00  0.00    -0.073 C 
ATOM     14  C   UNL     1      -2.200   0.602  25.746  0.00  0.00    -0.023 C 
ATOM     19  C   UNL     1      -0.209   2.080  25.852  0.00  0.00    +0.039 C 
ENDROOT
BRANCH   8  12
ATOM     12  C   UNL     1      -2.865  -2.875  24.157  0.00  0.00    -0.013 C 
ATOM     17  C   UNL     1      -3.131  -3.425  25.554  0.00  0.00    +0.007 C 
ATOM     18  C   UNL     1      -4.141  -2.886  23.320  0.00  0.00    +0.007 C 
ENDBRANCH   8  12
BRANCH   9  15
ATOM     15  C   UNL     1      -4.396  -0.184  24.891  0.00  0.00    +0.113 C 
BRANCH  15   7
ATOM      7  N   UNL     1      -5.011   0.625  25.955  0.00  0.00    -0.189 NA
ATOM     29  H   UNL     1      -5.458   0.103  26.719  0.00  0.00    +0.148 HD
BRANCH   7   1
ATOM      1  S   UNL     1      -5.624   2.176  25.607  0.00  0.00    +0.059 S 
ATOM      5  O   UNL     1      -5.929   2.860  26.850  0.00  0.00    -0.153 OA
ATOM      6  O   UNL     1      -6.631   2.067  24.569  0.00  0.00    -0.153 OA
BRANCH   1  21
ATOM      2  F   UNL     1      -1.667   5.409  25.752  0.00  0.00    -0.205 F 
ATOM     21  C   UNL     1      -4.218   2.964  24.883  0.00  0.00    +0.108 A 
ATOM     23  C   UNL     1      -3.483   3.894  25.618  0.00  0.00    +0.066 A 
ATOM     24  C   UNL     1      -3.843   2.656  23.575  0.00  0.00    +0.029 A 
ATOM     26  C   UNL     1      -2.372   4.516  25.046  0.00  0.00    +0.125 A 
ATOM     27  C   UNL     1      -2.732   3.277  23.002  0.00  0.00    +0.005 A 
ATOM     28  C   UNL     1      -1.998   4.207  23.739  0.00  0.00    +0.038 A 
ENDBRANCH   1  21
ENDBRANCH   7   1
ENDBRANCH  15   7
ENDBRANCH   9  15
BRANCH  11  16
ATOM     16  C   UNL     1       0.056   0.430  23.111  0.00  0.00    +0.128 C 
BRANCH  16  20
ATOM      4  O   UNL     1       1.604  -0.669  21.590  0.00  0.00    -0.251 OA
ATOM     20  C   UNL     1       1.405   0.062  22.551  0.00  0.00    +0.308 C 
BRANCH  20   3
ATOM      3  O   UNL     1       2.366   0.682  23.299  0.00  0.00    -0.465 OA
BRANCH   3  22
ATOM     22  C   UNL     1       3.600   0.942  22.623  0.00  0.00    +0.229 C 
ATOM     25  C   UNL     1       4.723   0.240  23.358  0.00  0.00    +0.048 C 
ENDBRANCH   3  22
ENDBRANCH  20   3
ENDBRANCH  16  20
ENDBRANCH  11  16
TORSDOF 9
ENDMDL
MODEL 2
REMARK VINA RESULT:      -3.8      3.022      6.674
REMARK  Name = 38029756
REMARK  13 active torsions:
REMARK  status: ('A' for Active; 'I' for Inactive)
REMARK    1  A    between atoms: S_1  and  N_7
REMARK    2  A    between atoms: S_1  and  C_21
REMARK    3  A    between atoms: O_3  and  C_20
REMARK    4  A    between atoms: O_3  and  C_22
REMARK    5  A    between atoms: N_7  and  C_15
REMARK    6  A    between atoms: C_8  and  C_12
REMARK    7  A    between atoms: C_9  and  C_15
REMARK    8  A    between atoms: C_11  and  C_16
REMARK    9  A    between atoms: C_12  and  C_17
REMARK   10  A    between atoms: C_12  and  C_18
REMARK   11  A    between atoms: C_13  and  C_19
REMARK   12  A    between atoms: C_16  and  C_20
REMARK   13  A    between atoms: C_22  and  C_25
REMARK                            x       y       z     vdW  Elec       q    Type
REMARK                         _______ _______ _______ _____ _____    ______ ____
ROOT
ATOM      8  C   UNL     1      -3.026   0.026  25.030  0.00  0.00    +0.000 C 
ATOM      9  C   UNL     1      -1.979   0.730  24.131  0.00  0.00    +0.030 C 
ATOM     10  C   UNL     1      -4.418   0.090  24.382  0.00  0.00    +0.012 C 
ATOM     11  C   UNL     1      -4.880   1.538  24.136  0.00  0.00    +0.025 C 
ATOM     13  C   UNL     1      -3.794   2.373  23.489  0.00  0.00    -0.073 C 
ATOM     14  C   UNL     1      -2.505   1.990  23.485  0.00  0.00    -0.023 C 
ATOM     19  C   UNL     1      -4.231   3.640  22.806  0.00  0.00    +0.039 C 
ENDROOT
BRANCH   8  12
ATOM     12  C   UNL     1      -2.649  -1.432  25.309  0.00  0.00    -0.013 C 
ATOM     17  C   UNL     1      -2.926  -1.785  26.766  0.00  0.00    +0.007 C 
ATOM     18  C   UNL     1      -3.410  -2.366  24.372  0.00  0.00    +0.007 C 
ENDBRANCH   8  12
BRANCH   9  15
ATOM     15  C   UNL     1      -0.704   1.053  24.917  0.00  0.00    +0.113 C 
BRANCH  15   7
ATOM      7  N   UNL     1       0.436   1.101  23.987  0.00  0.00    -0.189 NA
ATOM     29  H   UNL     1       0.606   2.002  23.525  0.00  0.00    +0.148 HD
BRANCH   7   1
ATOM      1  S   UNL     1       0.926  -0.306  23.159  0.00  0.00    +0.059 S 
ATOM      5  O   UNL     1       0.529  -0.203  21.767  0.00  0.00    -0.153 OA
ATOM      6  O   UNL     1       0.554  -1.470  23.940  0.00  0.00    -0.153 OA
BRANCH   1  21
ATOM      2  F   UNL     1       5.569  -2.165  24.213  0.00  0.00    -0.205 F 
ATOM     21  C   UNL     1       2.686  -0.173  23.234  0.00  0.00    +0.108 A 
ATOM     23  C   UNL     1       3.448  -1.243  23.704  0.00  0.00    +0.066 A 
ATOM     24  C   UNL     1       3.314   1.002  22.822  0.00  0.00    +0.029 A 
ATOM     26  C   UNL     1       4.838  -1.138  23.762  0.00  0.00    +0.125 A 
ATOM     27  C   UNL     1       4.705   1.108  22.880  0.00  0.00    +0.005 A 
ATOM     28  C   UNL     1       5.466   0.038  23.350  0.00  0.00    +0.038 A 
ENDBRANCH   1  21
ENDBRANCH   7   1
ENDBRANCH  15   7
ENDBRANCH   9  15
BRANCH  11  16
ATOM     16  C   UNL     1      -5.374   2.189  25.433  0.00  0.00    +0.128 C 
BRANCH  16  20
ATOM      4  O   UNL     1      -5.331   4.621  25.406  0.00  0.00    -0.251 OA
ATOM     20  C   UNL     1      -4.772   3.555  25.630  0.00  0.00    +0.308 C 
BRANCH  20   3
ATOM      3  O   UNL     1      -3.498   3.402  26.101  0.00  0.00    -0.465 OA
BRANCH   3  22
ATOM     22  C   UNL     1      -2.772   4.615  26.319  0.00  0.00    +0.229 C 
ATOM     25  C   UNL     1      -1.663   4.717  25.292  0.00  0.00    +0.048 C 
ENDBRANCH   3  22
ENDBRANCH  20   3
ENDBRANCH  16  20
ENDBRANCH  11  16
TORSDOF 9
ENDMDL
MODEL 3
REMARK VINA RESULT:      -3.5      2.209      4.892
REMARK  Name = 38029756
REMARK  13 active torsions:
REMARK  status: ('A' for Active; 'I' for Inactive)
REMARK    1  A    between atoms: S_1  and  N_7
REMARK    2  A    between atoms: S_1  and  C_21
REMARK    3  A    between atoms: O_3  and  C_20
REMARK    4  A    between atoms: O_3  and  C_22
REMARK    5  A    between atoms: N_7  and  C_15
REMARK    6  A    between atoms: C_8  and  C_12
REMARK    7  A    between atoms: C_9  and  C_15
REMARK    8  A    between atoms: C_11  and  C_16
REMARK    9  A    between atoms: C_12  and  C_17
REMARK   10  A    between atoms: C_12  and  C_18
REMARK   11  A    between atoms: C_13  and  C_19
REMARK   12  A    between atoms: C_16  and  C_20
REMARK   13  A    between atoms: C_22  and  C_25
REMARK                            x       y       z     vdW  Elec       q    Type
REMARK                         _______ _______ _______ _____ _____    ______ ____
ROOT
ATOM      8  C   UNL     1      -2.066   3.584  24.972  0.00  0.00    +0.000 C 
ATOM      9  C   UNL     1      -3.274   3.784  24.022  0.00  0.00    +0.030 C 
ATOM     10  C   UNL     1      -0.823   3.156  24.175  0.00  0.00    +0.012 C 
ATOM     11  C   UNL     1      -1.053   1.848  23.395  0.00  0.00    +0.025 C 
ATOM     13  C   UNL     1      -2.367   1.867  22.641  0.00  0.00    -0.073 C 
ATOM     14  C   UNL     1      -3.343   2.748  22.926  0.00  0.00    -0.023 C 
ATOM     19  C   UNL     1      -2.517   0.877  21.518  0.00  0.00    +0.039 C 
ENDROOT
BRANCH   8  12
ATOM     12  C   UNL     1      -1.756   4.850  25.775  0.00  0.00    -0.013 C 
ATOM     17  C   UNL     1      -1.234   5.950  24.856  0.00  0.00    +0.007 C 
ATOM     18  C   UNL     1      -2.997   5.319  26.529  0.00  0.00    +0.007 C 
ENDBRANCH   8  12
BRANCH   9  15
ATOM     15  C   UNL     1      -4.593   3.792  24.801  0.00  0.00    +0.113 C 
BRANCH  15   7
ATOM      7  N   UNL     1      -4.600   2.666  25.749  0.00  0.00    -0.189 NA
ATOM     29  H   UNL     1      -3.691   2.409  26.153  0.00  0.00    +0.148 HD
BRANCH   7   1
ATOM      1  S   UNL     1      -5.766   1.433  25.606  0.00  0.00    +0.059 S 
ATOM      5  O   UNL     1      -6.572   1.671  24.422  0.00  0.00    -0.153 OA
ATOM      6  O   UNL     1      -6.404   1.231  26.894  0.00  0.00    -0.153 OA
BRANCH   1  21
ATOM      2  F   UNL     1      -4.297  -2.560  22.773  0.00  0.00    -0.205 F 
ATOM     21  C   UNL     1      -4.757   0.015  25.302  0.00  0.00    +0.108 A 
ATOM     23  C   UNL     1      -4.929  -0.728  24.134  0.00  0.00    +0.066 A 
ATOM     24  C   UNL     1      -3.786  -0.361  26.230  0.00  0.00    +0.029 A 
ATOM     26  C   UNL     1      -4.131  -1.847  23.894  0.00  0.00    +0.125 A 
ATOM     27  C   UNL     1      -2.987  -1.480  25.991  0.00  0.00    +0.005 A 
ATOM     28  C   UNL     1      -3.160  -2.222  24.822  0.00  0.00    +0.038 A 
ENDBRANCH   1  21
ENDBRANCH   7   1
ENDBRANCH  15   7
ENDBRANCH   9  15
BRANCH  11  16
ATOM     16  C   UNL     1      -0.969   0.629  24.321  0.00  0.00    +0.128 C 
BRANCH  16  20
ATOM      4  O   UNL     1       0.250  -1.475  24.290  0.00  0.00    -0.251 OA
ATOM     20  C   UNL     1       0.092  -0.338  23.868  0.00  0.00    +0.308 C 
BRANCH  20   3
ATOM      3  O   UNL     1       0.850   0.272  22.907  0.00  0.00    -0.465 OA
BRANCH   3  22
ATOM     22  C   UNL     1       2.150  -0.288  22.701  0.00  0.00    +0.229 C 
ATOM     25  C   UNL     1       3.183   0.816  22.794  0.00  0.00    +0.048 C 
ENDBRANCH   3  22
ENDBRANCH  20   3
ENDBRANCH  16  20
ENDBRANCH  11  16
TORSDOF 9
ENDMDL
MODEL 4
REMARK VINA RESULT:      -3.3      2.514      5.603
REMARK  Name = 38029756
REMARK  13 active torsions:
REMARK  status: ('A' for Active; 'I' for Inactive)
REMARK    1  A    between atoms: S_1  and  N_7
REMARK    2  A    between atoms: S_1  and  C_21
REMARK    3  A    between atoms: O_3  and  C_20
REMARK    4  A    between atoms: O_3  and  C_22
REMARK    5  A    between atoms: N_7  and  C_15
REMARK    6  A    between atoms: C_8  and  C_12
REMARK    7  A    between atoms: C_9  and  C_15
REMARK    8  A    between atoms: C_11  and  C_16
REMARK    9  A    between atoms: C_12  and  C_17
REMARK   10  A    between atoms: C_12  and  C_18
REMARK   11  A    between atoms: C_13  and  C_19
REMARK   12  A    between atoms: C_16  and  C_20
REMARK   13  A    between atoms: C_22  and  C_25
REMARK                            x       y       z     vdW  Elec       q    Type
REMARK                         _______ _______ _______ _____ _____    ______ ____
ROOT
ATOM      8  C   UNL     1      -2.884  -1.037  24.799  0.00  0.00    +0.000 C 
ATOM      9  C   UNL     1      -1.706  -0.398  24.022  0.00  0.00    +0.030 C 
ATOM     10  C   UNL     1      -4.221  -0.699  24.121  0.00  0.00    +0.012 C 
ATOM     11  C   UNL     1      -4.461   0.820  24.033  0.00  0.00    +0.025 C 
ATOM     13  C   UNL     1      -3.239   1.554  23.523  0.00  0.00    -0.073 C 
ATOM     14  C   UNL     1      -2.018   0.990  23.513  0.00  0.00    -0.023 C 
ATOM     19  C   UNL     1      -3.458   2.940  22.981  0.00  0.00    +0.039 C 
ENDROOT
BRANCH   8  12
ATOM     12  C   UNL     1      -2.732  -2.557  24.916  0.00  0.00    -0.013 C 
ATOM     17  C   UNL     1      -3.930  -3.262  24.290  0.00  0.00    +0.007 C 
ATOM     18  C   UNL     1      -1.432  -3.013  24.260  0.00  0.00    +0.007 C 
ENDBRANCH   8  12
BRANCH   9  15
ATOM     15  C   UNL     1      -0.437  -0.354  24.880  0.00  0.00    +0.113 C 
BRANCH  15   7
ATOM      7  N   UNL     1      -0.531   0.774  25.821  0.00  0.00    -0.189 NA
ATOM     29  H   UNL     1      -1.451   0.931  26.249  0.00  0.00    +0.148 HD
BRANCH   7   1
ATOM      1  S   UNL     1       0.487   2.129  25.639  0.00  0.00    +0.059 S 
ATOM      5  O   UNL     1       1.158   2.053  24.354  0.00  0.00    -0.153 OA
ATOM      6  O   UNL     1       1.256   2.311  26.854  0.00  0.00    -0.153 OA
BRANCH   1  21
ATOM      2  F   UNL     1      -3.811   4.466  27.121  0.00  0.00    -0.205 F 
ATOM     21  C   UNL     1      -0.683   3.450  25.564  0.00  0.00    +0.108 A 
ATOM     23  C   UNL     1      -1.808   3.436  26.389  0.00  0.00    +0.066 A 
ATOM     24  C   UNL     1      -0.482   4.510  24.679  0.00  0.00    +0.029 A 
ATOM     26  C   UNL     1      -2.732   4.480  26.329  0.00  0.00    +0.125 A 
ATOM     27  C   UNL     1      -1.404   5.555  24.619  0.00  0.00    +0.005 A 
ATOM     28  C   UNL     1      -2.529   5.539  25.445  0.00  0.00    +0.038 A 
ENDBRANCH   1  21
ENDBRANCH   7   1
ENDBRANCH  15   7
ENDBRANCH   9  15
BRANCH  11  16
ATOM     16  C   UNL     1      -4.919   1.387  25.381  0.00  0.00    +0.128 C 
BRANCH  16  20
ATOM      4  O   UNL     1      -7.243   1.548  24.682  0.00  0.00    -0.251 OA
ATOM     20  C   UNL     1      -6.285   2.013  25.284  0.00  0.00    +0.308 C 
BRANCH  20   3
ATOM      3  O   UNL     1      -6.271   3.189  25.981  0.00  0.00    -0.465 OA
BRANCH   3  22
ATOM     22  C   UNL     1      -5.600   4.278  25.340  0.00  0.00    +0.229 C 
ATOM     25  C   UNL     1      -6.505   5.492  25.355  0.00  0.00    +0.048 C 
ENDBRANCH   3  22
ENDBRANCH  20   3
ENDBRANCH  16  20
ENDBRANCH  11  16
TORSDOF 9
ENDMDL
MODEL 5
REMARK VINA RESULT:      -3.3      2.964      5.924
REMARK  Name = 38029756
REMARK  13 active torsions:
REMARK  status: ('A' for Active; 'I' for Inactive)
REMARK    1  A    between atoms: S_1  and  N_7
REMARK    2  A    between atoms: S_1  and  C_21
REMARK    3  A    between atoms: O_3  and  C_20
REMARK    4  A    between atoms: O_3  and  C_22
REMARK    5  A    between atoms: N_7  and  C_15
REMARK    6  A    between atoms: C_8  and  C_12
REMARK    7  A    between atoms: C_9  and  C_15
REMARK    8  A    between atoms: C_11  and  C_16
REMARK    9  A    between atoms: C_12  and  C_17
REMARK   10  A    between atoms: C_12  and  C_18
REMARK   11  A    between atoms: C_13  and  C_19
REMARK   12  A    between atoms: C_16  and  C_20
REMARK   13  A    between atoms: C_22  and  C_25
REMARK                            x       y       z     vdW  Elec       q    Type
REMARK                         _______ _______ _______ _____ _____    ______ ____
ROOT
ATOM      8  C   UNL     1      -3.628   2.676  24.029  0.00  0.00    +0.000 C 
ATOM      9  C   UNL     1      -3.996   3.751  25.082  0.00  0.00    +0.030 C 
ATOM     10  C   UNL     1      -4.869   1.852  23.648  0.00  0.00    +0.012 C 
ATOM     11  C   UNL     1      -5.496   1.148  24.865  0.00  0.00    +0.025 C 
ATOM     13  C   UNL     1      -5.645   2.088  26.044  0.00  0.00    -0.073 C 
ATOM     14  C   UNL     1      -4.977   3.253  26.118  0.00  0.00    -0.023 C 
ATOM     19  C   UNL     1      -6.615   1.679  27.118  0.00  0.00    +0.039 C 
ENDROOT
BRANCH   8  12
ATOM     12  C   UNL     1      -3.012   3.297  22.772  0.00  0.00    -0.013 C 
ATOM     17  C   UNL     1      -2.352   2.222  21.915  0.00  0.00    +0.007 C 
ATOM     18  C   UNL     1      -4.074   4.049  21.975  0.00  0.00    +0.007 C 
ENDBRANCH   8  12
BRANCH   9  15
ATOM     15  C   UNL     1      -2.744   4.290  25.782  0.00  0.00    +0.113 C 
BRANCH  15   7
ATOM      7  N   UNL     1      -1.895   3.158  26.189  0.00  0.00    -0.189 NA
ATOM     29  H   UNL     1      -2.101   2.745  27.106  0.00  0.00    +0.148 HD
BRANCH   7   1
ATOM      1  S   UNL     1      -0.293   3.042  25.623  0.00  0.00    +0.059 S 
ATOM      5  O   UNL     1       0.619   3.103  26.751  0.00  0.00    -0.153 OA
ATOM      6  O   UNL     1      -0.120   3.940  24.497  0.00  0.00    -0.153 OA
BRANCH   1  21
ATOM      2  F   UNL     1       1.057  -0.428  22.120  0.00  0.00    -0.205 F 
ATOM     21  C   UNL     1      -0.255   1.396  24.982  0.00  0.00    +0.108 A 
ATOM     23  C   UNL     1       0.399   1.129  23.780  0.00  0.00    +0.066 A 
ATOM     24  C   UNL     1      -0.880   0.363  25.680  0.00  0.00    +0.029 A 
ATOM     26  C   UNL     1       0.429  -0.172  23.274  0.00  0.00    +0.125 A 
ATOM     27  C   UNL     1      -0.851  -0.939  25.176  0.00  0.00    +0.005 A 
ATOM     28  C   UNL     1      -0.196  -1.205  23.973  0.00  0.00    +0.038 A 
ENDBRANCH   1  21
ENDBRANCH   7   1
ENDBRANCH  15   7
ENDBRANCH   9  15
BRANCH  11  16
ATOM     16  C   UNL     1      -4.698  -0.100  25.256  0.00  0.00    +0.128 C 
BRANCH  16  20
ATOM      4  O   UNL     1      -3.426  -0.389  23.203  0.00  0.00    -0.251 OA
ATOM     20  C   UNL     1      -4.194  -0.837  24.043  0.00  0.00    +0.308 C 
BRANCH  20   3
ATOM      3  O   UNL     1      -4.741  -2.090  24.041  0.00  0.00    -0.465 OA
BRANCH   3  22
ATOM     22  C   UNL     1      -3.804  -3.171  24.072  0.00  0.00    +0.229 C 
ATOM     25  C   UNL     1      -3.118  -3.191  25.422  0.00  0.00    +0.048 C 
ENDBRANCH   3  22
ENDBRANCH  20   3
ENDBRANCH  16  20
ENDBRANCH  11  16
TORSDOF 9
ENDMDL
MODEL 6
REMARK VINA RESULT:      -3.1      2.738      4.629
REMARK  Name = 38029756
REMARK  13 active torsions:
REMARK  status: ('A' for Active; 'I' for Inactive)
REMARK    1  A    between atoms: S_1  and  N_7
REMARK    2  A    between atoms: S_1  and  C_21
REMARK    3  A    between atoms: O_3  and  C_20
REMARK    4  A    between atoms: O_3  and  C_22
REMARK    5  A    between atoms: N_7  and  C_15
REMARK    6  A    between atoms: C_8  and  C_12
REMARK    7  A    between atoms: C_9  and  C_15
REMARK    8  A    between atoms: C_11  and  C_16
REMARK    9  A    between atoms: C_12  and  C_17
REMARK   10  A    between atoms: C_12  and  C_18
REMARK   11  A    between atoms: C_13  and  C_19
REMARK   12  A    between atoms: C_16  and  C_20
REMARK   13  A    between atoms: C_22  and  C_25
REMARK                            x       y       z     vdW  Elec       q    Type
REMARK                         _______ _______ _______ _____ _____    ______ ____
ROOT
ATOM      8  C   UNL     1       0.494   0.220  23.445  0.00  0.00    +0.000 C 
ATOM      9  C   UNL     1      -0.018  -0.632  24.634  0.00  0.00    +0.030 C 
ATOM     10  C   UNL     1       1.179   1.497  23.957  0.00  0.00    +0.012 C 
ATOM     11  C   UNL     1       0.233   2.365  24.807  0.00  0.00    +0.025 C 
ATOM     13  C   UNL     1      -0.515   1.541  25.835  0.00  0.00    -0.073 C 
ATOM     14  C   UNL     1      -0.606   0.202  25.749  0.00  0.00    -0.023 C 
ATOM     19  C   UNL     1      -1.120   2.288  26.991  0.00  0.00    +0.039 C 
ENDROOT
BRANCH   8  12
ATOM     12  C   UNL     1       1.461  -0.567  22.556  0.00  0.00    -0.013 C 
ATOM     17  C   UNL     1       0.918  -0.667  21.135  0.00  0.00    +0.007 C 
ATOM     18  C   UNL     1       2.841   0.085  22.563  0.00  0.00    +0.007 C 
ENDBRANCH   8  12
BRANCH   9  15
ATOM     15  C   UNL     1      -1.051  -1.665  24.170  0.00  0.00    +0.113 C 
BRANCH  15   7
ATOM      7  N   UNL     1      -2.278  -0.966  23.757  0.00  0.00    -0.189 NA
ATOM     29  H   UNL     1      -2.149  -0.051  23.307  0.00  0.00    +0.148 HD
BRANCH   7   1
ATOM      1  S   UNL     1      -3.735  -1.220  24.603  0.00  0.00    +0.059 S 
ATOM      5  O   UNL     1      -3.434  -1.703  25.938  0.00  0.00    -0.153 OA
ATOM      6  O   UNL     1      -4.656  -1.951  23.753  0.00  0.00    -0.153 OA
BRANCH   1  21
ATOM      2  F   UNL     1      -3.909   3.698  23.222  0.00  0.00    -0.205 F 
ATOM     21  C   UNL     1      -4.360   0.426  24.747  0.00  0.00    +0.108 A 
ATOM     23  C   UNL     1      -3.878   1.433  23.910  0.00  0.00    +0.066 A 
ATOM     24  C   UNL     1      -5.338   0.719  25.698  0.00  0.00    +0.029 A 
ATOM     26  C   UNL     1      -4.372   2.733  24.025  0.00  0.00    +0.125 A 
ATOM     27  C   UNL     1      -5.833   2.019  25.813  0.00  0.00    +0.005 A 
ATOM     28  C   UNL     1      -5.350   3.025  24.976  0.00  0.00    +0.038 A 
ENDBRANCH   1  21
ENDBRANCH   7   1
ENDBRANCH  15   7
ENDBRANCH   9  15
BRANCH  11  16
ATOM     16  C   UNL     1      -0.739   3.153  23.923  0.00  0.00    +0.128 C 
BRANCH  16  20
ATOM      4  O   UNL     1       0.145   5.184  22.919  0.00  0.00    -0.251 OA
ATOM     20  C   UNL     1      -0.377   4.614  23.867  0.00  0.00    +0.308 C 
BRANCH  20   3
ATOM      3  O   UNL     1      -0.730   5.191  25.054  0.00  0.00    -0.465 OA
BRANCH   3  22
ATOM     22  C   UNL     1      -2.104   5.575  25.168  0.00  0.00    +0.229 C 
ATOM     25  C   UNL     1      -2.765   4.730  26.237  0.00  0.00    +0.048 C 
ENDBRANCH   3  22
ENDBRANCH  20   3
ENDBRANCH  16  20
ENDBRANCH  11  16
TORSDOF 9
ENDMDL
MODEL 7
REMARK VINA RESULT:      -2.9      2.414      3.915
REMARK  Name = 38029756
REMARK  13 active torsions:
REMARK  status: ('A' for Active; 'I' for Inactive)
REMARK    1  A    between atoms: S_1  and  N_7
REMARK    2  A    between atoms: S_1  and  C_21
REMARK    3  A    between atoms: O_3  and  C_20
REMARK    4  A    between atoms: O_3  and  C_22
REMARK    5  A    between atoms: N_7  and  C_15
REMARK    6  A    between atoms: C_8  and  C_12
REMARK    7  A    between atoms: C_9  and  C_15
REMARK    8  A    between atoms: C_11  and  C_16
REMARK    9  A    between atoms: C_12  and  C_17
REMARK   10  A    between atoms: C_12  and  C_18
REMARK   11  A    between atoms: C_13  and  C_19
REMARK   12  A    between atoms: C_16  and  C_20
REMARK   13  A    between atoms: C_22  and  C_25
REMARK                            x       y       z     vdW  Elec       q    Type
REMARK                         _______ _______ _______ _____ _____    ______ ____
ROOT
ATOM      8  C   UNL     1       0.271   1.414  25.052  0.00  0.00    +0.000 C 
ATOM      9  C   UNL     1      -0.692   0.369  24.435  0.00  0.00    +0.030 C 
ATOM     10  C   UNL     1       1.013   2.179  23.945  0.00  0.00    +0.012 C 
ATOM     11  C   UNL     1       1.828   1.242  23.035  0.00  0.00    +0.025 C 
ATOM     13  C   UNL     1       1.019   0.037  22.599  0.00  0.00    -0.073 C 
ATOM     14  C   UNL     1      -0.112  -0.330  23.229  0.00  0.00    -0.023 C 
ATOM     19  C   UNL     1       1.515  -0.712  21.393  0.00  0.00    +0.039 C 
ENDROOT
BRANCH   8  12
ATOM     12  C   UNL     1      -0.466   2.402  25.961  0.00  0.00    -0.013 C 
ATOM     17  C   UNL     1       0.342   2.669  27.226  0.00  0.00    +0.007 C 
ATOM     18  C   UNL     1      -0.747   3.703  25.214  0.00  0.00    +0.007 C 
ENDBRANCH   8  12
BRANCH   9  15
ATOM     15  C   UNL     1      -1.116  -0.673  25.475  0.00  0.00    +0.113 C 
BRANCH  15   7
ATOM      7  N   UNL     1      -2.091  -1.592  24.866  0.00  0.00    -0.189 NA
ATOM     29  H   UNL     1      -1.766  -2.119  24.046  0.00  0.00    +0.148 HD
BRANCH   7   1
ATOM      1  S   UNL     1      -3.759  -1.262  24.970  0.00  0.00    +0.059 S 
ATOM      5  O   UNL     1      -4.178  -1.351  26.357  0.00  0.00    -0.153 OA
ATOM      6  O   UNL     1      -4.457  -2.017  23.947  0.00  0.00    -0.153 OA
BRANCH   1  21
ATOM      2  F   UNL     1      -4.978   3.634  25.788  0.00  0.00    -0.205 F 
ATOM     21  C   UNL     1      -3.822   0.437  24.492  0.00  0.00    +0.108 A 
ATOM     23  C   UNL     1      -4.386   1.384  25.346  0.00  0.00    +0.066 A 
ATOM     24  C   UNL     1      -3.305   0.833  23.258  0.00  0.00    +0.029 A 
ATOM     26  C   UNL     1      -4.435   2.726  24.968  0.00  0.00    +0.125 A 
ATOM     27  C   UNL     1      -3.352   2.175  22.878  0.00  0.00    +0.005 A 
ATOM     28  C   UNL     1      -3.918   3.121  23.734  0.00  0.00    +0.038 A 
ENDBRANCH   1  21
ENDBRANCH   7   1
ENDBRANCH  15   7
ENDBRANCH   9  15
BRANCH  11  16
ATOM     16  C   UNL     1       3.134   0.810  23.712  0.00  0.00    +0.128 C 
BRANCH  16  20
ATOM      4  O   UNL     1       4.178   0.849  21.516  0.00  0.00    -0.251 OA
ATOM     20  C   UNL     1       4.276   0.765  22.732  0.00  0.00    +0.308 C 
BRANCH  20   3
ATOM      3  O   UNL     1       5.440   0.612  23.433  0.00  0.00    -0.465 OA
BRANCH   3  22
ATOM     22  C   UNL     1       5.423  -0.403  24.441  0.00  0.00    +0.229 C 
ATOM     25  C   UNL     1       4.870  -1.681  23.845  0.00  0.00    +0.048 C 
ENDBRANCH   3  22
ENDBRANCH  20   3
ENDBRANCH  16  20
ENDBRANCH  11  16
TORSDOF 9
ENDMDL
MODEL 8
REMARK VINA RESULT:      -2.6      3.134      7.410
REMARK  Name = 38029756
REMARK  13 active torsions:
REMARK  status: ('A' for Active; 'I' for Inactive)
REMARK    1  A    between atoms: S_1  and  N_7
REMARK    2  A    between atoms: S_1  and  C_21
REMARK    3  A    between atoms: O_3  and  C_20
REMARK    4  A    between atoms: O_3  and  C_22
REMARK    5  A    between atoms: N_7  and  C_15
REMARK    6  A    between atoms: C_8  and  C_12
REMARK    7  A    between atoms: C_9  and  C_15
REMARK    8  A    between atoms: C_11  and  C_16
REMARK    9  A    between atoms: C_12  and  C_17
REMARK   10  A    between atoms: C_12  and  C_18
REMARK   11  A    between atoms: C_13  and  C_19
REMARK   12  A    between atoms: C_16  and  C_20
REMARK   13  A    between atoms: C_22  and  C_25
REMARK                            x       y       z     vdW  Elec       q    Type
REMARK                         _______ _______ _______ _____ _____    ______ ____
ROOT
ATOM      8  C   UNL     1      -2.202   2.042  25.095  0.00  0.00    +0.000 C 
ATOM      9  C   UNL     1      -1.418   0.987  24.276  0.00  0.00    +0.030 C 
ATOM     10  C   UNL     1      -3.158   1.353  26.081  0.00  0.00    +0.012 C 
ATOM     11  C   UNL     1      -4.170   0.437  25.368  0.00  0.00    +0.025 C 
ATOM     13  C   UNL     1      -3.498  -0.454  24.344  0.00  0.00    -0.073 C 
ATOM     14  C   UNL     1      -2.263  -0.200  23.877  0.00  0.00    -0.023 C 
ATOM     19  C   UNL     1      -4.262  -1.671  23.900  0.00  0.00    +0.039 C 
ENDROOT
BRANCH   8  12
ATOM     12  C   UNL     1      -1.266   2.986  25.853  0.00  0.00    -0.013 C 
ATOM     17  C   UNL     1       0.022   2.265  26.237  0.00  0.00    +0.007 C 
ATOM     18  C   UNL     1      -0.963   4.224  25.014  0.00  0.00    +0.007 C 
ENDBRANCH   8  12
BRANCH   9  15
ATOM     15  C   UNL     1      -0.792   1.611  23.024  0.00  0.00    +0.113 C 
BRANCH  15   7
ATOM      7  N   UNL     1       0.648   1.308  23.004  0.00  0.00    -0.189 NA
ATOM     29  H   UNL     1       1.272   2.087  22.758  0.00  0.00    +0.148 HD
BRANCH   7   1
ATOM      1  S   UNL     1       1.187  -0.267  22.641  0.00  0.00    +0.059 S 
ATOM      5  O   UNL     1       1.061  -0.498  21.213  0.00  0.00    -0.153 OA
ATOM      6  O   UNL     1       0.602  -1.198  23.586  0.00  0.00    -0.153 OA
BRANCH   1  21
ATOM      2  F   UNL     1       5.591  -2.237  24.331  0.00  0.00    -0.205 F 
ATOM     21  C   UNL     1       2.909  -0.155  23.023  0.00  0.00    +0.108 A 
ATOM     23  C   UNL     1       3.584  -1.262  23.537  0.00  0.00    +0.066 A 
ATOM     24  C   UNL     1       3.594   1.042  22.810  0.00  0.00    +0.029 A 
ATOM     26  C   UNL     1       4.943  -1.174  23.838  0.00  0.00    +0.125 A 
ATOM     27  C   UNL     1       4.954   1.131  23.111  0.00  0.00    +0.005 A 
ATOM     28  C   UNL     1       5.627   0.023  23.625  0.00  0.00    +0.038 A 
ENDBRANCH   1  21
ENDBRANCH   7   1
ENDBRANCH  15   7
ENDBRANCH   9  15
BRANCH  11  16
ATOM     16  C   UNL     1      -5.300   1.252  24.730  0.00  0.00    +0.128 C 
BRANCH  16  20
ATOM      4  O   UNL     1      -6.501   1.659  26.805  0.00  0.00    -0.251 OA
ATOM     20  C   UNL     1      -6.035   2.076  25.753  0.00  0.00    +0.308 C 
BRANCH  20   3
ATOM      3  O   UNL     1      -6.094   3.366  25.307  0.00  0.00    -0.465 OA
BRANCH   3  22
ATOM     22  C   UNL     1      -4.862   4.092  25.356  0.00  0.00    +0.229 C 
ATOM     25  C   UNL     1      -4.309   4.220  23.952  0.00  0.00    +0.048 C 
ENDBRANCH   3  22
ENDBRANCH  20   3
ENDBRANCH  16  20
ENDBRANCH  11  16
TORSDOF 9
ENDMDL
MODEL 9
REMARK VINA RESULT:      -2.4      2.541      5.305
REMARK  Name = 38029756
REMARK  13 active torsions:
REMARK  status: ('A' for Active; 'I' for Inactive)
REMARK    1  A    between atoms: S_1  and  N_7
REMARK    2  A    between atoms: S_1  and  C_21
REMARK    3  A    between atoms: O_3  and  C_20
REMARK    4  A    between atoms: O_3  and  C_22
REMARK    5  A    between atoms: N_7  and  C_15
REMARK    6  A    between atoms: C_8  and  C_12
REMARK    7  A    between atoms: C_9  and  C_15
REMARK    8  A    between atoms: C_11  and  C_16
REMARK    9  A    between atoms: C_12  and  C_17
REMARK   10  A    between atoms: C_12  and  C_18
REMARK   11  A    between atoms: C_13  and  C_19
REMARK   12  A    between atoms: C_16  and  C_20
REMARK   13  A    between atoms: C_22  and  C_25
REMARK                            x       y       z     vdW  Elec       q    Type
REMARK                         _______ _______ _______ _____ _____    ______ ____
ROOT
ATOM      8  C   UNL     1      -1.818   3.592  24.672  0.00  0.00    +0.000 C 
ATOM      9  C   UNL     1      -2.283   2.922  23.354  0.00  0.00    +0.030 C 
ATOM     10  C   UNL     1      -0.289   3.504  24.806  0.00  0.00    +0.012 C 
ATOM     11  C   UNL     1       0.214   2.049  24.794  0.00  0.00    +0.025 C 
ATOM     13  C   UNL     1      -0.412   1.246  23.673  0.00  0.00    -0.073 C 
ATOM     14  C   UNL     1      -1.521   1.658  23.032  0.00  0.00    -0.023 C 
ATOM     19  C   UNL     1       0.290  -0.022  23.274  0.00  0.00    +0.039 C 
ENDROOT
BRANCH   8  12
ATOM     12  C   UNL     1      -2.263   5.054  24.755  0.00  0.00    -0.013 C 
ATOM     17  C   UNL     1      -3.122   5.280  25.995  0.00  0.00    +0.007 C 
ATOM     18  C   UNL     1      -1.050   5.980  24.761  0.00  0.00    +0.007 C 
ENDBRANCH   8  12
BRANCH   9  15
ATOM     15  C   UNL     1      -3.785   2.617  23.390  0.00  0.00    +0.113 C 
BRANCH  15   7
ATOM      7  N   UNL     1      -4.210   2.455  24.789  0.00  0.00    -0.189 NA
ATOM     29  H   UNL     1      -3.545   2.773  25.504  0.00  0.00    +0.148 HD
BRANCH   7   1
ATOM      1  S   UNL     1      -5.277   1.199  25.220  0.00  0.00    +0.059 S 
ATOM      5  O   UNL     1      -6.375   1.158  24.271  0.00  0.00    -0.153 OA
ATOM      6  O   UNL     1      -5.546   1.272  26.644  0.00  0.00    -0.153 OA
BRANCH   1  21
ATOM      2  F   UNL     1      -1.076  -1.602  26.016  0.00  0.00    -0.205 F 
ATOM     21  C   UNL     1      -4.276  -0.232  24.955  0.00  0.00    +0.108 A 
ATOM     23  C   UNL     1      -3.047  -0.355  25.603  0.00  0.00    +0.066 A 
ATOM     24  C   UNL     1      -4.715  -1.241  24.098  0.00  0.00    +0.029 A 
ATOM     26  C   UNL     1      -2.256  -1.485  25.394  0.00  0.00    +0.125 A 
ATOM     27  C   UNL     1      -3.926  -2.372  23.888  0.00  0.00    +0.005 A 
ATOM     28  C   UNL     1      -2.696  -2.494  24.537  0.00  0.00    +0.038 A 
ENDBRANCH   1  21
ENDBRANCH   7   1
ENDBRANCH  15   7
ENDBRANCH   9  15
BRANCH  11  16
ATOM     16  C   UNL     1      -0.016   1.372  26.150  0.00  0.00    +0.128 C 
BRANCH  16  20
ATOM      4  O   UNL     1      -0.690   2.940  27.882  0.00  0.00    -0.251 OA
ATOM     20  C   UNL     1       0.192   2.332  27.291  0.00  0.00    +0.308 C 
BRANCH  20   3
ATOM      3  O   UNL     1       1.531   2.407  27.552  0.00  0.00    -0.465 OA
BRANCH   3  22
ATOM     22  C   UNL     1       1.883   3.035  28.789  0.00  0.00    +0.229 C 
ATOM     25  C   UNL     1       1.911   1.988  29.883  0.00  0.00    +0.048 C 
ENDBRANCH   3  22
ENDBRANCH  20   3
ENDBRANCH  16  20
ENDBRANCH  11  16
TORSDOF 9
ENDMDL
MODEL 10
REMARK VINA RESULT:      -2.2      3.110      7.259
REMARK  Name = 38029756
REMARK  13 active torsions:
REMARK  status: ('A' for Active; 'I' for Inactive)
REMARK    1  A    between atoms: S_1  and  N_7
REMARK    2  A    between atoms: S_1  and  C_21
REMARK    3  A    between atoms: O_3  and  C_20
REMARK    4  A    between atoms: O_3  and  C_22
REMARK    5  A    between atoms: N_7  and  C_15
REMARK    6  A    between atoms: C_8  and  C_12
REMARK    7  A    between atoms: C_9  and  C_15
REMARK    8  A    between atoms: C_11  and  C_16
REMARK    9  A    between atoms: C_12  and  C_17
REMARK   10  A    between atoms: C_12  and  C_18
REMARK   11  A    between atoms: C_13  and  C_19
REMARK   12  A    between atoms: C_16  and  C_20
REMARK   13  A    between atoms: C_22  and  C_25
REMARK                            x       y       z     vdW  Elec       q    Type
REMARK                         _______ _______ _______ _____ _____    ______ ____
ROOT
ATOM      8  C   UNL     1      -1.152   3.097  24.777  0.00  0.00    +0.000 C 
ATOM      9  C   UNL     1      -0.022   2.157  25.269  0.00  0.00    +0.030 C 
ATOM     10  C   UNL     1      -2.417   2.905  25.629  0.00  0.00    +0.012 C 
ATOM     11  C   UNL     1      -2.934   1.456  25.586  0.00  0.00    +0.025 C 
ATOM     13  C   UNL     1      -1.818   0.454  25.798  0.00  0.00    -0.073 C 
ATOM     14  C   UNL     1      -0.522   0.788  25.665  0.00  0.00    -0.023 C 
ATOM     19  C   UNL     1      -2.224  -0.934  26.212  0.00  0.00    +0.039 C 
ENDROOT
BRANCH   8  12
ATOM     12  C   UNL     1      -0.724   4.567  24.807  0.00  0.00    -0.013 C 
ATOM     17  C   UNL     1      -0.212   5.001  23.438  0.00  0.00    +0.007 C 
ATOM     18  C   UNL     1      -1.884   5.450  25.256  0.00  0.00    +0.007 C 
ENDBRANCH   8  12
BRANCH   9  15
ATOM     15  C   UNL     1       1.076   2.013  24.210  0.00  0.00    +0.113 C 
BRANCH  15   7
ATOM      7  N   UNL     1       0.522   1.327  23.032  0.00  0.00    -0.189 NA
ATOM     29  H   UNL     1      -0.437   1.582  22.769  0.00  0.00    +0.148 HD
BRANCH   7   1
ATOM      1  S   UNL     1       1.052  -0.241  22.625  0.00  0.00    +0.059 S 
ATOM      5  O   UNL     1       0.906  -0.438  21.195  0.00  0.00    -0.153 OA
ATOM      6  O   UNL     1       0.475  -1.193  23.555  0.00  0.00    -0.153 OA
BRANCH   1  21
ATOM      2  F   UNL     1       5.434  -2.212  24.368  0.00  0.00    -0.205 F 
ATOM     21  C   UNL     1       2.778  -0.143  22.988  0.00  0.00    +0.108 A 
ATOM     23  C   UNL     1       3.438  -1.238  23.546  0.00  0.00    +0.066 A 
ATOM     24  C   UNL     1       3.482   1.030  22.714  0.00  0.00    +0.029 A 
ATOM     26  C   UNL     1       4.802  -1.160  23.832  0.00  0.00    +0.125 A 
ATOM     27  C   UNL     1       4.846   1.108  22.999  0.00  0.00    +0.005 A 
ATOM     28  C   UNL     1       5.505   0.012  23.558  0.00  0.00    +0.038 A 
ENDBRANCH   1  21
ENDBRANCH   7   1
ENDBRANCH  15   7
ENDBRANCH   9  15
BRANCH  11  16
ATOM     16  C   UNL     1      -3.684   1.174  24.279  0.00  0.00    +0.128 C 
BRANCH  16  20
ATOM      4  O   UNL     1      -6.028   1.504  24.836  0.00  0.00    -0.251 OA
ATOM     20  C   UNL     1      -5.107   0.756  24.537  0.00  0.00    +0.308 C 
BRANCH  20   3
ATOM      3  O   UNL     1      -5.195  -0.599  24.379  0.00  0.00    -0.465 OA
BRANCH   3  22
ATOM     22  C   UNL     1      -4.169  -1.194  23.579  0.00  0.00    +0.229 C 
ATOM     25  C   UNL     1      -3.973  -2.631  24.016  0.00  0.00    +0.048 C 
ENDBRANCH   3  22
ENDBRANCH  20   3
ENDBRANCH  16  20
ENDBRANCH  11  16
TORSDOF 9
ENDMDL
