MODEL 1
REMARK VINA RESULT:       5.8      0.000      0.000
REMARK  Name = 40777397
REMARK  5 active torsions:
REMARK  status: ('A' for Active; 'I' for Inactive)
REMARK    1  A    between atoms: C_8  and  C_12
REMARK    2  A    between atoms: C_9  and  C_14
REMARK    3  A    between atoms: C_12  and  C_15
REMARK    4  A    between atoms: C_14  and  C_16
REMARK    5  A    between atoms: C_23  and  C_25
REMARK                            x       y       z     vdW  Elec       q    Type
REMARK                         _______ _______ _______ _____ _____    ______ ____
ROOT
ATOM      3  N   UNL     1      -6.616   3.431  25.800  0.00  0.00    -0.316 NA
ATOM      8  C   UNL     1      -4.249   1.709  25.428  0.00  0.00    +0.004 C 
ATOM      9  C   UNL     1      -4.166   3.253  25.446  0.00  0.00    +0.012 C 
ATOM     10  C   UNL     1      -5.499   1.266  26.207  0.00  0.00    +0.019 C 
ATOM     11  C   UNL     1      -5.487   3.900  24.998  0.00  0.00    +0.085 C 
ATOM     13  C   UNL     1      -6.765   1.978  25.733  0.00  0.00    +0.081 C 
ATOM     34  H   UNL     1      -7.473   3.873  25.468  0.00  0.00    +0.122 HD
ENDROOT
BRANCH   8  12
ATOM     12  C   UNL     1      -4.239   1.100  24.021  0.00  0.00    +0.100 C 
BRANCH  12  15
ATOM      1  O   UNL     1      -3.965  -1.254  24.166  0.00  0.00    -0.276 OA
ATOM      4  N   UNL     1      -2.039   0.001  23.825  0.00  0.00    -0.298 N 
ATOM      5  N   UNL     1       0.787   0.206  23.233  0.00  0.00    -0.312 N 
ATOM      7  N   UNL     1       2.944   1.036  23.717  0.00  0.00    -0.240 NA
ATOM     15  C   UNL     1      -3.412  -0.163  24.010  0.00  0.00    +0.216 C 
ATOM     17  C   UNL     1      -1.170  -1.172  23.808  0.00  0.00    +0.126 C 
ATOM     18  C   UNL     1      -1.386   1.298  23.630  0.00  0.00    +0.126 C 
ATOM     19  C   UNL     1       0.020  -0.988  22.868  0.00  0.00    +0.125 C 
ATOM     20  C   UNL     1       0.103   1.268  23.975  0.00  0.00    +0.125 C 
ATOM     22  C   UNL     1       2.138   0.308  22.911  0.00  0.00    +0.121 A 
ATOM     24  C   UNL     1       2.572  -0.350  21.772  0.00  0.00    +0.043 A 
ATOM     26  C   UNL     1       3.918  -0.258  21.438  0.00  0.00    +0.005 A 
ATOM     27  C   UNL     1       4.247   1.104  23.361  0.00  0.00    +0.113 A 
ATOM     30  C   UNL     1       4.778   0.482  22.243  0.00  0.00    +0.020 A 
ENDBRANCH  12  15
ENDBRANCH   8  12
BRANCH   9  14
ATOM     14  C   UNL     1      -2.995   3.800  24.626  0.00  0.00    +0.064 C 
BRANCH  14  16
ATOM      2  O   UNL     1       0.407   3.929  25.800  0.00  0.00    -0.354 OA
ATOM      6  N   UNL     1      -0.581   4.198  24.860  0.00  0.00    -0.083 NA
ATOM     16  C   UNL     1      -1.701   3.691  25.381  0.00  0.00    +0.085 A 
ATOM     21  C   UNL     1      -1.485   3.096  26.636  0.00  0.00    +0.076 A 
ATOM     23  C   UNL     1      -0.143   3.274  26.853  0.00  0.00    +0.167 A 
BRANCH  23  25
ATOM     25  C   UNL     1       0.760   2.927  27.911  0.00  0.00    +0.020 A 
ATOM     28  C   UNL     1       2.135   3.064  27.727  0.00  0.00    +0.011 A 
ATOM     29  C   UNL     1       0.263   2.454  29.126  0.00  0.00    +0.011 A 
ATOM     31  C   UNL     1       3.014   2.727  28.756  0.00  0.00    +0.001 A 
ATOM     32  C   UNL     1       1.141   2.116  30.155  0.00  0.00    +0.001 A 
ATOM     33  C   UNL     1       2.518   2.252  29.971  0.00  0.00    +0.000 A 
ENDBRANCH  23  25
ENDBRANCH  14  16
ENDBRANCH   9  14
TORSDOF 5
ENDMDL
MODEL 2
REMARK VINA RESULT:       7.6      2.850      4.854
REMARK  Name = 40777397
REMARK  5 active torsions:
REMARK  status: ('A' for Active; 'I' for Inactive)
REMARK    1  A    between atoms: C_8  and  C_12
REMARK    2  A    between atoms: C_9  and  C_14
REMARK    3  A    between atoms: C_12  and  C_15
REMARK    4  A    between atoms: C_14  and  C_16
REMARK    5  A    between atoms: C_23  and  C_25
REMARK                            x       y       z     vdW  Elec       q    Type
REMARK                         _______ _______ _______ _____ _____    ______ ____
ROOT
ATOM      3  N   UNL     1      -2.109   5.333  26.155  0.00  0.00    -0.316 NA
ATOM      8  C   UNL     1      -3.516   3.777  24.080  0.00  0.00    +0.004 C 
ATOM      9  C   UNL     1      -4.222   4.311  25.349  0.00  0.00    +0.012 C 
ATOM     10  C   UNL     1      -2.284   4.649  23.788  0.00  0.00    +0.019 C 
ATOM     11  C   UNL     1      -3.240   4.480  26.519  0.00  0.00    +0.085 C 
ATOM     13  C   UNL     1      -1.376   4.803  25.006  0.00  0.00    +0.081 C 
ATOM     34  H   UNL     1      -1.476   5.413  26.951  0.00  0.00    +0.122 HD
ENDROOT
BRANCH   8  12
ATOM     12  C   UNL     1      -3.129   2.295  24.160  0.00  0.00    +0.100 C 
BRANCH  12  15
ATOM      1  O   UNL     1      -2.967   2.056  21.803  0.00  0.00    -0.276 OA
ATOM      4  N   UNL     1      -1.163   1.296  23.055  0.00  0.00    -0.298 N 
ATOM      5  N   UNL     1       1.540   0.279  23.256  0.00  0.00    -0.312 N 
ATOM      7  N   UNL     1       3.099  -1.297  24.071  0.00  0.00    -0.240 NA
ATOM     15  C   UNL     1      -2.421   1.877  22.894  0.00  0.00    +0.216 C 
ATOM     17  C   UNL     1      -0.416   0.860  21.878  0.00  0.00    +0.126 C 
ATOM     18  C   UNL     1      -0.512   1.094  24.351  0.00  0.00    +0.126 C 
ATOM     19  C   UNL     1       1.091   1.013  22.070  0.00  0.00    +0.125 C 
ATOM     20  C   UNL     1       0.561   0.006  24.311  0.00  0.00    +0.125 C 
ATOM     22  C   UNL     1       2.853  -0.175  23.357  0.00  0.00    +0.121 A 
ATOM     24  C   UNL     1       3.831   0.563  22.711  0.00  0.00    +0.043 A 
ATOM     26  C   UNL     1       5.146   0.123  22.803  0.00  0.00    +0.005 A 
ATOM     27  C   UNL     1       4.389  -1.694  24.138  0.00  0.00    +0.113 A 
ATOM     30  C   UNL     1       5.439  -1.027  23.529  0.00  0.00    +0.020 A 
ENDBRANCH  12  15
ENDBRANCH   8  12
BRANCH   9  14
ATOM     14  C   UNL     1      -5.420   3.458  25.772  0.00  0.00    +0.064 C 
BRANCH  14  16
ATOM      2  O   UNL     1      -5.802   0.137  24.432  0.00  0.00    -0.354 OA
ATOM      6  N   UNL     1      -6.277   1.414  24.710  0.00  0.00    -0.083 NA
ATOM     16  C   UNL     1      -5.264   2.034  25.321  0.00  0.00    +0.085 A 
ATOM     21  C   UNL     1      -4.135   1.208  25.456  0.00  0.00    +0.076 A 
ATOM     23  C   UNL     1      -4.526   0.027  24.881  0.00  0.00    +0.167 A 
BRANCH  23  25
ATOM     25  C   UNL     1      -3.898  -1.244  24.664  0.00  0.00    +0.020 A 
ATOM     28  C   UNL     1      -2.658  -1.517  25.239  0.00  0.00    +0.011 A 
ATOM     29  C   UNL     1      -4.530  -2.208  23.878  0.00  0.00    +0.011 A 
ATOM     31  C   UNL     1      -2.047  -2.753  25.028  0.00  0.00    +0.001 A 
ATOM     32  C   UNL     1      -3.920  -3.445  23.666  0.00  0.00    +0.001 A 
ATOM     33  C   UNL     1      -2.678  -3.718  24.241  0.00  0.00    +0.000 A 
ENDBRANCH  23  25
ENDBRANCH  14  16
ENDBRANCH   9  14
TORSDOF 5
ENDMDL
MODEL 3
REMARK VINA RESULT:       7.7      2.134      5.518
REMARK  Name = 40777397
REMARK  5 active torsions:
REMARK  status: ('A' for Active; 'I' for Inactive)
REMARK    1  A    between atoms: C_8  and  C_12
REMARK    2  A    between atoms: C_9  and  C_14
REMARK    3  A    between atoms: C_12  and  C_15
REMARK    4  A    between atoms: C_14  and  C_16
REMARK    5  A    between atoms: C_23  and  C_25
REMARK                            x       y       z     vdW  Elec       q    Type
REMARK                         _______ _______ _______ _____ _____    ______ ____
ROOT
ATOM      3  N   UNL     1      -3.984  -0.294  26.496  0.00  0.00    -0.316 NA
ATOM      8  C   UNL     1      -4.284  -0.032  23.572  0.00  0.00    +0.004 C 
ATOM      9  C   UNL     1      -3.711  -1.302  24.244  0.00  0.00    +0.012 C 
ATOM     10  C   UNL     1      -5.180   0.708  24.580  0.00  0.00    +0.019 C 
ATOM     11  C   UNL     1      -3.057  -0.984  25.599  0.00  0.00    +0.085 C 
ATOM     13  C   UNL     1      -4.477   0.954  25.914  0.00  0.00    +0.081 C 
ATOM     34  H   UNL     1      -3.513  -0.091  27.378  0.00  0.00    +0.122 HD
ENDROOT
BRANCH   8  12
ATOM     12  C   UNL     1      -3.215   0.907  23.000  0.00  0.00    +0.100 C 
BRANCH  12  15
ATOM      1  O   UNL     1      -4.033   3.060  23.579  0.00  0.00    -0.276 OA
ATOM      4  N   UNL     1      -2.153   2.315  24.725  0.00  0.00    -0.298 N 
ATOM      5  N   UNL     1      -0.197   2.584  26.842  0.00  0.00    -0.312 N 
ATOM      7  N   UNL     1       2.041   2.633  27.592  0.00  0.00    -0.240 NA
ATOM     15  C   UNL     1      -3.181   2.193  23.789  0.00  0.00    +0.216 C 
ATOM     17  C   UNL     1      -2.049   3.532  25.526  0.00  0.00    +0.126 C 
ATOM     18  C   UNL     1      -1.149   1.280  24.981  0.00  0.00    +0.126 C 
ATOM     19  C   UNL     1      -1.499   3.251  26.922  0.00  0.00    +0.125 C 
ATOM     20  C   UNL     1       0.121   1.834  25.624  0.00  0.00    +0.125 C 
ATOM     22  C   UNL     1       0.722   2.692  27.883  0.00  0.00    +0.121 A 
ATOM     24  C   UNL     1       0.217   2.854  29.162  0.00  0.00    +0.043 A 
ATOM     26  C   UNL     1       1.122   2.964  30.211  0.00  0.00    +0.005 A 
ATOM     27  C   UNL     1       2.892   2.742  28.637  0.00  0.00    +0.113 A 
ATOM     30  C   UNL     1       2.487   2.907  29.952  0.00  0.00    +0.020 A 
ENDBRANCH  12  15
ENDBRANCH   8  12
BRANCH   9  14
ATOM     14  C   UNL     1      -2.739  -2.069  23.346  0.00  0.00    +0.064 C 
BRANCH  14  16
ATOM      2  O   UNL     1       0.505  -1.604  24.839  0.00  0.00    -0.354 OA
ATOM      6  N   UNL     1      -0.813  -2.045  24.872  0.00  0.00    -0.083 NA
ATOM     16  C   UNL     1      -1.312  -1.734  23.673  0.00  0.00    +0.085 A 
ATOM     21  C   UNL     1      -0.366  -1.101  22.849  0.00  0.00    +0.076 A 
ATOM     23  C   UNL     1       0.759  -1.044  23.629  0.00  0.00    +0.167 A 
BRANCH  23  25
ATOM     25  C   UNL     1       2.088  -0.539  23.445  0.00  0.00    +0.020 A 
ATOM     28  C   UNL     1       3.187  -1.314  23.815  0.00  0.00    +0.011 A 
ATOM     29  C   UNL     1       2.283   0.728  22.894  0.00  0.00    +0.011 A 
ATOM     31  C   UNL     1       4.480  -0.823  23.635  0.00  0.00    +0.001 A 
ATOM     32  C   UNL     1       3.576   1.220  22.715  0.00  0.00    +0.001 A 
ATOM     33  C   UNL     1       4.675   0.445  23.086  0.00  0.00    +0.000 A 
ENDBRANCH  23  25
ENDBRANCH  14  16
ENDBRANCH   9  14
TORSDOF 5
ENDMDL
MODEL 4
REMARK VINA RESULT:       9.6      2.355      4.772
REMARK  Name = 40777397
REMARK  5 active torsions:
REMARK  status: ('A' for Active; 'I' for Inactive)
REMARK    1  A    between atoms: C_8  and  C_12
REMARK    2  A    between atoms: C_9  and  C_14
REMARK    3  A    between atoms: C_12  and  C_15
REMARK    4  A    between atoms: C_14  and  C_16
REMARK    5  A    between atoms: C_23  and  C_25
REMARK                            x       y       z     vdW  Elec       q    Type
REMARK                         _______ _______ _______ _____ _____    ______ ____
ROOT
ATOM      3  N   UNL     1      -5.982   2.854  26.080  0.00  0.00    -0.316 NA
ATOM      8  C   UNL     1      -4.709   5.213  24.848  0.00  0.00    +0.004 C 
ATOM      9  C   UNL     1      -4.895   3.874  24.096  0.00  0.00    +0.012 C 
ATOM     10  C   UNL     1      -5.762   5.311  25.964  0.00  0.00    +0.019 C 
ATOM     11  C   UNL     1      -4.946   2.680  25.063  0.00  0.00    +0.085 C 
ATOM     13  C   UNL     1      -5.781   4.074  26.860  0.00  0.00    +0.081 C 
ATOM     34  H   UNL     1      -5.979   2.049  26.707  0.00  0.00    +0.122 HD
ENDROOT
BRANCH   8  12
ATOM     12  C   UNL     1      -3.297   5.422  25.410  0.00  0.00    +0.100 C 
BRANCH  12  15
ATOM      1  O   UNL     1      -3.387   3.748  27.092  0.00  0.00    -0.276 OA
ATOM      4  N   UNL     1      -1.721   3.527  25.487  0.00  0.00    -0.298 N 
ATOM      5  N   UNL     1       0.404   2.020  24.223  0.00  0.00    -0.312 N 
ATOM      7  N   UNL     1       2.613   1.852  23.405  0.00  0.00    -0.240 NA
ATOM     15  C   UNL     1      -2.815   4.158  26.079  0.00  0.00    +0.216 C 
ATOM     17  C   UNL     1      -1.191   2.300  26.077  0.00  0.00    +0.126 C 
ATOM     18  C   UNL     1      -1.050   4.009  24.278  0.00  0.00    +0.126 C 
ATOM     19  C   UNL     1      -0.630   1.353  25.019  0.00  0.00    +0.125 C 
ATOM     20  C   UNL     1       0.379   3.483  24.144  0.00  0.00    +0.125 C 
ATOM     22  C   UNL     1       1.401   1.282  23.590  0.00  0.00    +0.121 A 
ATOM     24  C   UNL     1       1.079  -0.005  23.187  0.00  0.00    +0.043 A 
ATOM     26  C   UNL     1       2.064  -0.754  22.554  0.00  0.00    +0.005 A 
ATOM     27  C   UNL     1       3.545   1.094  22.786  0.00  0.00    +0.113 A 
ATOM     30  C   UNL     1       3.323  -0.202  22.346  0.00  0.00    +0.020 A 
ENDBRANCH  12  15
ENDBRANCH   8  12
BRANCH   9  14
ATOM     14  C   UNL     1      -3.839   3.643  23.013  0.00  0.00    +0.064 C 
BRANCH  14  16
ATOM      2  O   UNL     1      -2.280   0.465  22.353  0.00  0.00    -0.354 OA
ATOM      6  N   UNL     1      -2.481   1.815  22.090  0.00  0.00    -0.083 NA
ATOM     16  C   UNL     1      -3.376   2.215  22.996  0.00  0.00    +0.085 A 
ATOM     21  C   UNL     1      -3.774   1.172  23.851  0.00  0.00    +0.076 A 
ATOM     23  C   UNL     1      -3.055   0.094  23.404  0.00  0.00    +0.167 A 
BRANCH  23  25
ATOM     25  C   UNL     1      -2.954  -1.282  23.795  0.00  0.00    +0.020 A 
ATOM     28  C   UNL     1      -4.091  -2.090  23.803  0.00  0.00    +0.011 A 
ATOM     29  C   UNL     1      -1.719  -1.813  24.168  0.00  0.00    +0.011 A 
ATOM     31  C   UNL     1      -3.993  -3.428  24.184  0.00  0.00    +0.001 A 
ATOM     32  C   UNL     1      -1.620  -3.150  24.549  0.00  0.00    +0.001 A 
ATOM     33  C   UNL     1      -2.758  -3.959  24.557  0.00  0.00    +0.000 A 
ENDBRANCH  23  25
ENDBRANCH  14  16
ENDBRANCH   9  14
TORSDOF 5
ENDMDL
