MODEL 1
REMARK VINA RESULT:      -4.2      0.000      0.000
REMARK  Name = 75536871
REMARK  6 active torsions:
REMARK  status: ('A' for Active; 'I' for Inactive)
REMARK    1  A    between atoms: O_5  and  C_10
REMARK    2  A    between atoms: O_5  and  C_16
REMARK    3  A    between atoms: N_6  and  C_13
REMARK    4  A    between atoms: N_7  and  C_21
REMARK    5  A    between atoms: C_13  and  C_15
REMARK    6  A    between atoms: C_24  and  C_25
REMARK                            x       y       z     vdW  Elec       q    Type
REMARK                         _______ _______ _______ _____ _____    ______ ____
ROOT
ATOM      4  O   UNL     1      -5.213   3.439  26.570  0.00  0.00    -0.375 OA
ATOM      6  N   UNL     1      -4.860   0.999  25.083  0.00  0.00    -0.292 NA
ATOM      9  C   UNL     1      -3.965   1.875  24.326  0.00  0.00    +0.131 C 
ATOM     10  C   UNL     1      -3.213   2.831  25.260  0.00  0.00    +0.213 C 
ATOM     11  C   UNL     1      -6.188   1.566  25.343  0.00  0.00    +0.113 C 
ATOM     12  C   UNL     1      -4.060   3.930  25.896  0.00  0.00    +0.205 C 
ATOM     14  C   UNL     1      -6.243   3.057  25.666  0.00  0.00    +0.175 C 
ENDROOT
BRANCH  10   5
ATOM      5  O   UNL     1      -2.165   3.446  24.509  0.00  0.00    -0.485 OA
BRANCH   5  16
ATOM     16  C   UNL     1      -1.166   2.623  24.067  0.00  0.00    +0.121 A 
ATOM     19  C   UNL     1      -1.433   1.663  23.092  0.00  0.00    +0.046 A 
ATOM     20  C   UNL     1       0.121   2.744  24.594  0.00  0.00    +0.046 A 
ATOM     22  C   UNL     1      -0.414   0.824  22.642  0.00  0.00    +0.016 A 
ATOM     23  C   UNL     1       1.140   1.905  24.145  0.00  0.00    +0.016 A 
ATOM     24  C   UNL     1       0.872   0.944  23.169  0.00  0.00    +0.055 A 
BRANCH  24  25
ATOM      1  F   UNL     1       2.162  -1.047  23.484  0.00  0.00    -0.166 F 
ATOM      2  F   UNL     1       3.181   0.658  22.613  0.00  0.00    -0.166 F 
ATOM      3  F   UNL     1       1.723  -0.449  21.440  0.00  0.00    -0.166 F 
ATOM     25  C   UNL     1       1.962   0.046  22.689  0.00  0.00    +0.417 C 
ENDBRANCH  24  25
ENDBRANCH   5  16
ENDBRANCH  10   5
BRANCH   6  13
ATOM     13  C   UNL     1      -4.991  -0.312  24.448  0.00  0.00    +0.122 C 
BRANCH  13  15
ATOM      7  N   UNL     1      -1.701  -1.810  25.002  0.00  0.00    -0.274 N 
ATOM      8  N   UNL     1      -2.269  -2.873  24.408  0.00  0.00    -0.180 NA
ATOM     15  C   UNL     1      -3.729  -1.124  24.572  0.00  0.00    +0.004 A 
ATOM     17  C   UNL     1      -2.532  -0.736  25.125  0.00  0.00    +0.112 A 
ATOM     18  C   UNL     1      -3.507  -2.447  24.148  0.00  0.00    +0.139 A 
ATOM     21  C   UNL     1      -0.327  -1.883  25.442  0.00  0.00    +0.172 C 
ENDBRANCH  13  15
ENDBRANCH   6  13
TORSDOF 5
ENDMDL
MODEL 2
REMARK VINA RESULT:      -3.9      3.352      5.271
REMARK  Name = 75536871
REMARK  6 active torsions:
REMARK  status: ('A' for Active; 'I' for Inactive)
REMARK    1  A    between atoms: O_5  and  C_10
REMARK    2  A    between atoms: O_5  and  C_16
REMARK    3  A    between atoms: N_6  and  C_13
REMARK    4  A    between atoms: N_7  and  C_21
REMARK    5  A    between atoms: C_13  and  C_15
REMARK    6  A    between atoms: C_24  and  C_25
REMARK                            x       y       z     vdW  Elec       q    Type
REMARK                         _______ _______ _______ _____ _____    ______ ____
ROOT
ATOM      4  O   UNL     1      -1.684  -3.209  23.867  0.00  0.00    -0.375 OA
ATOM      6  N   UNL     1      -3.719  -1.198  24.192  0.00  0.00    -0.292 NA
ATOM      9  C   UNL     1      -2.678  -0.630  25.049  0.00  0.00    +0.131 C 
ATOM     10  C   UNL     1      -1.288  -0.842  24.439  0.00  0.00    +0.213 C 
ATOM     11  C   UNL     1      -3.988  -2.622  24.425  0.00  0.00    +0.113 C 
ATOM     12  C   UNL     1      -0.778  -2.281  24.452  0.00  0.00    +0.205 C 
ATOM     14  C   UNL     1      -2.779  -3.505  24.726  0.00  0.00    +0.175 C 
ENDROOT
BRANCH  10   5
ATOM      5  O   UNL     1      -0.362  -0.028  25.161  0.00  0.00    -0.485 OA
BRANCH   5  16
ATOM     16  C   UNL     1      -0.558   1.324  25.097  0.00  0.00    +0.121 A 
ATOM     19  C   UNL     1      -0.218   2.024  23.941  0.00  0.00    +0.046 A 
ATOM     20  C   UNL     1      -1.100   2.001  26.190  0.00  0.00    +0.046 A 
ATOM     22  C   UNL     1      -0.417   3.403  23.877  0.00  0.00    +0.016 A 
ATOM     23  C   UNL     1      -1.300   3.380  26.126  0.00  0.00    +0.016 A 
ATOM     24  C   UNL     1      -0.958   4.081  24.969  0.00  0.00    +0.055 A 
BRANCH  24  25
ATOM      1  F   UNL     1      -1.961   6.041  25.906  0.00  0.00    -0.166 F 
ATOM      2  F   UNL     1      -1.771   5.969  23.746  0.00  0.00    -0.166 F 
ATOM      3  F   UNL     1      -0.005   6.260  24.981  0.00  0.00    -0.166 F 
ATOM     25  C   UNL     1      -1.172   5.555  24.902  0.00  0.00    +0.417 C 
ENDBRANCH  24  25
ENDBRANCH   5  16
ENDBRANCH  10   5
BRANCH   6  13
ATOM     13  C   UNL     1      -4.963  -0.433  24.278  0.00  0.00    +0.122 C 
BRANCH  13  15
ATOM      7  N   UNL     1      -4.679   3.145  24.977  0.00  0.00    -0.274 N 
ATOM      8  N   UNL     1      -3.905   3.129  23.878  0.00  0.00    -0.180 NA
ATOM     15  C   UNL     1      -4.705   1.047  24.371  0.00  0.00    +0.004 A 
ATOM     17  C   UNL     1      -5.183   1.924  25.315  0.00  0.00    +0.112 A 
ATOM     18  C   UNL     1      -3.926   1.845  23.513  0.00  0.00    +0.139 A 
ATOM     21  C   UNL     1      -4.905   4.388  25.677  0.00  0.00    +0.172 C 
ENDBRANCH  13  15
ENDBRANCH   6  13
TORSDOF 5
ENDMDL
MODEL 3
REMARK VINA RESULT:      -3.7      2.892      4.906
REMARK  Name = 75536871
REMARK  6 active torsions:
REMARK  status: ('A' for Active; 'I' for Inactive)
REMARK    1  A    between atoms: O_5  and  C_10
REMARK    2  A    between atoms: O_5  and  C_16
REMARK    3  A    between atoms: N_6  and  C_13
REMARK    4  A    between atoms: N_7  and  C_21
REMARK    5  A    between atoms: C_13  and  C_15
REMARK    6  A    between atoms: C_24  and  C_25
REMARK                            x       y       z     vdW  Elec       q    Type
REMARK                         _______ _______ _______ _____ _____    ______ ____
ROOT
ATOM      4  O   UNL     1      -2.877   5.705  23.984  0.00  0.00    -0.375 OA
ATOM      6  N   UNL     1      -1.029   3.677  24.856  0.00  0.00    -0.292 NA
ATOM      9  C   UNL     1      -2.287   3.043  25.251  0.00  0.00    +0.131 C 
ATOM     10  C   UNL     1      -3.383   3.301  24.210  0.00  0.00    +0.213 C 
ATOM     11  C   UNL     1      -0.898   5.078  25.271  0.00  0.00    +0.113 C 
ATOM     12  C   UNL     1      -3.904   4.734  24.146  0.00  0.00    +0.205 C 
ATOM     14  C   UNL     1      -2.159   5.935  25.191  0.00  0.00    +0.175 C 
ENDROOT
BRANCH  10   5
ATOM      5  O   UNL     1      -4.480   2.433  24.501  0.00  0.00    -0.485 OA
BRANCH   5  16
ATOM     16  C   UNL     1      -4.209   1.093  24.525  0.00  0.00    +0.121 A 
ATOM     19  C   UNL     1      -4.289   0.386  25.724  0.00  0.00    +0.046 A 
ATOM     20  C   UNL     1      -3.852   0.433  23.348  0.00  0.00    +0.046 A 
ATOM     22  C   UNL     1      -4.011  -0.980  25.748  0.00  0.00    +0.016 A 
ATOM     23  C   UNL     1      -3.575  -0.933  23.371  0.00  0.00    +0.016 A 
ATOM     24  C   UNL     1      -3.654  -1.640  24.572  0.00  0.00    +0.055 A 
BRANCH  24  25
ATOM      1  F   UNL     1      -2.120  -3.417  24.110  0.00  0.00    -0.166 F 
ATOM      2  F   UNL     1      -4.231  -3.850  23.860  0.00  0.00    -0.166 F 
ATOM      3  F   UNL     1      -3.400  -3.625  25.856  0.00  0.00    -0.166 F 
ATOM     25  C   UNL     1      -3.358  -3.101  24.596  0.00  0.00    +0.417 C 
ENDBRANCH  24  25
ENDBRANCH   5  16
ENDBRANCH  10   5
BRANCH   6  13
ATOM     13  C   UNL     1       0.127   2.908  25.318  0.00  0.00    +0.122 C 
BRANCH  13  15
ATOM      7  N   UNL     1       0.979   0.144  23.080  0.00  0.00    -0.274 N 
ATOM      8  N   UNL     1       0.056  -0.509  23.806  0.00  0.00    -0.180 NA
ATOM     15  C   UNL     1       0.315   1.644  24.521  0.00  0.00    +0.004 A 
ATOM     17  C   UNL     1       1.172   1.437  23.467  0.00  0.00    +0.112 A 
ATOM     18  C   UNL     1      -0.345   0.413  24.684  0.00  0.00    +0.139 A 
ATOM     21  C   UNL     1       1.659  -0.537  22.003  0.00  0.00    +0.172 C 
ENDBRANCH  13  15
ENDBRANCH   6  13
TORSDOF 5
ENDMDL
MODEL 4
REMARK VINA RESULT:      -3.6      4.181      6.431
REMARK  Name = 75536871
REMARK  6 active torsions:
REMARK  status: ('A' for Active; 'I' for Inactive)
REMARK    1  A    between atoms: O_5  and  C_10
REMARK    2  A    between atoms: O_5  and  C_16
REMARK    3  A    between atoms: N_6  and  C_13
REMARK    4  A    between atoms: N_7  and  C_21
REMARK    5  A    between atoms: C_13  and  C_15
REMARK    6  A    between atoms: C_24  and  C_25
REMARK                            x       y       z     vdW  Elec       q    Type
REMARK                         _______ _______ _______ _____ _____    ______ ____
ROOT
ATOM      4  O   UNL     1      -2.089  -3.264  24.453  0.00  0.00    -0.375 OA
ATOM      6  N   UNL     1      -1.325  -0.848  25.819  0.00  0.00    -0.292 NA
ATOM      9  C   UNL     1      -2.480  -0.349  25.073  0.00  0.00    +0.131 C 
ATOM     10  C   UNL     1      -3.597  -1.397  25.024  0.00  0.00    +0.213 C 
ATOM     11  C   UNL     1      -0.371  -1.622  25.016  0.00  0.00    +0.113 C 
ATOM     12  C   UNL     1      -3.318  -2.615  24.147  0.00  0.00    +0.205 C 
ATOM     14  C   UNL     1      -0.964  -2.548  23.957  0.00  0.00    +0.175 C 
ENDROOT
BRANCH  10   5
ATOM      5  O   UNL     1      -4.781  -0.758  24.544  0.00  0.00    -0.485 OA
BRANCH   5  16
ATOM     16  C   UNL     1      -4.853   0.598  24.711  0.00  0.00    +0.121 A 
ATOM     19  C   UNL     1      -4.086   1.441  23.907  0.00  0.00    +0.046 A 
ATOM     20  C   UNL     1      -5.694   1.136  25.685  0.00  0.00    +0.046 A 
ATOM     22  C   UNL     1      -4.159   2.823  24.079  0.00  0.00    +0.016 A 
ATOM     23  C   UNL     1      -5.767   2.519  25.857  0.00  0.00    +0.016 A 
ATOM     24  C   UNL     1      -4.999   3.362  25.053  0.00  0.00    +0.055 A 
BRANCH  24  25
ATOM      1  F   UNL     1      -6.327   5.285  25.565  0.00  0.00    -0.166 F 
ATOM      2  F   UNL     1      -4.728   5.550  24.124  0.00  0.00    -0.166 F 
ATOM      3  F   UNL     1      -4.257   5.290  26.231  0.00  0.00    -0.166 F 
ATOM     25  C   UNL     1      -5.078   4.840  25.237  0.00  0.00    +0.417 C 
ENDBRANCH  24  25
ENDBRANCH   5  16
ENDBRANCH  10   5
BRANCH   6  13
ATOM     13  C   UNL     1      -0.629   0.233  26.517  0.00  0.00    +0.122 C 
BRANCH  13  15
ATOM      7  N   UNL     1      -0.871   3.575  25.053  0.00  0.00    -0.274 N 
ATOM      8  N   UNL     1      -0.331   2.965  23.985  0.00  0.00    -0.180 NA
ATOM     15  C   UNL     1      -0.632   1.509  25.719  0.00  0.00    +0.004 A 
ATOM     17  C   UNL     1      -1.072   2.748  26.119  0.00  0.00    +0.112 A 
ATOM     18  C   UNL     1      -0.188   1.704  24.398  0.00  0.00    +0.139 A 
ATOM     21  C   UNL     1      -1.181   4.985  24.994  0.00  0.00    +0.172 C 
ENDBRANCH  13  15
ENDBRANCH   6  13
TORSDOF 5
ENDMDL
MODEL 5
REMARK VINA RESULT:      -2.9      2.485      3.682
REMARK  Name = 75536871
REMARK  6 active torsions:
REMARK  status: ('A' for Active; 'I' for Inactive)
REMARK    1  A    between atoms: O_5  and  C_10
REMARK    2  A    between atoms: O_5  and  C_16
REMARK    3  A    between atoms: N_6  and  C_13
REMARK    4  A    between atoms: N_7  and  C_21
REMARK    5  A    between atoms: C_13  and  C_15
REMARK    6  A    between atoms: C_24  and  C_25
REMARK                            x       y       z     vdW  Elec       q    Type
REMARK                         _______ _______ _______ _____ _____    ______ ____
ROOT
ATOM      4  O   UNL     1      -1.715   5.992  25.070  0.00  0.00    -0.375 OA
ATOM      6  N   UNL     1      -3.463   3.720  25.335  0.00  0.00    -0.292 NA
ATOM      9  C   UNL     1      -2.265   3.046  24.834  0.00  0.00    +0.131 C 
ATOM     10  C   UNL     1      -0.997   3.661  25.437  0.00  0.00    +0.213 C 
ATOM     11  C   UNL     1      -3.850   4.915  24.576  0.00  0.00    +0.113 C 
ATOM     12  C   UNL     1      -0.646   5.062  24.942  0.00  0.00    +0.205 C 
ATOM     14  C   UNL     1      -2.715   5.803  24.075  0.00  0.00    +0.175 C 
ENDROOT
BRANCH  10   5
ATOM      5  O   UNL     1       0.097   2.791  25.142  0.00  0.00    -0.485 OA
BRANCH   5  16
ATOM     16  C   UNL     1      -0.191   1.457  25.050  0.00  0.00    +0.121 A 
ATOM     19  C   UNL     1       0.216   0.731  23.931  0.00  0.00    +0.046 A 
ATOM     20  C   UNL     1      -0.893   0.823  26.076  0.00  0.00    +0.046 A 
ATOM     22  C   UNL     1      -0.079  -0.629  23.837  0.00  0.00    +0.016 A 
ATOM     23  C   UNL     1      -1.188  -0.537  25.982  0.00  0.00    +0.016 A 
ATOM     24  C   UNL     1      -0.781  -1.263  24.862  0.00  0.00    +0.055 A 
BRANCH  24  25
ATOM      1  F   UNL     1      -1.188  -3.171  23.478  0.00  0.00    -0.166 F 
ATOM      2  F   UNL     1      -2.283  -3.061  25.347  0.00  0.00    -0.166 F 
ATOM      3  F   UNL     1      -0.154  -3.501  25.362  0.00  0.00    -0.166 F 
ATOM     25  C   UNL     1      -1.097  -2.717  24.763  0.00  0.00    +0.417 C 
ENDBRANCH  24  25
ENDBRANCH   5  16
ENDBRANCH  10   5
BRANCH   6  13
ATOM     13  C   UNL     1      -4.596   2.800  25.431  0.00  0.00    +0.122 C 
BRANCH  13  15
ATOM      7  N   UNL     1      -4.282  -0.579  24.068  0.00  0.00    -0.274 N 
ATOM      8  N   UNL     1      -3.555   0.047  23.127  0.00  0.00    -0.180 NA
ATOM     15  C   UNL     1      -4.336   1.511  24.697  0.00  0.00    +0.004 A 
ATOM     17  C   UNL     1      -4.772   0.252  25.032  0.00  0.00    +0.112 A 
ATOM     18  C   UNL     1      -3.592   1.324  23.517  0.00  0.00    +0.139 A 
ATOM     21  C   UNL     1      -4.476  -2.008  23.991  0.00  0.00    +0.172 C 
ENDBRANCH  13  15
ENDBRANCH   6  13
TORSDOF 5
ENDMDL
MODEL 6
REMARK VINA RESULT:      -2.7      1.522      2.003
REMARK  Name = 75536871
REMARK  6 active torsions:
REMARK  status: ('A' for Active; 'I' for Inactive)
REMARK    1  A    between atoms: O_5  and  C_10
REMARK    2  A    between atoms: O_5  and  C_16
REMARK    3  A    between atoms: N_6  and  C_13
REMARK    4  A    between atoms: N_7  and  C_21
REMARK    5  A    between atoms: C_13  and  C_15
REMARK    6  A    between atoms: C_24  and  C_25
REMARK                            x       y       z     vdW  Elec       q    Type
REMARK                         _______ _______ _______ _____ _____    ______ ____
ROOT
ATOM      4  O   UNL     1      -3.355   4.788  24.723  0.00  0.00    -0.375 OA
ATOM      6  N   UNL     1      -4.403   2.111  24.870  0.00  0.00    -0.292 NA
ATOM      9  C   UNL     1      -2.981   1.825  25.062  0.00  0.00    +0.131 C 
ATOM     10  C   UNL     1      -2.316   2.903  25.927  0.00  0.00    +0.213 C 
ATOM     11  C   UNL     1      -4.696   2.999  23.740  0.00  0.00    +0.113 C 
ATOM     12  C   UNL     1      -2.147   4.266  25.262  0.00  0.00    +0.205 C 
ATOM     14  C   UNL     1      -3.721   4.150  23.504  0.00  0.00    +0.175 C 
ENDROOT
BRANCH  10   5
ATOM      5  O   UNL     1      -1.026   2.424  26.312  0.00  0.00    -0.485 OA
BRANCH   5  16
ATOM     16  C   UNL     1      -0.294   1.794  25.343  0.00  0.00    +0.121 A 
ATOM     19  C   UNL     1      -0.488   0.436  25.095  0.00  0.00    +0.046 A 
ATOM     20  C   UNL     1       0.646   2.512  24.603  0.00  0.00    +0.046 A 
ATOM     22  C   UNL     1       0.259  -0.206  24.108  0.00  0.00    +0.016 A 
ATOM     23  C   UNL     1       1.393   1.871  23.616  0.00  0.00    +0.016 A 
ATOM     24  C   UNL     1       1.200   0.511  23.368  0.00  0.00    +0.055 A 
BRANCH  24  25
ATOM      1  F   UNL     1       2.948   0.624  21.738  0.00  0.00    -0.166 F 
ATOM      2  F   UNL     1       1.248  -0.639  21.271  0.00  0.00    -0.166 F 
ATOM      3  F   UNL     1       2.676  -1.261  22.788  0.00  0.00    -0.166 F 
ATOM     25  C   UNL     1       2.000  -0.174  22.312  0.00  0.00    +0.417 C 
ENDBRANCH  24  25
ENDBRANCH   5  16
ENDBRANCH  10   5
BRANCH   6  13
ATOM     13  C   UNL     1      -5.187   0.881  24.756  0.00  0.00    +0.122 C 
BRANCH  13  15
ATOM      7  N   UNL     1      -3.143  -2.138  24.467  0.00  0.00    -0.274 N 
ATOM      8  N   UNL     1      -3.062  -2.010  25.803  0.00  0.00    -0.180 NA
ATOM     15  C   UNL     1      -4.324  -0.347  24.876  0.00  0.00    +0.004 A 
ATOM     17  C   UNL     1      -3.888  -1.169  23.864  0.00  0.00    +0.112 A 
ATOM     18  C   UNL     1      -3.785  -0.914  26.045  0.00  0.00    +0.139 A 
ATOM     21  C   UNL     1      -2.472  -3.235  23.810  0.00  0.00    +0.172 C 
ENDBRANCH  13  15
ENDBRANCH   6  13
TORSDOF 5
ENDMDL
MODEL 7
REMARK VINA RESULT:      -2.7      3.770      6.020
REMARK  Name = 75536871
REMARK  6 active torsions:
REMARK  status: ('A' for Active; 'I' for Inactive)
REMARK    1  A    between atoms: O_5  and  C_10
REMARK    2  A    between atoms: O_5  and  C_16
REMARK    3  A    between atoms: N_6  and  C_13
REMARK    4  A    between atoms: N_7  and  C_21
REMARK    5  A    between atoms: C_13  and  C_15
REMARK    6  A    between atoms: C_24  and  C_25
REMARK                            x       y       z     vdW  Elec       q    Type
REMARK                         _______ _______ _______ _____ _____    ______ ____
ROOT
ATOM      4  O   UNL     1       2.104   0.359  22.530  0.00  0.00    -0.375 OA
ATOM      6  N   UNL     1       0.168  -0.952  24.209  0.00  0.00    -0.292 NA
ATOM      9  C   UNL     1       0.095   0.399  24.767  0.00  0.00    +0.131 C 
ATOM     10  C   UNL     1       0.205   1.455  23.661  0.00  0.00    +0.213 C 
ATOM     11  C   UNL     1       1.531  -1.469  24.045  0.00  0.00    +0.113 C 
ATOM     12  C   UNL     1       1.582   1.590  23.016  0.00  0.00    +0.205 C 
ATOM     14  C   UNL     1       2.588  -0.471  23.580  0.00  0.00    +0.175 C 
ENDROOT
BRANCH  10   5
ATOM      5  O   UNL     1      -0.157   2.718  24.221  0.00  0.00    -0.485 OA
BRANCH   5  16
ATOM     16  C   UNL     1      -1.475   2.886  24.547  0.00  0.00    +0.121 A 
ATOM     19  C   UNL     1      -1.825   3.401  25.795  0.00  0.00    +0.046 A 
ATOM     20  C   UNL     1      -2.469   2.542  23.630  0.00  0.00    +0.046 A 
ATOM     22  C   UNL     1      -3.169   3.572  26.127  0.00  0.00    +0.016 A 
ATOM     23  C   UNL     1      -3.813   2.713  23.962  0.00  0.00    +0.016 A 
ATOM     24  C   UNL     1      -4.163   3.227  25.211  0.00  0.00    +0.055 A 
BRANCH  24  25
ATOM      1  F   UNL     1      -6.459   2.789  24.702  0.00  0.00    -0.166 F 
ATOM      2  F   UNL     1      -5.998   4.716  25.585  0.00  0.00    -0.166 F 
ATOM      3  F   UNL     1      -5.903   2.916  26.801  0.00  0.00    -0.166 F 
ATOM     25  C   UNL     1      -5.600   3.409  25.565  0.00  0.00    +0.417 C 
ENDBRANCH  24  25
ENDBRANCH   5  16
ENDBRANCH  10   5
BRANCH   6  13
ATOM     13  C   UNL     1      -0.635  -1.897  24.987  0.00  0.00    +0.122 C 
BRANCH  13  15
ATOM      7  N   UNL     1      -4.150  -1.015  24.497  0.00  0.00    -0.274 N 
ATOM      8  N   UNL     1      -4.225  -2.266  24.013  0.00  0.00    -0.180 NA
ATOM     15  C   UNL     1      -2.106  -1.756  24.696  0.00  0.00    +0.004 A 
ATOM     17  C   UNL     1      -2.903  -0.659  24.920  0.00  0.00    +0.112 A 
ATOM     18  C   UNL     1      -2.972  -2.713  24.137  0.00  0.00    +0.139 A 
ATOM     21  C   UNL     1      -5.333  -0.187  24.531  0.00  0.00    +0.172 C 
ENDBRANCH  13  15
ENDBRANCH   6  13
TORSDOF 5
ENDMDL
MODEL 8
REMARK VINA RESULT:      -1.3      3.150      4.885
REMARK  Name = 75536871
REMARK  6 active torsions:
REMARK  status: ('A' for Active; 'I' for Inactive)
REMARK    1  A    between atoms: O_5  and  C_10
REMARK    2  A    between atoms: O_5  and  C_16
REMARK    3  A    between atoms: N_6  and  C_13
REMARK    4  A    between atoms: N_7  and  C_21
REMARK    5  A    between atoms: C_13  and  C_15
REMARK    6  A    between atoms: C_24  and  C_25
REMARK                            x       y       z     vdW  Elec       q    Type
REMARK                         _______ _______ _______ _____ _____    ______ ____
ROOT
ATOM      4  O   UNL     1      -0.326   5.472  24.701  0.00  0.00    -0.375 OA
ATOM      6  N   UNL     1      -2.425   4.121  26.135  0.00  0.00    -0.292 NA
ATOM      9  C   UNL     1      -1.786   2.968  25.499  0.00  0.00    +0.131 C 
ATOM     10  C   UNL     1      -0.262   3.130  25.474  0.00  0.00    +0.213 C 
ATOM     11  C   UNL     1      -2.700   5.240  25.228  0.00  0.00    +0.113 C 
ATOM     12  C   UNL     1       0.270   4.193  24.516  0.00  0.00    +0.205 C 
ATOM     14  C   UNL     1      -1.643   5.534  24.165  0.00  0.00    +0.175 C 
ENDROOT
BRANCH  10   5
ATOM      5  O   UNL     1       0.309   1.871  25.113  0.00  0.00    -0.485 OA
BRANCH   5  16
ATOM     16  C   UNL     1      -0.562   0.827  24.961  0.00  0.00    +0.121 A 
ATOM     19  C   UNL     1      -1.161   0.593  23.724  0.00  0.00    +0.046 A 
ATOM     20  C   UNL     1      -0.850  -0.002  26.045  0.00  0.00    +0.046 A 
ATOM     22  C   UNL     1      -2.049  -0.472  23.571  0.00  0.00    +0.016 A 
ATOM     23  C   UNL     1      -1.738  -1.067  25.892  0.00  0.00    +0.016 A 
ATOM     24  C   UNL     1      -2.338  -1.301  24.654  0.00  0.00    +0.055 A 
BRANCH  24  25
ATOM      1  F   UNL     1      -3.720  -2.966  25.675  0.00  0.00    -0.166 F 
ATOM      2  F   UNL     1      -2.763  -3.496  23.802  0.00  0.00    -0.166 F 
ATOM      3  F   UNL     1      -4.419  -2.086  23.813  0.00  0.00    -0.166 F 
ATOM     25  C   UNL     1      -3.288  -2.439  24.491  0.00  0.00    +0.417 C 
ENDBRANCH  24  25
ENDBRANCH   5  16
ENDBRANCH  10   5
BRANCH   6  13
ATOM     13  C   UNL     1      -3.648   3.735  26.839  0.00  0.00    +0.122 C 
BRANCH  13  15
ATOM      7  N   UNL     1      -6.132   1.949  24.836  0.00  0.00    -0.274 N 
ATOM      8  N   UNL     1      -5.196   0.984  24.838  0.00  0.00    -0.180 NA
ATOM     15  C   UNL     1      -4.509   2.822  26.008  0.00  0.00    +0.004 A 
ATOM     17  C   UNL     1      -5.771   3.070  25.523  0.00  0.00    +0.112 A 
ATOM     18  C   UNL     1      -4.208   1.524  25.556  0.00  0.00    +0.139 A 
ATOM     21  C   UNL     1      -7.381   1.735  24.144  0.00  0.00    +0.172 C 
ENDBRANCH  13  15
ENDBRANCH   6  13
TORSDOF 5
ENDMDL
MODEL 9
REMARK VINA RESULT:      -0.4      2.249      4.443
REMARK  Name = 75536871
REMARK  6 active torsions:
REMARK  status: ('A' for Active; 'I' for Inactive)
REMARK    1  A    between atoms: O_5  and  C_10
REMARK    2  A    between atoms: O_5  and  C_16
REMARK    3  A    between atoms: N_6  and  C_13
REMARK    4  A    between atoms: N_7  and  C_21
REMARK    5  A    between atoms: C_13  and  C_15
REMARK    6  A    between atoms: C_24  and  C_25
REMARK                            x       y       z     vdW  Elec       q    Type
REMARK                         _______ _______ _______ _____ _____    ______ ____
ROOT
ATOM      4  O   UNL     1      -1.475  -2.186  24.840  0.00  0.00    -0.375 OA
ATOM      6  N   UNL     1      -3.813  -0.516  24.657  0.00  0.00    -0.292 NA
ATOM      9  C   UNL     1      -2.780   0.483  24.380  0.00  0.00    +0.131 C 
ATOM     10  C   UNL     1      -1.659  -0.111  23.519  0.00  0.00    +0.213 C 
ATOM     11  C   UNL     1      -3.547  -1.355  25.831  0.00  0.00    +0.113 C 
ATOM     12  C   UNL     1      -0.759  -1.125  24.220  0.00  0.00    +0.205 C 
ATOM     14  C   UNL     1      -2.098  -1.779  26.053  0.00  0.00    +0.175 C 
ENDROOT
BRANCH  10   5
ATOM      5  O   UNL     1      -0.846   0.966  23.050  0.00  0.00    -0.485 OA
BRANCH   5  16
ATOM     16  C   UNL     1       0.507   0.770  23.083  0.00  0.00    +0.121 A 
ATOM     19  C   UNL     1       1.326   1.671  23.761  0.00  0.00    +0.046 A 
ATOM     20  C   UNL     1       1.066  -0.333  22.436  0.00  0.00    +0.046 A 
ATOM     22  C   UNL     1       2.706   1.470  23.793  0.00  0.00    +0.016 A 
ATOM     23  C   UNL     1       2.446  -0.534  22.468  0.00  0.00    +0.016 A 
ATOM     24  C   UNL     1       3.266   0.368  23.147  0.00  0.00    +0.055 A 
BRANCH  24  25
ATOM      1  F   UNL     1       5.316   0.103  21.942  0.00  0.00    -0.166 F 
ATOM      2  F   UNL     1       5.111  -1.012  23.791  0.00  0.00    -0.166 F 
ATOM      3  F   UNL     1       5.401   1.142  23.851  0.00  0.00    -0.166 F 
ATOM     25  C   UNL     1       4.741   0.153  23.181  0.00  0.00    +0.417 C 
ENDBRANCH  24  25
ENDBRANCH   5  16
ENDBRANCH  10   5
BRANCH   6  13
ATOM     13  C   UNL     1      -5.136   0.098  24.770  0.00  0.00    +0.122 C 
BRANCH  13  15
ATOM      7  N   UNL     1      -4.507   3.700  24.837  0.00  0.00    -0.274 N 
ATOM      8  N   UNL     1      -5.467   3.682  25.777  0.00  0.00    -0.180 NA
ATOM     15  C   UNL     1      -5.048   1.588  24.966  0.00  0.00    +0.004 A 
ATOM     17  C   UNL     1      -4.218   2.472  24.319  0.00  0.00    +0.112 A 
ATOM     18  C   UNL     1      -5.793   2.389  25.851  0.00  0.00    +0.139 A 
ATOM     21  C   UNL     1      -3.888   4.951  24.468  0.00  0.00    +0.172 C 
ENDBRANCH  13  15
ENDBRANCH   6  13
TORSDOF 5
ENDMDL
