MODEL 1
REMARK VINA RESULT:      -1.7      0.000      0.000
REMARK  Name = 26761888
REMARK  5 active torsions:
REMARK  status: ('A' for Active; 'I' for Inactive)
REMARK    1  A    between atoms: O_2  and  C_22
REMARK    2  A    between atoms: O_2  and  C_23
REMARK    3  A    between atoms: N_3  and  C_14
REMARK    4  A    between atoms: C_8  and  C_13
REMARK    5  A    between atoms: C_16  and  C_17
REMARK                            x       y       z     vdW  Elec       q    Type
REMARK                         _______ _______ _______ _____ _____    ______ ____
ROOT
ATOM      1  O   UNL     1      -1.498  -1.119  24.329  0.00  0.00    -0.336 OA
ATOM      6  N   UNL     1      -0.436   0.732  23.652  0.00  0.00    -0.190 NA
ATOM      7  N   UNL     1      -0.151  -1.474  24.183  0.00  0.00    -0.056 NA
ATOM     13  C   UNL     1      -1.579   0.195  23.996  0.00  0.00    +0.245 A 
ATOM     16  C   UNL     1       0.410  -0.329  23.783  0.00  0.00    +0.202 A 
ENDROOT
BRANCH  13   8
ATOM      3  N   UNL     1      -3.983  -0.011  24.787  0.00  0.00    -0.288 NA
ATOM      4  N   UNL     1      -6.251   2.889  25.506  0.00  0.00    -0.347 N 
ATOM      5  N   UNL     1      -4.378   4.109  25.435  0.00  0.00    -0.240 NA
ATOM      8  C   UNL     1      -2.962   0.832  24.075  0.00  0.00    +0.152 C 
ATOM      9  C   UNL     1      -2.802   2.253  24.724  0.00  0.00    +0.085 C 
ATOM     10  C   UNL     1      -5.338   0.611  24.776  0.00  0.00    +0.140 C 
ATOM     11  C   UNL     1      -4.120   2.815  25.079  0.00  0.00    +0.065 A 
ATOM     12  C   UNL     1      -5.252   2.045  25.122  0.00  0.00    +0.053 A 
ATOM     14  C   UNL     1      -4.094  -1.358  24.210  0.00  0.00    +0.106 C 
ATOM     15  C   UNL     1      -5.674   4.121  25.683  0.00  0.00    +0.197 A 
ATOM     24  H   UNL     1      -7.228   2.658  25.633  0.00  0.00    +0.167 HD
ENDBRANCH  13   8
BRANCH  16  17
ATOM     17  C   UNL     1       1.812  -0.214  23.503  0.00  0.00    +0.023 A 
ATOM     18  C   UNL     1       2.669  -1.280  23.778  0.00  0.00    +0.015 A 
ATOM     19  C   UNL     1       2.320   0.965  22.957  0.00  0.00    +0.015 A 
ATOM     20  C   UNL     1       4.033  -1.167  23.508  0.00  0.00    +0.046 A 
ATOM     21  C   UNL     1       3.684   1.079  22.686  0.00  0.00    +0.046 A 
ATOM     22  C   UNL     1       4.541   0.013  22.962  0.00  0.00    +0.120 A 
BRANCH  22   2
ATOM      2  O   UNL     1       5.871   0.123  22.697  0.00  0.00    -0.495 OA
ATOM     23  C   UNL     1       6.773  -0.389  23.678  0.00  0.00    +0.277 C 
ENDBRANCH  22   2
ENDBRANCH  16  17
TORSDOF 3
ENDMDL
MODEL 2
REMARK VINA RESULT:      -1.2      1.231      2.132
REMARK  Name = 26761888
REMARK  5 active torsions:
REMARK  status: ('A' for Active; 'I' for Inactive)
REMARK    1  A    between atoms: O_2  and  C_22
REMARK    2  A    between atoms: O_2  and  C_23
REMARK    3  A    between atoms: N_3  and  C_14
REMARK    4  A    between atoms: C_8  and  C_13
REMARK    5  A    between atoms: C_16  and  C_17
REMARK                            x       y       z     vdW  Elec       q    Type
REMARK                         _______ _______ _______ _____ _____    ______ ____
ROOT
ATOM      1  O   UNL     1      -1.302   0.259  23.365  0.00  0.00    -0.336 OA
ATOM      6  N   UNL     1       0.330   1.349  24.441  0.00  0.00    -0.190 NA
ATOM      7  N   UNL     1      -0.098  -0.232  22.844  0.00  0.00    -0.056 NA
ATOM     13  C   UNL     1      -0.961   1.184  24.298  0.00  0.00    +0.245 A 
ATOM     16  C   UNL     1       0.818   0.459  23.530  0.00  0.00    +0.202 A 
ENDROOT
BRANCH  13   8
ATOM      3  N   UNL     1      -2.226   3.345  24.722  0.00  0.00    -0.288 NA
ATOM      4  N   UNL     1      -5.814   3.542  25.797  0.00  0.00    -0.347 N 
ATOM      5  N   UNL     1      -5.892   1.382  25.224  0.00  0.00    -0.240 NA
ATOM      8  C   UNL     1      -2.110   1.876  25.023  0.00  0.00    +0.152 C 
ATOM      9  C   UNL     1      -3.430   1.092  24.691  0.00  0.00    +0.085 C 
ATOM     10  C   UNL     1      -3.312   3.999  25.507  0.00  0.00    +0.140 C 
ATOM     11  C   UNL     1      -4.614   1.855  25.133  0.00  0.00    +0.065 A 
ATOM     12  C   UNL     1      -4.541   3.180  25.472  0.00  0.00    +0.053 A 
ATOM     14  C   UNL     1      -0.974   4.068  24.984  0.00  0.00    +0.106 C 
ATOM     15  C   UNL     1      -6.592   2.424  25.631  0.00  0.00    +0.197 A 
ATOM     24  H   UNL     1      -6.128   4.453  26.105  0.00  0.00    +0.167 HD
ENDBRANCH  13   8
BRANCH  16  17
ATOM     17  C   UNL     1       2.227   0.286  23.325  0.00  0.00    +0.023 A 
ATOM     18  C   UNL     1       2.825  -0.945  23.591  0.00  0.00    +0.015 A 
ATOM     19  C   UNL     1       3.001   1.351  22.861  0.00  0.00    +0.015 A 
ATOM     20  C   UNL     1       4.196  -1.112  23.395  0.00  0.00    +0.046 A 
ATOM     21  C   UNL     1       4.371   1.184  22.664  0.00  0.00    +0.046 A 
ATOM     22  C   UNL     1       4.969  -0.048  22.932  0.00  0.00    +0.120 A 
BRANCH  22   2
ATOM      2  O   UNL     1       6.306  -0.211  22.739  0.00  0.00    -0.495 OA
ATOM     23  C   UNL     1       7.114  -0.381  23.902  0.00  0.00    +0.277 C 
ENDBRANCH  22   2
ENDBRANCH  16  17
TORSDOF 3
ENDMDL
MODEL 3
REMARK VINA RESULT:      -0.5      1.355      1.763
REMARK  Name = 26761888
REMARK  5 active torsions:
REMARK  status: ('A' for Active; 'I' for Inactive)
REMARK    1  A    between atoms: O_2  and  C_22
REMARK    2  A    between atoms: O_2  and  C_23
REMARK    3  A    between atoms: N_3  and  C_14
REMARK    4  A    between atoms: C_8  and  C_13
REMARK    5  A    between atoms: C_16  and  C_17
REMARK                            x       y       z     vdW  Elec       q    Type
REMARK                         _______ _______ _______ _____ _____    ______ ____
ROOT
ATOM      1  O   UNL     1      -0.490  -0.146  21.899  0.00  0.00    -0.336 OA
ATOM      6  N   UNL     1       0.525   0.456  23.802  0.00  0.00    -0.190 NA
ATOM      7  N   UNL     1       0.875  -0.388  21.705  0.00  0.00    -0.056 NA
ATOM     13  C   UNL     1      -0.610   0.350  23.158  0.00  0.00    +0.245 A 
ATOM     16  C   UNL     1       1.407  -0.009  22.871  0.00  0.00    +0.202 A 
ENDROOT
BRANCH  13   8
ATOM      3  N   UNL     1      -2.467  -0.057  24.842  0.00  0.00    -0.288 NA
ATOM      4  N   UNL     1      -5.140   2.426  25.711  0.00  0.00    -0.347 N 
ATOM      5  N   UNL     1      -3.835   3.898  24.650  0.00  0.00    -0.240 NA
ATOM      8  C   UNL     1      -2.020   0.699  23.620  0.00  0.00    +0.152 C 
ATOM      9  C   UNL     1      -2.091   2.255  23.820  0.00  0.00    +0.085 C 
ATOM     10  C   UNL     1      -3.876   0.257  25.217  0.00  0.00    +0.140 C 
ATOM     11  C   UNL     1      -3.333   2.634  24.522  0.00  0.00    +0.065 A 
ATOM     12  C   UNL     1      -4.113   1.714  25.171  0.00  0.00    +0.053 A 
ATOM     14  C   UNL     1      -2.351  -1.511  24.671  0.00  0.00    +0.106 C 
ATOM     15  C   UNL     1      -4.928   3.738  25.370  0.00  0.00    +0.197 A 
ATOM     24  H   UNL     1      -5.913   2.063  26.255  0.00  0.00    +0.167 HD
ENDBRANCH  13   8
BRANCH  16  17
ATOM     17  C   UNL     1       2.815  -0.079  23.136  0.00  0.00    +0.023 A 
ATOM     18  C   UNL     1       3.629   1.023  22.879  0.00  0.00    +0.015 A 
ATOM     19  C   UNL     1       3.371  -1.252  23.649  0.00  0.00    +0.015 A 
ATOM     20  C   UNL     1       4.999   0.953  23.134  0.00  0.00    +0.046 A 
ATOM     21  C   UNL     1       4.740  -1.322  23.905  0.00  0.00    +0.046 A 
ATOM     22  C   UNL     1       5.555  -0.219  23.647  0.00  0.00    +0.120 A 
BRANCH  22   2
ATOM      2  O   UNL     1       6.890  -0.287  23.897  0.00  0.00    -0.495 OA
ATOM     23  C   UNL     1       7.742  -0.609  22.797  0.00  0.00    +0.277 C 
ENDBRANCH  22   2
ENDBRANCH  16  17
TORSDOF 3
ENDMDL
MODEL 4
REMARK VINA RESULT:       0.5      1.340      1.578
REMARK  Name = 26761888
REMARK  5 active torsions:
REMARK  status: ('A' for Active; 'I' for Inactive)
REMARK    1  A    between atoms: O_2  and  C_22
REMARK    2  A    between atoms: O_2  and  C_23
REMARK    3  A    between atoms: N_3  and  C_14
REMARK    4  A    between atoms: C_8  and  C_13
REMARK    5  A    between atoms: C_16  and  C_17
REMARK                            x       y       z     vdW  Elec       q    Type
REMARK                         _______ _______ _______ _____ _____    ______ ____
ROOT
ATOM      1  O   UNL     1      -0.520   2.797  24.025  0.00  0.00    -0.336 OA
ATOM      6  N   UNL     1      -0.140   0.608  23.752  0.00  0.00    -0.190 NA
ATOM      7  N   UNL     1       0.862   2.662  23.849  0.00  0.00    -0.056 NA
ATOM     13  C   UNL     1      -1.034   1.542  23.955  0.00  0.00    +0.245 A 
ATOM     16  C   UNL     1       1.008   1.343  23.692  0.00  0.00    +0.202 A 
ENDROOT
BRANCH  13   8
ATOM      3  N   UNL     1      -2.971   0.247  24.965  0.00  0.00    -0.288 NA
ATOM      4  N   UNL     1      -6.346   1.698  25.719  0.00  0.00    -0.347 N 
ATOM      5  N   UNL     1      -5.342   3.671  25.415  0.00  0.00    -0.240 NA
ATOM      8  C   UNL     1      -2.544   1.416  24.120  0.00  0.00    +0.152 C 
ATOM      9  C   UNL     1      -3.085   2.783  24.672  0.00  0.00    +0.085 C 
ATOM     10  C   UNL     1      -4.454   0.114  25.040  0.00  0.00    +0.140 C 
ATOM     11  C   UNL     1      -4.489   2.649  25.110  0.00  0.00    +0.065 A 
ATOM     12  C   UNL     1      -5.080   1.427  25.296  0.00  0.00    +0.053 A 
ATOM     14  C   UNL     1      -2.421  -1.025  24.477  0.00  0.00    +0.106 C 
ATOM     15  C   UNL     1      -6.456   3.064  25.775  0.00  0.00    +0.197 A 
ATOM     24  H   UNL     1      -7.070   1.026  25.944  0.00  0.00    +0.167 HD
ENDBRANCH  13   8
BRANCH  16  17
ATOM     17  C   UNL     1       2.286   0.728  23.479  0.00  0.00    +0.023 A 
ATOM     18  C   UNL     1       2.438  -0.646  23.656  0.00  0.00    +0.015 A 
ATOM     19  C   UNL     1       3.380   1.506  23.096  0.00  0.00    +0.015 A 
ATOM     20  C   UNL     1       3.682  -1.244  23.451  0.00  0.00    +0.046 A 
ATOM     21  C   UNL     1       4.623   0.909  22.890  0.00  0.00    +0.046 A 
ATOM     22  C   UNL     1       4.775  -0.466  23.068  0.00  0.00    +0.120 A 
BRANCH  22   2
ATOM      2  O   UNL     1       5.988  -1.048  22.867  0.00  0.00    -0.495 OA
ATOM     23  C   UNL     1       7.142  -0.260  23.154  0.00  0.00    +0.277 C 
ENDBRANCH  22   2
ENDBRANCH  16  17
TORSDOF 3
ENDMDL
MODEL 5
REMARK VINA RESULT:       2.0      2.395      8.453
REMARK  Name = 26761888
REMARK  5 active torsions:
REMARK  status: ('A' for Active; 'I' for Inactive)
REMARK    1  A    between atoms: O_2  and  C_22
REMARK    2  A    between atoms: O_2  and  C_23
REMARK    3  A    between atoms: N_3  and  C_14
REMARK    4  A    between atoms: C_8  and  C_13
REMARK    5  A    between atoms: C_16  and  C_17
REMARK                            x       y       z     vdW  Elec       q    Type
REMARK                         _______ _______ _______ _____ _____    ______ ____
ROOT
ATOM      1  O   UNL     1      -0.382  -1.034  23.897  0.00  0.00    -0.336 OA
ATOM      6  N   UNL     1      -0.582   1.195  23.943  0.00  0.00    -0.190 NA
ATOM      7  N   UNL     1      -1.688  -0.770  24.330  0.00  0.00    -0.056 NA
ATOM     13  C   UNL     1       0.200   0.176  23.692  0.00  0.00    +0.245 A 
ATOM     16  C   UNL     1      -1.729   0.566  24.330  0.00  0.00    +0.202 A 
ENDROOT
BRANCH  13   8
ATOM      3  N   UNL     1       2.395   1.436  23.488  0.00  0.00    -0.288 NA
ATOM      4  N   UNL     1       5.766  -0.182  23.196  0.00  0.00    -0.347 N 
ATOM      5  N   UNL     1       4.703  -2.043  23.830  0.00  0.00    -0.240 NA
ATOM      8  C   UNL     1       1.646   0.162  23.210  0.00  0.00    +0.152 C 
ATOM      9  C   UNL     1       2.350  -1.095  23.835  0.00  0.00    +0.085 C 
ATOM     10  C   UNL     1       3.780   1.411  22.935  0.00  0.00    +0.140 C 
ATOM     11  C   UNL     1       3.811  -1.027  23.635  0.00  0.00    +0.065 A 
ATOM     12  C   UNL     1       4.441   0.129  23.252  0.00  0.00    +0.053 A 
ATOM     14  C   UNL     1       1.707   2.616  22.947  0.00  0.00    +0.106 C 
ATOM     15  C   UNL     1       5.873  -1.503  23.554  0.00  0.00    +0.197 A 
ATOM     24  H   UNL     1       6.526   0.435  22.937  0.00  0.00    +0.167 HD
ENDBRANCH  13   8
BRANCH  16  17
ATOM     17  C   UNL     1      -2.899   1.302  24.715  0.00  0.00    +0.023 A 
ATOM     18  C   UNL     1      -4.119   0.644  24.863  0.00  0.00    +0.015 A 
ATOM     19  C   UNL     1      -2.816   2.677  24.938  0.00  0.00    +0.015 A 
ATOM     20  C   UNL     1      -5.257   1.360  25.234  0.00  0.00    +0.046 A 
ATOM     21  C   UNL     1      -3.954   3.393  25.310  0.00  0.00    +0.046 A 
ATOM     22  C   UNL     1      -5.175   2.735  25.457  0.00  0.00    +0.120 A 
BRANCH  22   2
ATOM      2  O   UNL     1      -6.285   3.433  25.821  0.00  0.00    -0.495 OA
ATOM     23  C   UNL     1      -6.254   4.847  25.629  0.00  0.00    +0.277 C 
ENDBRANCH  22   2
ENDBRANCH  16  17
TORSDOF 3
ENDMDL
