MODEL 1
REMARK VINA RESULT:      13.4      0.000      0.000
REMARK  Name = 26743405
REMARK  6 active torsions:
REMARK  status: ('A' for Active; 'I' for Inactive)
REMARK    1  A    between atoms: N_4  and  C_9
REMARK    2  A    between atoms: N_5  and  C_18
REMARK    3  A    between atoms: C_7  and  C_10
REMARK    4  A    between atoms: C_13  and  C_15
REMARK    5  A    between atoms: C_14  and  C_16
REMARK    6  A    between atoms: C_17  and  C_19
REMARK                            x       y       z     vdW  Elec       q    Type
REMARK                         _______ _______ _______ _____ _____    ______ ____
ROOT
ATOM      7  C   UNL     1       0.234   0.539  23.491  0.00  0.00    +0.047 C 
ATOM      8  C   UNL     1       1.047  -0.705  23.897  0.00  0.00    +0.039 C 
ATOM      9  C   UNL     1       1.915  -1.066  22.679  0.00  0.00    +0.097 C 
ATOM     11  C   UNL     1       0.253   0.457  21.993  0.00  0.00    -0.021 C 
ATOM     12  C   UNL     1       1.173  -0.410  21.556  0.00  0.00    -0.009 C 
ENDROOT
BRANCH   7  10
ATOM      5  N   UNL     1      -3.117   1.191  24.822  0.00  0.00    -0.236 N 
ATOM      6  N   UNL     1      -3.060  -0.112  25.148  0.00  0.00    -0.171 NA
ATOM     10  C   UNL     1      -1.148   0.576  24.104  0.00  0.00    +0.003 A 
ATOM     13  C   UNL     1      -1.997   1.652  24.194  0.00  0.00    +0.046 A 
ATOM     14  C   UNL     1      -1.854  -0.482  24.708  0.00  0.00    +0.064 A 
ATOM     15  C   UNL     1      -1.838   3.049  23.742  0.00  0.00    +0.066 C 
ATOM     16  C   UNL     1      -1.415  -1.877  24.886  0.00  0.00    +0.068 C 
BRANCH   5  18
ATOM     18  C   UNL     1      -4.256   1.933  25.134  0.00  0.00    +0.066 A 
ATOM     20  C   UNL     1      -4.140   3.284  25.463  0.00  0.00    +0.028 A 
ATOM     21  C   UNL     1      -5.511   1.326  25.116  0.00  0.00    +0.028 A 
ATOM     26  C   UNL     1      -5.279   4.026  25.774  0.00  0.00    +0.002 A 
ATOM     27  C   UNL     1      -6.650   2.068  25.426  0.00  0.00    +0.002 A 
ATOM     29  C   UNL     1      -6.535   3.418  25.755  0.00  0.00    +0.000 A 
ENDBRANCH   5  18
ENDBRANCH   7  10
BRANCH   9   4
ATOM      1  O   UNL     1       4.089  -2.232  24.161  0.00  0.00    -0.270 OA
ATOM      4  N   UNL     1       3.271  -0.543  22.800  0.00  0.00    -0.305 N 
ATOM     17  C   UNL     1       4.278  -1.169  23.542  0.00  0.00    +0.245 C 
ATOM     31  H   UNL     1       3.445   0.367  22.385  0.00  0.00    +0.150 HD
BRANCH  17  19
ATOM      2  O   UNL     1       9.050  -0.848  22.464  0.00  0.00    -0.453 OA
ATOM      3  O   UNL     1       9.283   1.247  23.631  0.00  0.00    -0.453 OA
ATOM     19  C   UNL     1       5.573  -0.509  23.585  0.00  0.00    +0.040 A 
ATOM     22  C   UNL     1       6.671  -1.095  22.950  0.00  0.00    +0.062 A 
ATOM     23  C   UNL     1       5.710   0.712  24.267  0.00  0.00    +0.017 A 
ATOM     24  C   UNL     1       7.879  -0.432  23.018  0.00  0.00    +0.167 A 
ATOM     25  C   UNL     1       8.012   0.764  23.685  0.00  0.00    +0.166 A 
ATOM     28  C   UNL     1       6.944   1.363  24.321  0.00  0.00    +0.050 A 
ATOM     30  C   UNL     1       9.935   0.221  22.856  0.00  0.00    +0.466 C 
ENDBRANCH  17  19
ENDBRANCH   9   4
TORSDOF 4
ENDMDL
MODEL 2
REMARK VINA RESULT:      14.7      1.761      2.696
REMARK  Name = 26743405
REMARK  6 active torsions:
REMARK  status: ('A' for Active; 'I' for Inactive)
REMARK    1  A    between atoms: N_4  and  C_9
REMARK    2  A    between atoms: N_5  and  C_18
REMARK    3  A    between atoms: C_7  and  C_10
REMARK    4  A    between atoms: C_13  and  C_15
REMARK    5  A    between atoms: C_14  and  C_16
REMARK    6  A    between atoms: C_17  and  C_19
REMARK                            x       y       z     vdW  Elec       q    Type
REMARK                         _______ _______ _______ _____ _____    ______ ____
ROOT
ATOM      7  C   UNL     1      -1.637  -0.320  24.165  0.00  0.00    +0.047 C 
ATOM      8  C   UNL     1      -0.801  -0.539  25.440  0.00  0.00    +0.039 C 
ATOM      9  C   UNL     1       0.007  -1.827  25.207  0.00  0.00    +0.097 C 
ATOM     11  C   UNL     1      -1.692  -1.701  23.580  0.00  0.00    -0.021 C 
ATOM     12  C   UNL     1      -0.791  -2.513  24.143  0.00  0.00    -0.009 C 
ENDROOT
BRANCH   7  10
ATOM      5  N   UNL     1      -4.608   1.684  24.927  0.00  0.00    -0.236 N 
ATOM      6  N   UNL     1      -5.248   0.531  24.669  0.00  0.00    -0.171 NA
ATOM     10  C   UNL     1      -2.987   0.305  24.436  0.00  0.00    +0.003 A 
ATOM     13  C   UNL     1      -3.252   1.602  24.801  0.00  0.00    +0.046 A 
ATOM     14  C   UNL     1      -4.253  -0.309  24.370  0.00  0.00    +0.064 A 
ATOM     15  C   UNL     1      -2.346   2.745  25.034  0.00  0.00    +0.066 C 
ATOM     16  C   UNL     1      -4.563  -1.706  24.021  0.00  0.00    +0.068 C 
BRANCH   5  18
ATOM     18  C   UNL     1      -5.340   2.816  25.285  0.00  0.00    +0.066 A 
ATOM     20  C   UNL     1      -6.395   2.707  26.192  0.00  0.00    +0.028 A 
ATOM     21  C   UNL     1      -5.016   4.058  24.739  0.00  0.00    +0.028 A 
ATOM     26  C   UNL     1      -7.126   3.839  26.551  0.00  0.00    +0.002 A 
ATOM     27  C   UNL     1      -5.747   5.190  25.099  0.00  0.00    +0.002 A 
ATOM     29  C   UNL     1      -6.802   5.081  26.005  0.00  0.00    +0.000 A 
ENDBRANCH   5  18
ENDBRANCH   7  10
BRANCH   9   4
ATOM      1  O   UNL     1       0.818   0.174  23.303  0.00  0.00    -0.270 OA
ATOM      4  N   UNL     1       1.366  -1.547  24.757  0.00  0.00    -0.305 N 
ATOM     17  C   UNL     1       1.682  -0.554  23.824  0.00  0.00    +0.245 C 
ATOM     31  H   UNL     1       2.091  -2.175  25.087  0.00  0.00    +0.150 HD
BRANCH  17  19
ATOM      2  O   UNL     1       6.395  -1.898  24.002  0.00  0.00    -0.453 OA
ATOM      3  O   UNL     1       7.065  -0.134  22.503  0.00  0.00    -0.453 OA
ATOM     19  C   UNL     1       3.083  -0.415  23.457  0.00  0.00    +0.040 A 
ATOM     22  C   UNL     1       4.027  -1.304  23.976  0.00  0.00    +0.062 A 
ATOM     23  C   UNL     1       3.475   0.614  22.584  0.00  0.00    +0.017 A 
ATOM     24  C   UNL     1       5.343  -1.133  23.599  0.00  0.00    +0.167 A 
ATOM     25  C   UNL     1       5.726  -0.126  22.744  0.00  0.00    +0.166 A 
ATOM     28  C   UNL     1       4.814   0.766  22.218  0.00  0.00    +0.050 A 
ATOM     30  C   UNL     1       7.482  -1.258  23.303  0.00  0.00    +0.466 C 
ENDBRANCH  17  19
ENDBRANCH   9   4
TORSDOF 4
ENDMDL
MODEL 3
REMARK VINA RESULT:      15.5      1.065      2.119
REMARK  Name = 26743405
REMARK  6 active torsions:
REMARK  status: ('A' for Active; 'I' for Inactive)
REMARK    1  A    between atoms: N_4  and  C_9
REMARK    2  A    between atoms: N_5  and  C_18
REMARK    3  A    between atoms: C_7  and  C_10
REMARK    4  A    between atoms: C_13  and  C_15
REMARK    5  A    between atoms: C_14  and  C_16
REMARK    6  A    between atoms: C_17  and  C_19
REMARK                            x       y       z     vdW  Elec       q    Type
REMARK                         _______ _______ _______ _____ _____    ______ ____
ROOT
ATOM      7  C   UNL     1       0.363   1.945  23.657  0.00  0.00    +0.047 C 
ATOM      8  C   UNL     1       0.978   0.887  24.593  0.00  0.00    +0.039 C 
ATOM      9  C   UNL     1       1.697  -0.124  23.683  0.00  0.00    +0.097 C 
ATOM     11  C   UNL     1       0.277   1.206  22.355  0.00  0.00    -0.021 C 
ATOM     12  C   UNL     1       1.010   0.087  22.370  0.00  0.00    -0.009 C 
ENDROOT
BRANCH   7  10
ATOM      5  N   UNL     1      -3.027   2.733  24.801  0.00  0.00    -0.236 N 
ATOM      6  N   UNL     1      -2.509   3.964  24.959  0.00  0.00    -0.171 NA
ATOM     10  C   UNL     1      -0.952   2.494  24.160  0.00  0.00    +0.003 A 
ATOM     13  C   UNL     1      -2.136   1.817  24.326  0.00  0.00    +0.046 A 
ATOM     14  C   UNL     1      -1.241   3.811  24.565  0.00  0.00    +0.064 A 
ATOM     15  C   UNL     1      -2.483   0.403  24.076  0.00  0.00    +0.066 C 
ATOM     16  C   UNL     1      -0.329   4.968  24.596  0.00  0.00    +0.068 C 
BRANCH   5  18
ATOM     18  C   UNL     1      -4.365   2.501  25.118  0.00  0.00    +0.066 A 
ATOM     20  C   UNL     1      -4.922   1.239  24.911  0.00  0.00    +0.028 A 
ATOM     21  C   UNL     1      -5.147   3.529  25.645  0.00  0.00    +0.028 A 
ATOM     26  C   UNL     1      -6.260   1.006  25.228  0.00  0.00    +0.002 A 
ATOM     27  C   UNL     1      -6.484   3.296  25.964  0.00  0.00    +0.002 A 
ATOM     29  C   UNL     1      -7.041   2.034  25.756  0.00  0.00    +0.000 A 
ENDBRANCH   5  18
ENDBRANCH   7  10
BRANCH   9   4
ATOM      1  O   UNL     1       3.837  -2.035  23.921  0.00  0.00    -0.270 OA
ATOM      4  N   UNL     1       3.127   0.147  23.586  0.00  0.00    -0.305 N 
ATOM     17  C   UNL     1       4.111  -0.838  23.714  0.00  0.00    +0.245 C 
ATOM     31  H   UNL     1       3.399   1.122  23.507  0.00  0.00    +0.150 HD
BRANCH  17  19
ATOM      2  O   UNL     1       8.752  -1.356  22.219  0.00  0.00    -0.453 OA
ATOM      3  O   UNL     1       9.433   0.703  23.270  0.00  0.00    -0.453 OA
ATOM     19  C   UNL     1       5.496  -0.405  23.618  0.00  0.00    +0.040 A 
ATOM     22  C   UNL     1       6.419  -1.185  22.917  0.00  0.00    +0.062 A 
ATOM     23  C   UNL     1       5.894   0.795  24.232  0.00  0.00    +0.017 A 
ATOM     24  C   UNL     1       7.721  -0.733  22.853  0.00  0.00    +0.167 A 
ATOM     25  C   UNL     1       8.110   0.442  23.453  0.00  0.00    +0.166 A 
ATOM     28  C   UNL     1       7.219   1.231  24.151  0.00  0.00    +0.050 A 
ATOM     30  C   UNL     1       9.833  -0.440  22.488  0.00  0.00    +0.466 C 
ENDBRANCH  17  19
ENDBRANCH   9   4
TORSDOF 4
ENDMDL
