MODEL 1
REMARK VINA RESULT:      -2.4      0.000      0.000
REMARK  Name = 7142772
REMARK  3 active torsions:
REMARK  status: ('A' for Active; 'I' for Inactive)
REMARK    1  A    between atoms: N_6  and  C_21
REMARK    2  A    between atoms: N_7  and  C_19
REMARK    3  A    between atoms: C_22  and  C_25
REMARK                            x       y       z     vdW  Elec       q    Type
REMARK                         _______ _______ _______ _____ _____    ______ ____
ROOT
ATOM      1  O   UNL     1      14.019  -6.263  27.276  0.00  0.00    -0.266 OA
ATOM      2  O   UNL     1      13.674  -4.405  32.147  0.00  0.00    -0.252 OA
ATOM      4  N   UNL     1      14.635  -6.508  32.243  0.00  0.00    -0.284 N 
ATOM      5  N   UNL     1      14.850  -7.347  29.173  0.00  0.00    -0.310 N 
ATOM      6  N   UNL     1      15.975  -4.570  32.380  0.00  0.00    -0.269 N 
ATOM      9  C   UNL     1      13.335  -8.259  31.022  0.00  0.00    +0.027 C 
ATOM     10  C   UNL     1      15.773  -8.476  31.227  0.00  0.00    +0.054 C 
ATOM     11  C   UNL     1      14.461  -9.255  31.265  0.00  0.00    +0.018 C 
ATOM     12  C   UNL     1      13.336  -7.174  32.111  0.00  0.00    +0.114 C 
ATOM     13  C   UNL     1      13.487  -7.667  29.617  0.00  0.00    +0.130 C 
ATOM     14  C   UNL     1      15.789  -7.420  32.352  0.00  0.00    +0.119 C 
ATOM     15  C   UNL     1      15.967  -7.795  29.885  0.00  0.00    +0.027 A 
ATOM     16  C   UNL     1      17.203  -7.592  29.399  0.00  0.00    +0.024 A 
ATOM     17  C   UNL     1      14.973  -6.662  27.947  0.00  0.00    +0.273 A 
ATOM     18  C   UNL     1      14.692  -5.096  32.243  0.00  0.00    +0.306 C 
ATOM     19  C   UNL     1      16.367  -6.433  27.454  0.00  0.00    +0.099 A 
ATOM     20  C   UNL     1      17.405  -6.895  28.161  0.00  0.00    +0.030 A 
ATOM     33  H   UNL     1      16.669  -5.118  32.876  0.00  0.00    +0.156 HD
ENDROOT
BRANCH   6  21
ATOM     21  C   UNL     1      16.431  -3.302  31.943  0.00  0.00    +0.035 A 
ATOM     23  C   UNL     1      16.871  -3.140  30.633  0.00  0.00    +0.023 A 
ATOM     24  C   UNL     1      16.439  -2.226  32.826  0.00  0.00    +0.023 A 
ATOM     26  C   UNL     1      17.323  -1.892  30.201  0.00  0.00    +0.002 A 
ATOM     27  C   UNL     1      16.890  -0.978  32.395  0.00  0.00    +0.002 A 
ATOM     28  C   UNL     1      17.331  -0.811  31.083  0.00  0.00    +0.000 A 
ENDBRANCH   6  21
BRANCH  19   7
ATOM      3  O   UNL     1      17.245  -3.768  27.201  0.00  0.00    -0.270 OA
ATOM      7  N   UNL     1      16.529  -5.758  26.280  0.00  0.00    -0.277 N 
ATOM     22  C   UNL     1      16.968  -4.435  26.202  0.00  0.00    +0.248 C 
ATOM     34  H   UNL     1      16.561  -6.332  25.442  0.00  0.00    +0.155 HD
BRANCH  22  25
ATOM      8  N   UNL     1      17.378  -2.872  22.271  0.00  0.00    -0.263 NA
ATOM     25  C   UNL     1      17.110  -3.894  24.842  0.00  0.00    +0.040 A 
ATOM     29  C   UNL     1      17.276  -2.534  24.663  0.00  0.00    +0.033 A 
ATOM     30  C   UNL     1      17.075  -4.754  23.760  0.00  0.00    +0.033 A 
ATOM     31  C   UNL     1      17.405  -2.074  23.363  0.00  0.00    +0.111 A 
ATOM     32  C   UNL     1      17.213  -4.195  22.500  0.00  0.00    +0.111 A 
ENDBRANCH  22  25
ENDBRANCH  19   7
TORSDOF 3
ENDMDL
MODEL 2
REMARK VINA RESULT:      -0.7      3.784      5.929
REMARK  Name = 7142772
REMARK  3 active torsions:
REMARK  status: ('A' for Active; 'I' for Inactive)
REMARK    1  A    between atoms: N_6  and  C_21
REMARK    2  A    between atoms: N_7  and  C_19
REMARK    3  A    between atoms: C_22  and  C_25
REMARK                            x       y       z     vdW  Elec       q    Type
REMARK                         _______ _______ _______ _____ _____    ______ ____
ROOT
ATOM      1  O   UNL     1      16.993  -5.983  29.214  0.00  0.00    -0.266 OA
ATOM      2  O   UNL     1      12.706  -8.923  29.737  0.00  0.00    -0.252 OA
ATOM      4  N   UNL     1      14.449  -9.987  30.826  0.00  0.00    -0.284 N 
ATOM      5  N   UNL     1      16.877  -7.948  30.473  0.00  0.00    -0.310 N 
ATOM      6  N   UNL     1      12.856  -8.743  32.044  0.00  0.00    -0.269 N 
ATOM      9  C   UNL     1      16.498 -10.248  29.417  0.00  0.00    +0.027 C 
ATOM     10  C   UNL     1      16.715 -10.048  31.857  0.00  0.00    +0.054 C 
ATOM     11  C   UNL     1      17.254 -10.777  30.629  0.00  0.00    +0.018 C 
ATOM     12  C   UNL     1      14.991 -10.514  29.570  0.00  0.00    +0.114 C 
ATOM     13  C   UNL     1      16.806  -8.757  29.249  0.00  0.00    +0.130 C 
ATOM     14  C   UNL     1      15.213 -10.356  32.032  0.00  0.00    +0.119 C 
ATOM     15  C   UNL     1      16.917  -8.548  31.735  0.00  0.00    +0.027 A 
ATOM     16  C   UNL     1      17.100  -7.798  32.835  0.00  0.00    +0.024 A 
ATOM     17  C   UNL     1      17.006  -6.555  30.306  0.00  0.00    +0.273 A 
ATOM     18  C   UNL     1      13.287  -9.185  30.794  0.00  0.00    +0.306 C 
ATOM     19  C   UNL     1      17.181  -5.752  31.556  0.00  0.00    +0.099 A 
ATOM     20  C   UNL     1      17.232  -6.371  32.741  0.00  0.00    +0.030 A 
ATOM     33  H   UNL     1      13.075  -9.310  32.856  0.00  0.00    +0.156 HD
ENDROOT
BRANCH   6  21
ATOM     21  C   UNL     1      12.084  -7.589  32.325  0.00  0.00    +0.035 A 
ATOM     23  C   UNL     1      10.724  -7.715  32.595  0.00  0.00    +0.023 A 
ATOM     24  C   UNL     1      12.688  -6.335  32.327  0.00  0.00    +0.023 A 
ATOM     26  C   UNL     1       9.962  -6.579  32.869  0.00  0.00    +0.002 A 
ATOM     27  C   UNL     1      11.927  -5.199  32.603  0.00  0.00    +0.002 A 
ATOM     28  C   UNL     1      10.565  -5.321  32.873  0.00  0.00    +0.000 A 
ENDBRANCH   6  21
BRANCH  19   7
ATOM      3  O   UNL     1      15.468  -3.854  32.741  0.00  0.00    -0.270 OA
ATOM      7  N   UNL     1      17.292  -4.398  31.438  0.00  0.00    -0.277 N 
ATOM     22  C   UNL     1      16.419  -3.493  32.044  0.00  0.00    +0.248 C 
ATOM     34  H   UNL     1      18.187  -4.056  31.098  0.00  0.00    +0.155 HD
BRANCH  22  25
ATOM      8  N   UNL     1      17.302   0.615  31.409  0.00  0.00    -0.263 NA
ATOM     25  C   UNL     1      16.725  -2.072  31.824  0.00  0.00    +0.040 A 
ATOM     29  C   UNL     1      17.129  -1.647  30.573  0.00  0.00    +0.033 A 
ATOM     30  C   UNL     1      16.603  -1.179  32.873  0.00  0.00    +0.033 A 
ATOM     31  C   UNL     1      17.405  -0.298  30.417  0.00  0.00    +0.111 A 
ATOM     32  C   UNL     1      16.902   0.148  32.614  0.00  0.00    +0.111 A 
ENDBRANCH  22  25
ENDBRANCH  19   7
TORSDOF 3
ENDMDL
MODEL 3
REMARK VINA RESULT:       0.8      1.599      2.212
REMARK  Name = 7142772
REMARK  3 active torsions:
REMARK  status: ('A' for Active; 'I' for Inactive)
REMARK    1  A    between atoms: N_6  and  C_21
REMARK    2  A    between atoms: N_7  and  C_19
REMARK    3  A    between atoms: C_22  and  C_25
REMARK                            x       y       z     vdW  Elec       q    Type
REMARK                         _______ _______ _______ _____ _____    ______ ____
ROOT
ATOM      1  O   UNL     1      13.992  -6.468  26.681  0.00  0.00    -0.266 OA
ATOM      2  O   UNL     1      13.188  -6.918  31.824  0.00  0.00    -0.252 OA
ATOM      4  N   UNL     1      14.477  -8.713  31.135  0.00  0.00    -0.284 N 
ATOM      5  N   UNL     1      14.927  -8.133  28.030  0.00  0.00    -0.310 N 
ATOM      6  N   UNL     1      15.476  -6.856  32.194  0.00  0.00    -0.269 N 
ATOM      9  C   UNL     1      13.521  -9.937  29.176  0.00  0.00    +0.027 C 
ATOM     10  C   UNL     1      15.954  -9.891  29.513  0.00  0.00    +0.054 C 
ATOM     11  C   UNL     1      14.787 -10.781  29.095  0.00  0.00    +0.018 C 
ATOM     12  C   UNL     1      13.309  -9.428  30.611  0.00  0.00    +0.114 C 
ATOM     13  C   UNL     1      13.620  -8.790  28.165  0.00  0.00    +0.130 C 
ATOM     14  C   UNL     1      15.760  -9.421  30.970  0.00  0.00    +0.119 C 
ATOM     15  C   UNL     1      16.078  -8.685  28.600  0.00  0.00    +0.027 A 
ATOM     16  C   UNL     1      17.280  -8.131  28.366  0.00  0.00    +0.024 A 
ATOM     17  C   UNL     1      14.976  -6.982  27.217  0.00  0.00    +0.273 A 
ATOM     18  C   UNL     1      14.302  -7.442  31.725  0.00  0.00    +0.306 C 
ATOM     19  C   UNL     1      16.330  -6.380  27.003  0.00  0.00    +0.099 A 
ATOM     20  C   UNL     1      17.405  -6.955  27.554  0.00  0.00    +0.030 A 
ATOM     33  H   UNL     1      16.235  -7.464  32.484  0.00  0.00    +0.156 HD
ENDROOT
BRANCH   6  21
ATOM     21  C   UNL     1      15.733  -5.474  32.368  0.00  0.00    +0.035 A 
ATOM     23  C   UNL     1      17.030  -5.037  32.620  0.00  0.00    +0.023 A 
ATOM     24  C   UNL     1      14.686  -4.559  32.287  0.00  0.00    +0.023 A 
ATOM     26  C   UNL     1      17.284  -3.676  32.793  0.00  0.00    +0.002 A 
ATOM     27  C   UNL     1      14.940  -3.198  32.459  0.00  0.00    +0.002 A 
ATOM     28  C   UNL     1      16.238  -2.757  32.712  0.00  0.00    +0.000 A 
ENDBRANCH   6  21
BRANCH  19   7
ATOM      3  O   UNL     1      17.187  -6.285  24.321  0.00  0.00    -0.270 OA
ATOM      7  N   UNL     1      16.417  -5.256  26.237  0.00  0.00    -0.277 N 
ATOM     22  C   UNL     1      16.848  -5.256  24.909  0.00  0.00    +0.248 C 
ATOM     34  H   UNL     1      15.915  -4.444  26.585  0.00  0.00    +0.155 HD
BRANCH  22  25
ATOM      8  N   UNL     1      16.829  -1.470  22.979  0.00  0.00    -0.263 NA
ATOM     25  C   UNL     1      16.842  -3.946  24.241  0.00  0.00    +0.040 A 
ATOM     29  C   UNL     1      17.383  -3.823  22.975  0.00  0.00    +0.033 A 
ATOM     30  C   UNL     1      16.293  -2.854  24.888  0.00  0.00    +0.033 A 
ATOM     31  C   UNL     1      17.352  -2.568  22.389  0.00  0.00    +0.111 A 
ATOM     32  C   UNL     1      16.311  -1.643  24.216  0.00  0.00    +0.111 A 
ENDBRANCH  22  25
ENDBRANCH  19   7
TORSDOF 3
ENDMDL
MODEL 4
REMARK VINA RESULT:       1.0      2.428      3.351
REMARK  Name = 7142772
REMARK  3 active torsions:
REMARK  status: ('A' for Active; 'I' for Inactive)
REMARK    1  A    between atoms: N_6  and  C_21
REMARK    2  A    between atoms: N_7  and  C_19
REMARK    3  A    between atoms: C_22  and  C_25
REMARK                            x       y       z     vdW  Elec       q    Type
REMARK                         _______ _______ _______ _____ _____    ______ ____
ROOT
ATOM      1  O   UNL     1      14.838  -7.121  26.770  0.00  0.00    -0.266 OA
ATOM      2  O   UNL     1      12.082  -8.583  30.961  0.00  0.00    -0.252 OA
ATOM      4  N   UNL     1      14.232  -9.410  31.186  0.00  0.00    -0.284 N 
ATOM      5  N   UNL     1      15.718  -8.278  28.600  0.00  0.00    -0.310 N 
ATOM      6  N   UNL     1      13.570  -7.460  32.339  0.00  0.00    -0.269 N 
ATOM      9  C   UNL     1      15.032 -10.673  29.183  0.00  0.00    +0.027 C 
ATOM     10  C   UNL     1      16.651  -9.489  30.603  0.00  0.00    +0.054 C 
ATOM     11  C   UNL     1      16.418 -10.772  29.809  0.00  0.00    +0.018 C 
ATOM     12  C   UNL     1      13.961 -10.528  30.277  0.00  0.00    +0.114 C 
ATOM     13  C   UNL     1      15.013  -9.502  28.196  0.00  0.00    +0.130 C 
ATOM     14  C   UNL     1      15.603  -9.372  31.728  0.00  0.00    +0.119 C 
ATOM     15  C   UNL     1      16.575  -8.268  29.704  0.00  0.00    +0.027 A 
ATOM     16  C   UNL     1      17.300  -7.172  29.987  0.00  0.00    +0.024 A 
ATOM     17  C   UNL     1      15.568  -7.155  27.762  0.00  0.00    +0.273 A 
ATOM     18  C   UNL     1      13.207  -8.477  31.459  0.00  0.00    +0.306 C 
ATOM     19  C   UNL     1      16.372  -5.946  28.126  0.00  0.00    +0.099 A 
ATOM     20  C   UNL     1      17.193  -5.989  29.182  0.00  0.00    +0.030 A 
ATOM     33  H   UNL     1      14.294  -7.652  33.024  0.00  0.00    +0.156 HD
ENDROOT
BRANCH   6  21
ATOM     21  C   UNL     1      13.003  -6.165  32.433  0.00  0.00    +0.035 A 
ATOM     23  C   UNL     1      11.628  -6.022  32.588  0.00  0.00    +0.023 A 
ATOM     24  C   UNL     1      13.824  -5.043  32.369  0.00  0.00    +0.023 A 
ATOM     26  C   UNL     1      11.068  -4.748  32.679  0.00  0.00    +0.002 A 
ATOM     27  C   UNL     1      13.265  -3.768  32.460  0.00  0.00    +0.002 A 
ATOM     28  C   UNL     1      11.887  -3.620  32.615  0.00  0.00    +0.000 A 
ENDBRANCH   6  21
BRANCH  19   7
ATOM      3  O   UNL     1      17.402  -5.628  25.523  0.00  0.00    -0.270 OA
ATOM      7  N   UNL     1      16.242  -4.832  27.350  0.00  0.00    -0.277 N 
ATOM     22  C   UNL     1      16.769  -4.719  26.063  0.00  0.00    +0.248 C 
ATOM     34  H   UNL     1      15.526  -4.172  27.643  0.00  0.00    +0.155 HD
BRANCH  22  25
ATOM      8  N   UNL     1      15.973  -1.049  24.075  0.00  0.00    -0.263 NA
ATOM     25  C   UNL     1      16.493  -3.449  25.375  0.00  0.00    +0.040 A 
ATOM     29  C   UNL     1      15.903  -3.464  24.125  0.00  0.00    +0.033 A 
ATOM     30  C   UNL     1      16.828  -2.255  25.988  0.00  0.00    +0.033 A 
ATOM     31  C   UNL     1      15.665  -2.242  23.519  0.00  0.00    +0.111 A 
ATOM     32  C   UNL     1      16.547  -1.088  25.298  0.00  0.00    +0.111 A 
ENDBRANCH  22  25
ENDBRANCH  19   7
TORSDOF 3
ENDMDL
