MODEL 1
REMARK VINA RESULT:      -3.9      0.000      0.000
REMARK  Name = 7134566
REMARK  13 active torsions:
REMARK  status: ('A' for Active; 'I' for Inactive)
REMARK    1  A    between atoms: O_6  and  C_29
REMARK    2  A    between atoms: N_9  and  C_12
REMARK    3  A    between atoms: N_10  and  C_19
REMARK    4  A    between atoms: C_13  and  C_17
REMARK    5  A    between atoms: C_18  and  C_20
REMARK    6  A    between atoms: C_19  and  C_21
REMARK    7  A    between atoms: C_19  and  C_25
REMARK    8  A    between atoms: C_20  and  C_23
REMARK    9  A    between atoms: C_21  and  C_26
REMARK   10  A    between atoms: C_21  and  C_27
REMARK   11  A    between atoms: C_22  and  C_24
REMARK   12  A    between atoms: C_23  and  C_29
REMARK   13  A    between atoms: C_24  and  C_28
REMARK                            x       y       z     vdW  Elec       q    Type
REMARK                         _______ _______ _______ _____ _____    ______ ____
ROOT
ATOM      3  O   UNL     1      -2.929   4.776  26.510  0.00  0.00    -0.276 OA
ATOM      8  N   UNL     1      -2.134   2.997  25.236  0.00  0.00    -0.290 N 
ATOM     12  C   UNL     1       0.150   1.441  24.292  0.00  0.00    +0.077 C 
ATOM     13  C   UNL     1      -2.353   1.965  24.208  0.00  0.00    +0.164 C 
ATOM     14  C   UNL     1      -1.090   1.630  23.413  0.00  0.00    +0.054 C 
ATOM     15  C   UNL     1       0.320   2.636  25.229  0.00  0.00    +0.041 C 
ATOM     16  C   UNL     1      -0.933   2.852  26.067  0.00  0.00    +0.110 C 
ATOM     18  C   UNL     1      -3.057   3.998  25.561  0.00  0.00    +0.217 C 
ENDROOT
BRANCH  13  17
ATOM      2  O   UNL     1      -3.786   0.864  25.771  0.00  0.00    -0.274 OA
ATOM     10  N   UNL     1      -2.319  -0.414  24.489  0.00  0.00    -0.302 N 
ATOM     17  C   UNL     1      -2.914   0.764  24.911  0.00  0.00    +0.234 C 
ATOM     34  H   UNL     1      -1.680  -0.392  23.701  0.00  0.00    +0.150 HD
BRANCH  10  19
ATOM     19  C   UNL     1      -2.665  -1.710  25.027  0.00  0.00    +0.161 C 
BRANCH  19  25
ATOM      5  O   UNL     1      -4.132  -3.406  24.085  0.00  0.00    -0.274 OA
ATOM     11  N   UNL     1      -4.700  -1.198  23.818  0.00  0.00    -0.328 N 
ATOM     25  C   UNL     1      -3.895  -2.216  24.282  0.00  0.00    +0.231 C 
ATOM     35  H   UNL     1      -5.548  -1.400  23.300  0.00  0.00    +0.145 HD
ATOM     36  H   UNL     1      -4.474  -0.217  23.950  0.00  0.00    +0.145 HD
ENDBRANCH  19  25
BRANCH  19  21
ATOM     21  C   UNL     1      -1.496  -2.716  24.980  0.00  0.00    +0.012 C 
ATOM     26  C   UNL     1      -0.176  -2.130  25.490  0.00  0.00    +0.009 C 
ATOM     27  C   UNL     1      -1.307  -3.274  23.566  0.00  0.00    +0.009 C 
ENDBRANCH  19  21
ENDBRANCH  10  19
ENDBRANCH  13  17
BRANCH  12   9
ATOM      4  O   UNL     1       0.674  -0.732  22.480  0.00  0.00    -0.275 OA
ATOM      9  N   UNL     1       1.330   1.258  23.482  0.00  0.00    -0.312 N 
ATOM     22  C   UNL     1       1.492   0.173  22.634  0.00  0.00    +0.218 C 
ATOM     33  H   UNL     1       2.088   1.926  23.587  0.00  0.00    +0.149 HD
BRANCH  22  24
ATOM     24  C   UNL     1       2.804   0.205  21.875  0.00  0.00    +0.138 C 
BRANCH  24  28
ATOM      1  S   UNL     1       4.141  -1.440  23.673  0.00  0.00    -0.101 S 
ATOM     28  C   UNL     1       3.940   0.046  22.847  0.00  0.00    -0.001 A 
ATOM     30  C   UNL     1       4.903   0.966  23.197  0.00  0.00    +0.011 A 
ATOM     31  C   UNL     1       5.818   0.445  24.157  0.00  0.00    +0.008 A 
ATOM     32  C   UNL     1       5.519  -0.854  24.503  0.00  0.00    +0.045 A 
ENDBRANCH  24  28
ENDBRANCH  22  24
ENDBRANCH  12   9
BRANCH  18  20
ATOM     20  C   UNL     1      -4.270   4.118  24.673  0.00  0.00    +0.107 C 
BRANCH  20  23
ATOM     23  C   UNL     1      -5.529   4.097  25.515  0.00  0.00    +0.129 C 
BRANCH  23  29
ATOM      7  O   UNL     1      -6.356   2.003  24.640  0.00  0.00    -0.251 OA
ATOM     29  C   UNL     1      -6.100   2.705  25.610  0.00  0.00    +0.305 C 
BRANCH  29   6
ATOM      6  O   UNL     1      -6.325   2.318  26.891  0.00  0.00    -0.481 OA
ATOM     37  H   UNL     1      -7.185   2.651  27.228  0.00  0.00    +0.295 HD
ENDBRANCH  29   6
ENDBRANCH  23  29
ENDBRANCH  20  23
ENDBRANCH  18  20
TORSDOF 11
ENDMDL
MODEL 2
REMARK VINA RESULT:      -2.8      1.213      1.847
REMARK  Name = 7134566
REMARK  13 active torsions:
REMARK  status: ('A' for Active; 'I' for Inactive)
REMARK    1  A    between atoms: O_6  and  C_29
REMARK    2  A    between atoms: N_9  and  C_12
REMARK    3  A    between atoms: N_10  and  C_19
REMARK    4  A    between atoms: C_13  and  C_17
REMARK    5  A    between atoms: C_18  and  C_20
REMARK    6  A    between atoms: C_19  and  C_21
REMARK    7  A    between atoms: C_19  and  C_25
REMARK    8  A    between atoms: C_20  and  C_23
REMARK    9  A    between atoms: C_21  and  C_26
REMARK   10  A    between atoms: C_21  and  C_27
REMARK   11  A    between atoms: C_22  and  C_24
REMARK   12  A    between atoms: C_23  and  C_29
REMARK   13  A    between atoms: C_24  and  C_28
REMARK                            x       y       z     vdW  Elec       q    Type
REMARK                         _______ _______ _______ _____ _____    ______ ____
ROOT
ATOM      3  O   UNL     1      -3.233   4.183  26.939  0.00  0.00    -0.276 OA
ATOM      8  N   UNL     1      -2.154   2.942  25.291  0.00  0.00    -0.290 N 
ATOM     12  C   UNL     1       0.300   1.677  24.339  0.00  0.00    +0.077 C 
ATOM     13  C   UNL     1      -2.126   2.379  23.930  0.00  0.00    +0.164 C 
ATOM     14  C   UNL     1      -0.714   2.266  23.354  0.00  0.00    +0.054 C 
ATOM     15  C   UNL     1       0.243   2.428  25.668  0.00  0.00    +0.041 C 
ATOM     16  C   UNL     1      -1.168   2.413  26.241  0.00  0.00    +0.110 C 
ATOM     18  C   UNL     1      -3.137   3.819  25.763  0.00  0.00    +0.217 C 
ENDROOT
BRANCH  13  17
ATOM      2  O   UNL     1      -4.041   0.956  24.058  0.00  0.00    -0.274 OA
ATOM     10  N   UNL     1      -1.921  -0.007  24.003  0.00  0.00    -0.302 N 
ATOM     17  C   UNL     1      -2.817   1.049  23.997  0.00  0.00    +0.234 C 
ATOM     34  H   UNL     1      -0.935   0.179  23.848  0.00  0.00    +0.150 HD
BRANCH  10  19
ATOM     19  C   UNL     1      -2.330  -1.391  24.084  0.00  0.00    +0.161 C 
BRANCH  19  25
ATOM      5  O   UNL     1      -1.251  -3.375  24.984  0.00  0.00    -0.274 OA
ATOM     11  N   UNL     1      -0.321  -1.325  25.434  0.00  0.00    -0.328 N 
ATOM     25  C   UNL     1      -1.260  -2.153  24.858  0.00  0.00    +0.231 C 
ATOM     35  H   UNL     1       0.443  -1.707  25.982  0.00  0.00    +0.145 HD
ATOM     36  H   UNL     1      -0.361  -0.314  25.359  0.00  0.00    +0.145 HD
ENDBRANCH  19  25
BRANCH  19  21
ATOM     21  C   UNL     1      -3.736  -1.572  24.695  0.00  0.00    +0.012 C 
ATOM     26  C   UNL     1      -3.723  -1.640  26.226  0.00  0.00    +0.009 C 
ATOM     27  C   UNL     1      -4.428  -2.813  24.125  0.00  0.00    +0.009 C 
ENDBRANCH  19  21
ENDBRANCH  10  19
ENDBRANCH  13  17
BRANCH  12   9
ATOM      4  O   UNL     1       1.386  -0.074  22.330  0.00  0.00    -0.275 OA
ATOM      9  N   UNL     1       1.633   1.716  23.789  0.00  0.00    -0.312 N 
ATOM     22  C   UNL     1       2.067   0.826  22.819  0.00  0.00    +0.218 C 
ATOM     33  H   UNL     1       2.288   2.390  24.175  0.00  0.00    +0.149 HD
BRANCH  22  24
ATOM     24  C   UNL     1       3.498   1.074  22.384  0.00  0.00    +0.138 C 
BRANCH  24  28
ATOM      1  S   UNL     1       5.863   0.740  23.806  0.00  0.00    -0.101 S 
ATOM     28  C   UNL     1       4.408   0.140  23.132  0.00  0.00    -0.001 A 
ATOM     30  C   UNL     1       4.243  -1.206  23.375  0.00  0.00    +0.011 A 
ATOM     31  C   UNL     1       5.326  -1.752  24.123  0.00  0.00    +0.008 A 
ATOM     32  C   UNL     1       6.277  -0.802  24.424  0.00  0.00    +0.045 A 
ENDBRANCH  24  28
ENDBRANCH  22  24
ENDBRANCH  12   9
BRANCH  18  20
ATOM     20  C   UNL     1      -4.122   4.346  24.750  0.00  0.00    +0.107 C 
BRANCH  20  23
ATOM     23  C   UNL     1      -5.517   4.351  25.342  0.00  0.00    +0.129 C 
BRANCH  23  29
ATOM      7  O   UNL     1      -5.948   2.513  26.849  0.00  0.00    -0.251 OA
ATOM     29  C   UNL     1      -5.959   2.957  25.708  0.00  0.00    +0.305 C 
BRANCH  29   6
ATOM      6  O   UNL     1      -6.350   2.233  24.630  0.00  0.00    -0.481 OA
ATOM     37  H   UNL     1      -5.815   2.443  23.834  0.00  0.00    +0.295 HD
ENDBRANCH  29   6
ENDBRANCH  23  29
ENDBRANCH  20  23
ENDBRANCH  18  20
TORSDOF 11
ENDMDL
MODEL 3
REMARK VINA RESULT:      -0.4      1.605      4.856
REMARK  Name = 7134566
REMARK  13 active torsions:
REMARK  status: ('A' for Active; 'I' for Inactive)
REMARK    1  A    between atoms: O_6  and  C_29
REMARK    2  A    between atoms: N_9  and  C_12
REMARK    3  A    between atoms: N_10  and  C_19
REMARK    4  A    between atoms: C_13  and  C_17
REMARK    5  A    between atoms: C_18  and  C_20
REMARK    6  A    between atoms: C_19  and  C_21
REMARK    7  A    between atoms: C_19  and  C_25
REMARK    8  A    between atoms: C_20  and  C_23
REMARK    9  A    between atoms: C_21  and  C_26
REMARK   10  A    between atoms: C_21  and  C_27
REMARK   11  A    between atoms: C_22  and  C_24
REMARK   12  A    between atoms: C_23  and  C_29
REMARK   13  A    between atoms: C_24  and  C_28
REMARK                            x       y       z     vdW  Elec       q    Type
REMARK                         _______ _______ _______ _____ _____    ______ ____
ROOT
ATOM      3  O   UNL     1      -4.303  -0.338  23.944  0.00  0.00    -0.276 OA
ATOM      8  N   UNL     1      -2.163   0.416  24.464  0.00  0.00    -0.290 N 
ATOM     12  C   UNL     1       0.471   1.262  23.528  0.00  0.00    +0.077 C 
ATOM     13  C   UNL     1      -1.098   0.649  25.454  0.00  0.00    +0.164 C 
ATOM     14  C   UNL     1       0.309   0.531  24.864  0.00  0.00    +0.054 C 
ATOM     15  C   UNL     1      -0.632   0.841  22.559  0.00  0.00    +0.041 C 
ATOM     16  C   UNL     1      -2.008   1.082  23.165  0.00  0.00    +0.110 C 
ATOM     18  C   UNL     1      -3.358  -0.261  24.733  0.00  0.00    +0.217 C 
ENDROOT
BRANCH  13  17
ATOM      2  O   UNL     1      -0.729   2.401  27.035  0.00  0.00    -0.274 OA
ATOM     10  N   UNL     1      -2.345   2.693  25.384  0.00  0.00    -0.302 N 
ATOM     17  C   UNL     1      -1.348   2.002  26.052  0.00  0.00    +0.234 C 
ATOM     34  H   UNL     1      -2.722   2.310  24.523  0.00  0.00    +0.150 HD
BRANCH  10  19
ATOM     19  C   UNL     1      -2.792   4.010  25.776  0.00  0.00    +0.161 C 
BRANCH  19  25
ATOM      5  O   UNL     1      -1.961   6.238  25.267  0.00  0.00    -0.274 OA
ATOM     11  N   UNL     1      -0.628   4.434  24.776  0.00  0.00    -0.328 N 
ATOM     25  C   UNL     1      -1.773   5.024  25.268  0.00  0.00    +0.231 C 
ATOM     35  H   UNL     1       0.128   4.998  24.402  0.00  0.00    +0.145 HD
ATOM     36  H   UNL     1      -0.500   3.428  24.744  0.00  0.00    +0.145 HD
ENDBRANCH  19  25
BRANCH  19  21
ATOM     21  C   UNL     1      -4.225   4.331  25.299  0.00  0.00    +0.012 C 
ATOM     26  C   UNL     1      -5.289   3.439  25.946  0.00  0.00    +0.009 C 
ATOM     27  C   UNL     1      -4.328   4.241  23.773  0.00  0.00    +0.009 C 
ENDBRANCH  19  21
ENDBRANCH  10  19
ENDBRANCH  13  17
BRANCH  12   9
ATOM      4  O   UNL     1       1.121  -0.703  21.529  0.00  0.00    -0.275 OA
ATOM      9  N   UNL     1       1.772   1.007  22.959  0.00  0.00    -0.312 N 
ATOM     22  C   UNL     1       1.988   0.034  21.995  0.00  0.00    +0.218 C 
ATOM     33  H   UNL     1       2.563   1.528  23.326  0.00  0.00    +0.149 HD
BRANCH  22  24
ATOM     24  C   UNL     1       3.431  -0.037  21.537  0.00  0.00    +0.138 C 
BRANCH  24  28
ATOM      1  S   UNL     1       4.452  -1.500  23.668  0.00  0.00    -0.101 S 
ATOM     28  C   UNL     1       4.330  -0.066  22.742  0.00  0.00    -0.001 A 
ATOM     30  C   UNL     1       5.119   0.945  23.247  0.00  0.00    +0.011 A 
ATOM     31  C   UNL     1       5.832   0.536  24.410  0.00  0.00    +0.008 A 
ATOM     32  C   UNL     1       5.562  -0.771  24.750  0.00  0.00    +0.045 A 
ENDBRANCH  24  28
ENDBRANCH  22  24
ENDBRANCH  12   9
BRANCH  18  20
ATOM     20  C   UNL     1      -3.467  -0.939  26.076  0.00  0.00    +0.107 C 
BRANCH  20  23
ATOM     23  C   UNL     1      -3.218  -2.426  25.923  0.00  0.00    +0.129 C 
BRANCH  23  29
ATOM      7  O   UNL     1      -1.743  -2.781  24.043  0.00  0.00    -0.251 OA
ATOM     29  C   UNL     1      -2.880  -2.779  24.496  0.00  0.00    +0.305 C 
BRANCH  29   6
ATOM      6  O   UNL     1      -3.979  -3.073  23.757  0.00  0.00    -0.481 OA
ATOM     37  H   UNL     1      -4.569  -2.296  23.653  0.00  0.00    +0.295 HD
ENDBRANCH  29   6
ENDBRANCH  23  29
ENDBRANCH  20  23
ENDBRANCH  18  20
TORSDOF 11
ENDMDL
