MODEL 1
REMARK VINA RESULT:       0.5      0.000      0.000
REMARK  Name = 11883985
REMARK  6 active torsions:
REMARK  status: ('A' for Active; 'I' for Inactive)
REMARK    1  A    between atoms: O_6  and  C_14
REMARK    2  A    between atoms: O_6  and  C_18
REMARK    3  A    between atoms: N_9  and  C_13
REMARK    4  A    between atoms: N_10  and  C_22
REMARK    5  A    between atoms: C_17  and  C_19
REMARK    6  A    between atoms: C_26  and  C_32
REMARK                            x       y       z     vdW  Elec       q    Type
REMARK                         _______ _______ _______ _____ _____    ______ ____
ROOT
ATOM      4  O   UNL     1      -4.227   2.332  23.974  0.00  0.00    -0.368 OA
ATOM      5  O   UNL     1      -4.040   4.936  25.581  0.00  0.00    -0.368 OA
ATOM     11  C   UNL     1      -3.079   3.885  25.349  0.00  0.00    +0.173 C 
ATOM     12  C   UNL     1      -3.850   2.580  25.338  0.00  0.00    +0.192 C 
ATOM     13  C   UNL     1      -2.523   3.989  23.948  0.00  0.00    +0.130 C 
ATOM     14  C   UNL     1      -5.047   2.901  26.200  0.00  0.00    +0.235 C 
ATOM     15  C   UNL     1      -3.598   3.303  23.123  0.00  0.00    +0.185 C 
ATOM     16  C   UNL     1      -5.321   4.344  25.841  0.00  0.00    +0.207 C 
ENDROOT
BRANCH  13   9
ATOM      7  O   UNL     1      -2.083   1.360  22.881  0.00  0.00    -0.270 OA
ATOM      9  N   UNL     1      -1.258   3.306  23.834  0.00  0.00    -0.304 N 
ATOM     17  C   UNL     1      -1.145   2.030  23.302  0.00  0.00    +0.244 C 
ATOM     36  H   UNL     1      -0.456   3.753  24.267  0.00  0.00    +0.149 HD
BRANCH  17  19
ATOM     19  C   UNL     1       0.226   1.454  23.279  0.00  0.00    +0.037 A 
ATOM     20  C   UNL     1       1.263   2.183  23.824  0.00  0.00    +0.013 A 
ATOM     21  C   UNL     1       0.417   0.212  22.713  0.00  0.00    +0.013 A 
ATOM     24  C   UNL     1       2.550   1.644  23.801  0.00  0.00    +0.013 A 
ATOM     25  C   UNL     1       1.703  -0.327  22.690  0.00  0.00    +0.013 A 
ATOM     26  C   UNL     1       2.770   0.388  23.234  0.00  0.00    +0.055 A 
BRANCH  26  32
ATOM      1  F   UNL     1       4.177  -1.536  23.427  0.00  0.00    -0.166 F 
ATOM      2  F   UNL     1       4.976   0.343  24.156  0.00  0.00    -0.166 F 
ATOM      3  F   UNL     1       4.776   0.007  22.017  0.00  0.00    -0.166 F 
ATOM     32  C   UNL     1       4.145  -0.188  23.211  0.00  0.00    +0.417 C 
ENDBRANCH  26  32
ENDBRANCH  17  19
ENDBRANCH  13   9
BRANCH  14   6
ATOM      6  O   UNL     1      -6.159   2.072  25.950  0.00  0.00    -0.442 OA
BRANCH   6  18
ATOM      8  O   UNL     1      -6.720   0.674  24.229  0.00  0.00    -0.226 OA
ATOM     10  N   UNL     1      -4.785   0.339  25.503  0.00  0.00    -0.251 N 
ATOM     18  C   UNL     1      -5.951   0.980  25.132  0.00  0.00    +0.405 C 
ATOM     37  H   UNL     1      -4.304   0.770  26.284  0.00  0.00    +0.158 HD
BRANCH  10  22
ATOM     22  C   UNL     1      -4.207  -0.816  24.930  0.00  0.00    +0.044 A 
ATOM     23  C   UNL     1      -2.865  -1.140  25.144  0.00  0.00    +0.003 A 
ATOM     27  C   UNL     1      -5.032  -1.613  24.146  0.00  0.00    +0.024 A 
ATOM     28  C   UNL     1      -2.341  -2.309  24.544  0.00  0.00    -0.016 A 
ATOM     29  C   UNL     1      -2.024  -0.339  25.935  0.00  0.00    +0.010 A 
ATOM     30  C   UNL     1      -4.517  -2.763  23.556  0.00  0.00    +0.002 A 
ATOM     31  C   UNL     1      -3.181  -3.110  23.753  0.00  0.00    +0.008 A 
ATOM     33  C   UNL     1      -0.992  -2.644  24.753  0.00  0.00    +0.008 A 
ATOM     34  C   UNL     1      -0.688  -0.686  26.132  0.00  0.00    +0.001 A 
ATOM     35  C   UNL     1      -0.173  -1.836  25.541  0.00  0.00    +0.001 A 
ENDBRANCH  10  22
ENDBRANCH   6  18
ENDBRANCH  14   6
TORSDOF 6
ENDMDL
MODEL 2
REMARK VINA RESULT:       2.5      1.913      4.420
REMARK  Name = 11883985
REMARK  6 active torsions:
REMARK  status: ('A' for Active; 'I' for Inactive)
REMARK    1  A    between atoms: O_6  and  C_14
REMARK    2  A    between atoms: O_6  and  C_18
REMARK    3  A    between atoms: N_9  and  C_13
REMARK    4  A    between atoms: N_10  and  C_22
REMARK    5  A    between atoms: C_17  and  C_19
REMARK    6  A    between atoms: C_26  and  C_32
REMARK                            x       y       z     vdW  Elec       q    Type
REMARK                         _______ _______ _______ _____ _____    ______ ____
ROOT
ATOM      4  O   UNL     1      -3.301  -0.785  25.854  0.00  0.00    -0.368 OA
ATOM      5  O   UNL     1      -4.306  -2.502  23.521  0.00  0.00    -0.368 OA
ATOM     11  C   UNL     1      -3.093  -1.740  23.694  0.00  0.00    +0.173 C 
ATOM     12  C   UNL     1      -3.467  -0.486  24.459  0.00  0.00    +0.192 C 
ATOM     13  C   UNL     1      -2.153  -2.466  24.627  0.00  0.00    +0.130 C 
ATOM     14  C   UNL     1      -4.921  -0.303  24.095  0.00  0.00    +0.235 C 
ATOM     15  C   UNL     1      -2.691  -2.078  25.993  0.00  0.00    +0.185 C 
ATOM     16  C   UNL     1      -5.412  -1.731  24.016  0.00  0.00    +0.207 C 
ENDROOT
BRANCH  13   9
ATOM      7  O   UNL     1      -1.280  -0.163  23.152  0.00  0.00    -0.270 OA
ATOM      9  N   UNL     1      -0.792  -2.020  24.452  0.00  0.00    -0.304 N 
ATOM     17  C   UNL     1      -0.468  -0.889  23.717  0.00  0.00    +0.244 C 
ATOM     36  H   UNL     1      -0.061  -2.634  24.795  0.00  0.00    +0.149 HD
BRANCH  17  19
ATOM     19  C   UNL     1       0.982  -0.578  23.609  0.00  0.00    +0.037 A 
ATOM     20  C   UNL     1       1.364   0.680  23.190  0.00  0.00    +0.013 A 
ATOM     21  C   UNL     1       1.899  -1.556  23.929  0.00  0.00    +0.013 A 
ATOM     24  C   UNL     1       2.724   0.972  23.086  0.00  0.00    +0.013 A 
ATOM     25  C   UNL     1       3.259  -1.265  23.825  0.00  0.00    +0.013 A 
ATOM     26  C   UNL     1       3.672  -0.001  23.404  0.00  0.00    +0.055 A 
BRANCH  26  32
ATOM      1  F   UNL     1       5.913  -0.454  24.106  0.00  0.00    -0.166 F 
ATOM      2  F   UNL     1       5.433   1.603  23.617  0.00  0.00    -0.166 F 
ATOM      3  F   UNL     1       5.610   0.124  22.032  0.00  0.00    -0.166 F 
ATOM     32  C   UNL     1       5.126   0.312  23.294  0.00  0.00    +0.417 C 
ENDBRANCH  26  32
ENDBRANCH  17  19
ENDBRANCH  13   9
BRANCH  14   6
ATOM      6  O   UNL     1      -5.645   0.455  25.037  0.00  0.00    -0.442 OA
BRANCH   6  18
ATOM      8  O   UNL     1      -5.661   2.428  26.193  0.00  0.00    -0.226 OA
ATOM     10  N   UNL     1      -3.969   1.917  24.659  0.00  0.00    -0.251 N 
ATOM     18  C   UNL     1      -5.128   1.689  25.375  0.00  0.00    +0.405 C 
ATOM     37  H   UNL     1      -3.712   1.162  24.033  0.00  0.00    +0.158 HD
BRANCH  10  22
ATOM     22  C   UNL     1      -3.128   3.052  24.701  0.00  0.00    +0.044 A 
ATOM     23  C   UNL     1      -1.841   2.984  25.240  0.00  0.00    +0.003 A 
ATOM     27  C   UNL     1      -3.639   4.236  24.186  0.00  0.00    +0.024 A 
ATOM     28  C   UNL     1      -1.045   4.153  25.257  0.00  0.00    -0.016 A 
ATOM     29  C   UNL     1      -1.318   1.789  25.764  0.00  0.00    +0.010 A 
ATOM     30  C   UNL     1      -2.857   5.387  24.201  0.00  0.00    +0.002 A 
ATOM     31  C   UNL     1      -1.568   5.347  24.733  0.00  0.00    +0.008 A 
ATOM     33  C   UNL     1       0.251   4.095  25.796  0.00  0.00    +0.008 A 
ATOM     34  C   UNL     1      -0.029   1.750  26.296  0.00  0.00    +0.001 A 
ATOM     35  C   UNL     1       0.754   2.901  26.313  0.00  0.00    +0.001 A 
ENDBRANCH  10  22
ENDBRANCH   6  18
ENDBRANCH  14   6
TORSDOF 6
ENDMDL
MODEL 3
REMARK VINA RESULT:       3.0      1.404      2.101
REMARK  Name = 11883985
REMARK  6 active torsions:
REMARK  status: ('A' for Active; 'I' for Inactive)
REMARK    1  A    between atoms: O_6  and  C_14
REMARK    2  A    between atoms: O_6  and  C_18
REMARK    3  A    between atoms: N_9  and  C_13
REMARK    4  A    between atoms: N_10  and  C_22
REMARK    5  A    between atoms: C_17  and  C_19
REMARK    6  A    between atoms: C_26  and  C_32
REMARK                            x       y       z     vdW  Elec       q    Type
REMARK                         _______ _______ _______ _____ _____    ______ ____
ROOT
ATOM      4  O   UNL     1      -2.142   2.562  24.395  0.00  0.00    -0.368 OA
ATOM      5  O   UNL     1      -1.522   5.549  24.709  0.00  0.00    -0.368 OA
ATOM     11  C   UNL     1      -0.686   4.380  24.841  0.00  0.00    +0.173 C 
ATOM     12  C   UNL     1      -1.540   3.299  25.472  0.00  0.00    +0.192 C 
ATOM     13  C   UNL     1      -0.350   3.826  23.476  0.00  0.00    +0.130 C 
ATOM     14  C   UNL     1      -2.563   4.098  26.243  0.00  0.00    +0.235 C 
ATOM     15  C   UNL     1      -1.586   3.008  23.147  0.00  0.00    +0.185 C 
ATOM     16  C   UNL     1      -2.787   5.288  25.338  0.00  0.00    +0.207 C 
ENDROOT
BRANCH  13   9
ATOM      7  O   UNL     1      -0.184   1.034  22.825  0.00  0.00    -0.270 OA
ATOM      9  N   UNL     1       0.831   2.998  23.524  0.00  0.00    -0.304 N 
ATOM     17  C   UNL     1       0.812   1.652  23.189  0.00  0.00    +0.244 C 
ATOM     36  H   UNL     1       1.665   3.414  23.925  0.00  0.00    +0.149 HD
BRANCH  17  19
ATOM     19  C   UNL     1       2.107   0.932  23.315  0.00  0.00    +0.037 A 
ATOM     20  C   UNL     1       3.271   1.592  22.980  0.00  0.00    +0.013 A 
ATOM     21  C   UNL     1       2.102  -0.372  23.762  0.00  0.00    +0.013 A 
ATOM     24  C   UNL     1       4.485   0.917  23.097  0.00  0.00    +0.013 A 
ATOM     25  C   UNL     1       3.317  -1.048  23.879  0.00  0.00    +0.013 A 
ATOM     26  C   UNL     1       4.509  -0.404  23.547  0.00  0.00    +0.055 A 
BRANCH  26  32
ATOM      1  F   UNL     1       6.707  -0.807  22.695  0.00  0.00    -0.166 F 
ATOM      2  F   UNL     1       5.685  -2.485  23.613  0.00  0.00    -0.166 F 
ATOM      3  F   UNL     1       6.441  -0.865  24.853  0.00  0.00    -0.166 F 
ATOM     32  C   UNL     1       5.808  -1.125  23.673  0.00  0.00    +0.417 C 
ENDBRANCH  26  32
ENDBRANCH  17  19
ENDBRANCH  13   9
BRANCH  14   6
ATOM      6  O   UNL     1      -3.755   3.391  26.495  0.00  0.00    -0.442 OA
BRANCH   6  18
ATOM      8  O   UNL     1      -4.825   2.752  24.578  0.00  0.00    -0.226 OA
ATOM     10  N   UNL     1      -3.640   1.220  25.894  0.00  0.00    -0.251 N 
ATOM     18  C   UNL     1      -4.141   2.462  25.552  0.00  0.00    +0.405 C 
ATOM     37  H   UNL     1      -3.096   1.213  26.748  0.00  0.00    +0.158 HD
BRANCH  10  22
ATOM     22  C   UNL     1      -3.799  -0.003  25.204  0.00  0.00    +0.044 A 
ATOM     23  C   UNL     1      -2.748  -0.917  25.093  0.00  0.00    +0.003 A 
ATOM     27  C   UNL     1      -5.043  -0.253  24.641  0.00  0.00    +0.024 A 
ATOM     28  C   UNL     1      -2.965  -2.124  24.389  0.00  0.00    -0.016 A 
ATOM     29  C   UNL     1      -1.486  -0.670  25.660  0.00  0.00    +0.010 A 
ATOM     30  C   UNL     1      -5.258  -1.441  23.949  0.00  0.00    +0.002 A 
ATOM     31  C   UNL     1      -4.227  -2.372  23.823  0.00  0.00    +0.008 A 
ATOM     33  C   UNL     1      -1.916  -3.051  24.272  0.00  0.00    +0.008 A 
ATOM     34  C   UNL     1      -0.455  -1.600  25.533  0.00  0.00    +0.001 A 
ATOM     35  C   UNL     1      -0.669  -2.788  24.841  0.00  0.00    +0.001 A 
ENDBRANCH  10  22
ENDBRANCH   6  18
ENDBRANCH  14   6
TORSDOF 6
ENDMDL
