MODEL 1
REMARK VINA RESULT:      -4.8      0.000      0.000
REMARK  Name = 26743958
REMARK  5 active torsions:
REMARK  status: ('A' for Active; 'I' for Inactive)
REMARK    1  A    between atoms: O_2  and  C_10
REMARK    2  A    between atoms: N_4  and  C_12
REMARK    3  A    between atoms: C_8  and  C_13
REMARK    4  A    between atoms: C_12  and  C_14
REMARK    5  A    between atoms: C_17  and  C_20
REMARK                            x       y       z     vdW  Elec       q    Type
REMARK                         _______ _______ _______ _____ _____    ______ ____
ROOT
ATOM      4  N   UNL     1      -4.623   1.601  25.362  0.00  0.00    -0.285 NA
ATOM      8  C   UNL     1      -3.998   2.427  24.308  0.00  0.00    +0.149 C 
ATOM      9  C   UNL     1      -4.473   3.862  24.600  0.00  0.00    +0.061 C 
ATOM     10  C   UNL     1      -5.393   3.736  25.807  0.00  0.00    +0.130 C 
ATOM     11  C   UNL     1      -5.851   2.291  25.754  0.00  0.00    +0.116 C 
ENDROOT
BRANCH   8  13
ATOM      3  O   UNL     1      -1.801   3.128  25.114  0.00  0.00    -0.336 OA
ATOM      5  N   UNL     1      -1.735   1.501  23.577  0.00  0.00    -0.190 NA
ATOM      6  N   UNL     1      -0.446   2.831  24.920  0.00  0.00    -0.056 NA
ATOM     13  C   UNL     1      -2.490   2.300  24.286  0.00  0.00    +0.245 A 
ATOM     17  C   UNL     1      -0.489   1.863  23.999  0.00  0.00    +0.204 A 
BRANCH  17  20
ATOM      7  N   UNL     1       3.086   1.311  23.135  0.00  0.00    -0.263 NA
ATOM     20  C   UNL     1       0.694   1.237  23.484  0.00  0.00    +0.041 A 
ATOM     22  C   UNL     1       0.633  -0.000  22.852  0.00  0.00    +0.014 A 
ATOM     23  C   UNL     1       1.933   1.845  23.599  0.00  0.00    +0.122 A 
ATOM     24  C   UNL     1       1.797  -0.583  22.362  0.00  0.00    +0.020 A 
ATOM     25  C   UNL     1       2.986   0.107  22.528  0.00  0.00    +0.111 A 
ENDBRANCH  17  20
ENDBRANCH   8  13
BRANCH  10   2
ATOM      2  O   UNL     1      -6.481   4.635  25.705  0.00  0.00    -0.390 OA
ATOM     26  H   UNL     1      -7.258   4.199  26.096  0.00  0.00    +0.210 HD
ENDBRANCH  10   2
BRANCH   4  12
ATOM     12  C   UNL     1      -4.875   0.229  24.942  0.00  0.00    +0.120 C 
BRANCH  12  14
ATOM      1 CL   UNL     1       0.078  -3.165  25.313  0.00  0.00    -0.084 Cl
ATOM     14  C   UNL     1      -3.635  -0.621  25.035  0.00  0.00    -0.033 A 
ATOM     15  C   UNL     1      -2.670  -0.342  26.002  0.00  0.00    +0.006 A 
ATOM     16  C   UNL     1      -3.452  -1.687  24.153  0.00  0.00    +0.006 A 
ATOM     18  C   UNL     1      -1.522  -1.129  26.088  0.00  0.00    +0.020 A 
ATOM     19  C   UNL     1      -2.304  -2.473  24.240  0.00  0.00    +0.020 A 
ATOM     21  C   UNL     1      -1.338  -2.194  25.207  0.00  0.00    +0.041 A 
ENDBRANCH  12  14
ENDBRANCH   4  12
TORSDOF 5
ENDMDL
MODEL 2
REMARK VINA RESULT:      -2.5      2.033      3.065
REMARK  Name = 26743958
REMARK  5 active torsions:
REMARK  status: ('A' for Active; 'I' for Inactive)
REMARK    1  A    between atoms: O_2  and  C_10
REMARK    2  A    between atoms: N_4  and  C_12
REMARK    3  A    between atoms: C_8  and  C_13
REMARK    4  A    between atoms: C_12  and  C_14
REMARK    5  A    between atoms: C_17  and  C_20
REMARK                            x       y       z     vdW  Elec       q    Type
REMARK                         _______ _______ _______ _____ _____    ______ ____
ROOT
ATOM      4  N   UNL     1      -2.411   2.538  24.536  0.00  0.00    -0.285 NA
ATOM      8  C   UNL     1      -1.326   2.903  23.602  0.00  0.00    +0.149 C 
ATOM      9  C   UNL     1      -0.735   4.204  24.174  0.00  0.00    +0.061 C 
ATOM     10  C   UNL     1      -1.580   4.515  25.402  0.00  0.00    +0.130 C 
ATOM     11  C   UNL     1      -2.883   3.787  25.130  0.00  0.00    +0.116 C 
ENDROOT
BRANCH   8  13
ATOM      3  O   UNL     1      -0.758   0.580  23.093  0.00  0.00    -0.336 OA
ATOM      5  N   UNL     1       1.004   1.860  23.616  0.00  0.00    -0.190 NA
ATOM      6  N   UNL     1       0.364  -0.254  23.018  0.00  0.00    -0.056 NA
ATOM     13  C   UNL     1      -0.293   1.806  23.451  0.00  0.00    +0.245 A 
ATOM     17  C   UNL     1       1.364   0.573  23.341  0.00  0.00    +0.204 A 
BRANCH  17  20
ATOM      7  N   UNL     1       4.327  -1.624  23.812  0.00  0.00    -0.263 NA
ATOM     20  C   UNL     1       2.731   0.144  23.394  0.00  0.00    +0.041 A 
ATOM     22  C   UNL     1       3.769   1.020  23.096  0.00  0.00    +0.014 A 
ATOM     23  C   UNL     1       3.060  -1.156  23.743  0.00  0.00    +0.122 A 
ATOM     24  C   UNL     1       5.086   0.576  23.156  0.00  0.00    +0.020 A 
ATOM     25  C   UNL     1       5.309  -0.743  23.516  0.00  0.00    +0.111 A 
ENDBRANCH  17  20
ENDBRANCH   8  13
BRANCH  10   2
ATOM      2  O   UNL     1      -1.776   5.910  25.537  0.00  0.00    -0.390 OA
ATOM     26  H   UNL     1      -2.292   6.056  26.348  0.00  0.00    +0.210 HD
ENDBRANCH  10   2
BRANCH   4  12
ATOM     12  C   UNL     1      -3.488   1.790  23.902  0.00  0.00    +0.120 C 
BRANCH  12  14
ATOM      1 CL   UNL     1      -3.448  -4.003  25.522  0.00  0.00    -0.084 Cl
ATOM     14  C   UNL     1      -3.478   0.340  24.308  0.00  0.00    -0.033 A 
ATOM     15  C   UNL     1      -4.066  -0.618  23.483  0.00  0.00    +0.006 A 
ATOM     16  C   UNL     1      -2.882  -0.044  25.509  0.00  0.00    +0.006 A 
ATOM     18  C   UNL     1      -4.057  -1.962  23.858  0.00  0.00    +0.020 A 
ATOM     19  C   UNL     1      -2.872  -1.387  25.884  0.00  0.00    +0.020 A 
ATOM     21  C   UNL     1      -3.460  -2.346  25.058  0.00  0.00    +0.041 A 
ENDBRANCH  12  14
ENDBRANCH   4  12
TORSDOF 5
ENDMDL
MODEL 3
REMARK VINA RESULT:      -2.5      3.047      4.706
REMARK  Name = 26743958
REMARK  5 active torsions:
REMARK  status: ('A' for Active; 'I' for Inactive)
REMARK    1  A    between atoms: O_2  and  C_10
REMARK    2  A    between atoms: N_4  and  C_12
REMARK    3  A    between atoms: C_8  and  C_13
REMARK    4  A    between atoms: C_12  and  C_14
REMARK    5  A    between atoms: C_17  and  C_20
REMARK                            x       y       z     vdW  Elec       q    Type
REMARK                         _______ _______ _______ _____ _____    ______ ____
ROOT
ATOM      4  N   UNL     1      -2.927  -0.414  24.768  0.00  0.00    -0.285 NA
ATOM      8  C   UNL     1      -1.814  -1.384  24.729  0.00  0.00    +0.149 C 
ATOM      9  C   UNL     1      -2.372  -2.593  23.955  0.00  0.00    +0.061 C 
ATOM     10  C   UNL     1      -3.816  -2.227  23.640  0.00  0.00    +0.130 C 
ATOM     11  C   UNL     1      -4.160  -1.196  24.698  0.00  0.00    +0.116 C 
ENDROOT
BRANCH   8  13
ATOM      3  O   UNL     1      -0.746   0.125  23.130  0.00  0.00    -0.336 OA
ATOM      5  N   UNL     1       0.692  -1.084  24.349  0.00  0.00    -0.190 NA
ATOM      6  N   UNL     1       0.535   0.499  22.705  0.00  0.00    -0.056 NA
ATOM     13  C   UNL     1      -0.562  -0.811  24.099  0.00  0.00    +0.245 A 
ATOM     17  C   UNL     1       1.328  -0.257  23.470  0.00  0.00    +0.204 A 
BRANCH  17  20
ATOM      7  N   UNL     1       4.891  -1.280  23.767  0.00  0.00    -0.263 NA
ATOM     20  C   UNL     1       2.759  -0.208  23.381  0.00  0.00    +0.041 A 
ATOM     22  C   UNL     1       3.406   0.902  22.847  0.00  0.00    +0.014 A 
ATOM     23  C   UNL     1       3.540  -1.263  23.822  0.00  0.00    +0.122 A 
ATOM     24  C   UNL     1       4.795   0.922  22.774  0.00  0.00    +0.020 A 
ATOM     25  C   UNL     1       5.484  -0.184  23.242  0.00  0.00    +0.111 A 
ENDBRANCH  17  20
ENDBRANCH   8  13
BRANCH  10   2
ATOM      2  O   UNL     1      -4.652  -3.365  23.725  0.00  0.00    -0.390 OA
ATOM     26  H   UNL     1      -4.533  -3.877  22.906  0.00  0.00    +0.210 HD
ENDBRANCH  10   2
BRANCH   4  12
ATOM     12  C   UNL     1      -2.893   0.453  25.938  0.00  0.00    +0.120 C 
BRANCH  12  14
ATOM      1 CL   UNL     1      -0.785   5.927  24.605  0.00  0.00    -0.084 Cl
ATOM     14  C   UNL     1      -2.366   1.823  25.604  0.00  0.00    -0.033 A 
ATOM     15  C   UNL     1      -1.024   2.128  25.833  0.00  0.00    +0.006 A 
ATOM     16  C   UNL     1      -3.219   2.788  25.068  0.00  0.00    +0.006 A 
ATOM     18  C   UNL     1      -0.535   3.398  25.524  0.00  0.00    +0.020 A 
ATOM     19  C   UNL     1      -2.729   4.057  24.759  0.00  0.00    +0.020 A 
ATOM     21  C   UNL     1      -1.388   4.361  24.986  0.00  0.00    +0.041 A 
ENDBRANCH  12  14
ENDBRANCH   4  12
TORSDOF 5
ENDMDL
MODEL 4
REMARK VINA RESULT:      -1.8      2.718      3.380
REMARK  Name = 26743958
REMARK  5 active torsions:
REMARK  status: ('A' for Active; 'I' for Inactive)
REMARK    1  A    between atoms: O_2  and  C_10
REMARK    2  A    between atoms: N_4  and  C_12
REMARK    3  A    between atoms: C_8  and  C_13
REMARK    4  A    between atoms: C_12  and  C_14
REMARK    5  A    between atoms: C_17  and  C_20
REMARK                            x       y       z     vdW  Elec       q    Type
REMARK                         _______ _______ _______ _____ _____    ______ ____
ROOT
ATOM      4  N   UNL     1      -3.985   1.907  24.869  0.00  0.00    -0.285 NA
ATOM      8  C   UNL     1      -3.192   3.142  24.701  0.00  0.00    +0.149 C 
ATOM      9  C   UNL     1      -4.044   4.247  25.355  0.00  0.00    +0.061 C 
ATOM     10  C   UNL     1      -5.313   3.544  25.820  0.00  0.00    +0.130 C 
ATOM     11  C   UNL     1      -5.386   2.318  24.929  0.00  0.00    +0.116 C 
ENDROOT
BRANCH   8  13
ATOM      3  O   UNL     1      -0.765   3.047  24.434  0.00  0.00    -0.336 OA
ATOM      5  N   UNL     1      -1.458   2.928  26.561  0.00  0.00    -0.190 NA
ATOM      6  N   UNL     1       0.392   2.936  25.215  0.00  0.00    -0.056 NA
ATOM     13  C   UNL     1      -1.808   3.034  25.305  0.00  0.00    +0.245 A 
ATOM     17  C   UNL     1      -0.098   2.870  26.456  0.00  0.00    +0.204 A 
BRANCH  17  20
ATOM      7  N   UNL     1       2.955   2.876  28.579  0.00  0.00    -0.263 NA
ATOM     20  C   UNL     1       0.743   2.749  27.612  0.00  0.00    +0.041 A 
ATOM     22  C   UNL     1       0.213   2.403  28.851  0.00  0.00    +0.014 A 
ATOM     23  C   UNL     1       2.107   2.974  27.530  0.00  0.00    +0.122 A 
ATOM     24  C   UNL     1       1.053   2.293  29.954  0.00  0.00    +0.020 A 
ATOM     25  C   UNL     1       2.404   2.538  29.767  0.00  0.00    +0.111 A 
ENDBRANCH  17  20
ENDBRANCH   8  13
BRANCH  10   2
ATOM      2  O   UNL     1      -6.441   4.382  25.653  0.00  0.00    -0.390 OA
ATOM     26  H   UNL     1      -6.129   5.302  25.689  0.00  0.00    +0.210 HD
ENDBRANCH  10   2
BRANCH   4  12
ATOM     12  C   UNL     1      -3.746   0.925  23.819  0.00  0.00    +0.120 C 
BRANCH  12  14
ATOM      1 CL   UNL     1       0.265  -3.226  25.511  0.00  0.00    -0.084 Cl
ATOM     14  C   UNL     1      -2.741  -0.114  24.242  0.00  0.00    -0.033 A 
ATOM     15  C   UNL     1      -3.173  -1.296  24.843  0.00  0.00    +0.006 A 
ATOM     16  C   UNL     1      -1.379   0.106  24.035  0.00  0.00    +0.006 A 
ATOM     18  C   UNL     1      -2.243  -2.259  25.236  0.00  0.00    +0.020 A 
ATOM     19  C   UNL     1      -0.450  -0.857  24.427  0.00  0.00    +0.020 A 
ATOM     21  C   UNL     1      -0.882  -2.039  25.027  0.00  0.00    +0.041 A 
ENDBRANCH  12  14
ENDBRANCH   4  12
TORSDOF 5
ENDMDL
MODEL 5
REMARK VINA RESULT:      -1.8      2.249      5.922
REMARK  Name = 26743958
REMARK  5 active torsions:
REMARK  status: ('A' for Active; 'I' for Inactive)
REMARK    1  A    between atoms: O_2  and  C_10
REMARK    2  A    between atoms: N_4  and  C_12
REMARK    3  A    between atoms: C_8  and  C_13
REMARK    4  A    between atoms: C_12  and  C_14
REMARK    5  A    between atoms: C_17  and  C_20
REMARK                            x       y       z     vdW  Elec       q    Type
REMARK                         _______ _______ _______ _____ _____    ______ ____
ROOT
ATOM      4  N   UNL     1       0.202  -0.151  23.926  0.00  0.00    -0.285 NA
ATOM      8  C   UNL     1       0.522   1.143  24.565  0.00  0.00    +0.149 C 
ATOM      9  C   UNL     1       1.624   1.756  23.681  0.00  0.00    +0.061 C 
ATOM     10  C   UNL     1       1.887   0.717  22.599  0.00  0.00    +0.130 C 
ATOM     11  C   UNL     1       1.414  -0.579  23.231  0.00  0.00    +0.116 C 
ENDROOT
BRANCH   8  13
ATOM      3  O   UNL     1      -0.481   3.371  24.512  0.00  0.00    -0.336 OA
ATOM      5  N   UNL     1      -1.928   1.727  24.977  0.00  0.00    -0.190 NA
ATOM      6  N   UNL     1      -1.726   3.987  24.687  0.00  0.00    -0.056 NA
ATOM     13  C   UNL     1      -0.689   2.041  24.700  0.00  0.00    +0.245 A 
ATOM     17  C   UNL     1      -2.528   2.952  24.958  0.00  0.00    +0.204 A 
BRANCH  17  20
ATOM      7  N   UNL     1      -5.784   4.574  25.729  0.00  0.00    -0.263 NA
ATOM     20  C   UNL     1      -3.930   3.110  25.213  0.00  0.00    +0.041 A 
ATOM     22  C   UNL     1      -4.789   2.016  25.198  0.00  0.00    +0.014 A 
ATOM     23  C   UNL     1      -4.473   4.356  25.481  0.00  0.00    +0.122 A 
ATOM     24  C   UNL     1      -6.145   2.200  25.449  0.00  0.00    +0.020 A 
ATOM     25  C   UNL     1      -6.587   3.487  25.706  0.00  0.00    +0.111 A 
ENDBRANCH  17  20
ENDBRANCH   8  13
BRANCH  10   2
ATOM      2  O   UNL     1       3.262   0.670  22.272  0.00  0.00    -0.390 OA
ATOM     26  H   UNL     1       3.454   1.435  21.703  0.00  0.00    +0.210 HD
ENDBRANCH  10   2
BRANCH   4  12
ATOM     12  C   UNL     1      -0.274  -1.154  24.868  0.00  0.00    +0.120 C 
BRANCH  12  14
ATOM      1 CL   UNL     1      -5.791  -3.098  23.466  0.00  0.00    -0.084 Cl
ATOM     14  C   UNL     1      -1.655  -1.641  24.517  0.00  0.00    -0.033 A 
ATOM     15  C   UNL     1      -2.631  -0.732  24.108  0.00  0.00    +0.006 A 
ATOM     16  C   UNL     1      -1.959  -3.000  24.603  0.00  0.00    +0.006 A 
ATOM     18  C   UNL     1      -3.910  -1.183  23.783  0.00  0.00    +0.020 A 
ATOM     19  C   UNL     1      -3.238  -3.450  24.277  0.00  0.00    +0.020 A 
ATOM     21  C   UNL     1      -4.214  -2.542  23.867  0.00  0.00    +0.041 A 
ENDBRANCH  12  14
ENDBRANCH   4  12
TORSDOF 5
ENDMDL
