MODEL 1
REMARK VINA RESULT:      -3.3      0.000      0.000
REMARK  Name = 75536784
REMARK  9 active torsions:
REMARK  status: ('A' for Active; 'I' for Inactive)
REMARK    1  A    between atoms: O_3  and  C_9
REMARK    2  A    between atoms: O_5  and  C_26
REMARK    3  A    between atoms: O_5  and  C_27
REMARK    4  A    between atoms: N_6  and  C_8
REMARK    5  A    between atoms: N_6  and  C_13
REMARK    6  A    between atoms: N_7  and  C_12
REMARK    7  A    between atoms: C_10  and  C_12
REMARK    8  A    between atoms: C_13  and  C_14
REMARK    9  A    between atoms: C_15  and  C_18
REMARK                            x       y       z     vdW  Elec       q    Type
REMARK                         _______ _______ _______ _____ _____    ______ ____
ROOT
ATOM      2  O   UNL     1      -1.422  -2.652  23.683  0.00  0.00    -0.371 OA
ATOM      8  C   UNL     1       0.064  -1.090  24.680  0.00  0.00    +0.111 C 
ATOM      9  C   UNL     1      -1.230  -1.118  25.473  0.00  0.00    +0.164 C 
ATOM     10  C   UNL     1      -1.800  -2.468  25.058  0.00  0.00    +0.165 C 
ATOM     11  C   UNL     1      -0.374  -1.719  23.368  0.00  0.00    +0.181 C 
ENDROOT
BRANCH   9   3
ATOM      3  O   UNL     1      -1.016  -1.044  26.869  0.00  0.00    -0.388 OA
ATOM     29  H   UNL     1      -1.833  -1.320  27.319  0.00  0.00    +0.210 HD
ENDBRANCH   9   3
BRANCH   8   6
ATOM      6  N   UNL     1       0.617   0.244  24.513  0.00  0.00    -0.305 NA
ATOM     28  H   UNL     1       1.568   0.167  24.153  0.00  0.00    +0.123 HD
BRANCH   6  13
ATOM     13  C   UNL     1      -0.181   1.029  23.579  0.00  0.00    +0.116 C 
BRANCH  13  14
ATOM      1  F   UNL     1      -1.787   5.946  25.813  0.00  0.00    -0.205 F 
ATOM     14  C   UNL     1      -0.609   2.344  24.175  0.00  0.00    -0.033 A 
ATOM     16  C   UNL     1      -0.428   3.527  23.460  0.00  0.00    +0.008 A 
ATOM     17  C   UNL     1      -1.190   2.377  25.443  0.00  0.00    +0.008 A 
ATOM     19  C   UNL     1      -0.825   4.745  24.013  0.00  0.00    +0.038 A 
ATOM     20  C   UNL     1      -1.587   3.594  25.996  0.00  0.00    +0.038 A 
ATOM     21  C   UNL     1      -1.406   4.777  25.281  0.00  0.00    +0.123 A 
ENDBRANCH  13  14
ENDBRANCH   6  13
ENDBRANCH   8   6
BRANCH  10  12
ATOM     12  C   UNL     1      -3.310  -2.549  25.191  0.00  0.00    +0.138 C 
BRANCH  12   7
ATOM      4  O   UNL     1      -3.885  -0.537  23.225  0.00  0.00    -0.270 OA
ATOM      7  N   UNL     1      -3.882  -1.255  25.431  0.00  0.00    -0.309 N 
ATOM     15  C   UNL     1      -4.127  -0.339  24.413  0.00  0.00    +0.244 C 
ATOM     30  H   UNL     1      -4.040  -1.001  26.401  0.00  0.00    +0.149 HD
BRANCH  15  18
ATOM     18  C   UNL     1      -4.700   0.967  24.829  0.00  0.00    +0.037 A 
ATOM     22  C   UNL     1      -4.261   2.145  24.225  0.00  0.00    +0.016 A 
ATOM     23  C   UNL     1      -5.675   1.016  25.825  0.00  0.00    +0.016 A 
ATOM     24  C   UNL     1      -4.797   3.372  24.616  0.00  0.00    +0.046 A 
ATOM     25  C   UNL     1      -6.211   2.243  26.217  0.00  0.00    +0.046 A 
ATOM     26  C   UNL     1      -5.772   3.420  25.612  0.00  0.00    +0.120 A 
BRANCH  26   5
ATOM      5  O   UNL     1      -6.295   4.618  25.994  0.00  0.00    -0.495 OA
ATOM     27  C   UNL     1      -6.279   5.671  25.030  0.00  0.00    +0.277 C 
ENDBRANCH  26   5
ENDBRANCH  15  18
ENDBRANCH  12   7
ENDBRANCH  10  12
TORSDOF 8
ENDMDL
MODEL 2
REMARK VINA RESULT:      -3.1      2.960      7.033
REMARK  Name = 75536784
REMARK  9 active torsions:
REMARK  status: ('A' for Active; 'I' for Inactive)
REMARK    1  A    between atoms: O_3  and  C_9
REMARK    2  A    between atoms: O_5  and  C_26
REMARK    3  A    between atoms: O_5  and  C_27
REMARK    4  A    between atoms: N_6  and  C_8
REMARK    5  A    between atoms: N_6  and  C_13
REMARK    6  A    between atoms: N_7  and  C_12
REMARK    7  A    between atoms: C_10  and  C_12
REMARK    8  A    between atoms: C_13  and  C_14
REMARK    9  A    between atoms: C_15  and  C_18
REMARK                            x       y       z     vdW  Elec       q    Type
REMARK                         _______ _______ _______ _____ _____    ______ ____
ROOT
ATOM      2  O   UNL     1      -3.369   3.746  23.479  0.00  0.00    -0.371 OA
ATOM      8  C   UNL     1      -5.252   2.738  24.517  0.00  0.00    +0.111 C 
ATOM      9  C   UNL     1      -4.294   3.221  25.591  0.00  0.00    +0.164 C 
ATOM     10  C   UNL     1      -3.484   4.253  24.819  0.00  0.00    +0.165 C 
ATOM     11  C   UNL     1      -4.345   2.706  23.298  0.00  0.00    +0.181 C 
ENDROOT
BRANCH   9   3
ATOM      3  O   UNL     1      -4.960   3.795  26.698  0.00  0.00    -0.388 OA
ATOM     29  H   UNL     1      -5.910   3.604  26.617  0.00  0.00    +0.210 HD
ENDBRANCH   9   3
BRANCH   8   6
ATOM      6  N   UNL     1      -5.854   1.448  24.809  0.00  0.00    -0.305 NA
ATOM     28  H   UNL     1      -5.845   0.878  23.964  0.00  0.00    +0.123 HD
BRANCH   6  13
ATOM     13  C   UNL     1      -5.119   0.751  25.858  0.00  0.00    +0.116 C 
BRANCH  13  14
ATOM      1  F   UNL     1      -1.994  -3.455  23.786  0.00  0.00    -0.205 F 
ATOM     14  C   UNL     1      -4.283  -0.373  25.305  0.00  0.00    -0.033 A 
ATOM     16  C   UNL     1      -3.228  -0.892  26.054  0.00  0.00    +0.008 A 
ATOM     17  C   UNL     1      -4.567  -0.896  24.043  0.00  0.00    +0.008 A 
ATOM     19  C   UNL     1      -2.454  -1.934  25.541  0.00  0.00    +0.038 A 
ATOM     20  C   UNL     1      -3.793  -1.937  23.530  0.00  0.00    +0.038 A 
ATOM     21  C   UNL     1      -2.738  -2.456  24.279  0.00  0.00    +0.123 A 
ENDBRANCH  13  14
ENDBRANCH   6  13
ENDBRANCH   8   6
BRANCH  10  12
ATOM     12  C   UNL     1      -2.101   4.488  25.401  0.00  0.00    +0.138 C 
BRANCH  12   7
ATOM      4  O   UNL     1      -1.707   1.671  25.791  0.00  0.00    -0.270 OA
ATOM      7  N   UNL     1      -1.118   3.663  24.758  0.00  0.00    -0.309 N 
ATOM     15  C   UNL     1      -0.999   2.300  25.009  0.00  0.00    +0.244 C 
ATOM     30  H   UNL     1      -0.454   4.136  24.154  0.00  0.00    +0.149 HD
BRANCH  15  18
ATOM     18  C   UNL     1       0.087   1.592  24.282  0.00  0.00    +0.037 A 
ATOM     22  C   UNL     1      -0.103   0.279  23.851  0.00  0.00    +0.016 A 
ATOM     23  C   UNL     1       1.297   2.239  24.034  0.00  0.00    +0.016 A 
ATOM     24  C   UNL     1       0.916  -0.387  23.170  0.00  0.00    +0.046 A 
ATOM     25  C   UNL     1       2.317   1.573  23.353  0.00  0.00    +0.046 A 
ATOM     26  C   UNL     1       2.126   0.261  22.921  0.00  0.00    +0.120 A 
BRANCH  26   5
ATOM      5  O   UNL     1       3.121  -0.389  22.257  0.00  0.00    -0.495 OA
ATOM     27  C   UNL     1       4.455   0.065  22.481  0.00  0.00    +0.277 C 
ENDBRANCH  26   5
ENDBRANCH  15  18
ENDBRANCH  12   7
ENDBRANCH  10  12
TORSDOF 8
ENDMDL
MODEL 3
REMARK VINA RESULT:      -2.4      2.340      5.678
REMARK  Name = 75536784
REMARK  9 active torsions:
REMARK  status: ('A' for Active; 'I' for Inactive)
REMARK    1  A    between atoms: O_3  and  C_9
REMARK    2  A    between atoms: O_5  and  C_26
REMARK    3  A    between atoms: O_5  and  C_27
REMARK    4  A    between atoms: N_6  and  C_8
REMARK    5  A    between atoms: N_6  and  C_13
REMARK    6  A    between atoms: N_7  and  C_12
REMARK    7  A    between atoms: C_10  and  C_12
REMARK    8  A    between atoms: C_13  and  C_14
REMARK    9  A    between atoms: C_15  and  C_18
REMARK                            x       y       z     vdW  Elec       q    Type
REMARK                         _______ _______ _______ _____ _____    ______ ____
ROOT
ATOM      2  O   UNL     1      -6.185   1.627  26.112  0.00  0.00    -0.371 OA
ATOM      8  C   UNL     1      -5.204   3.638  25.316  0.00  0.00    +0.111 C 
ATOM      9  C   UNL     1      -4.554   2.459  24.615  0.00  0.00    +0.164 C 
ATOM     10  C   UNL     1      -5.608   1.378  24.819  0.00  0.00    +0.165 C 
ATOM     11  C   UNL     1      -5.835   2.961  26.521  0.00  0.00    +0.181 C 
ENDROOT
BRANCH   9   3
ATOM      3  O   UNL     1      -4.311   2.705  23.244  0.00  0.00    -0.388 OA
ATOM     29  H   UNL     1      -4.850   3.466  22.969  0.00  0.00    +0.210 HD
ENDBRANCH   9   3
BRANCH   8   6
ATOM      6  N   UNL     1      -4.267   4.687  25.682  0.00  0.00    -0.305 NA
ATOM     28  H   UNL     1      -4.779   5.451  26.123  0.00  0.00    +0.123 HD
BRANCH   6  13
ATOM     13  C   UNL     1      -3.261   4.192  26.613  0.00  0.00    +0.116 C 
BRANCH  13  14
ATOM      1  F   UNL     1       1.478   2.671  23.973  0.00  0.00    -0.205 F 
ATOM     14  C   UNL     1      -1.995   3.786  25.907  0.00  0.00    -0.033 A 
ATOM     16  C   UNL     1      -1.596   4.454  24.751  0.00  0.00    +0.008 A 
ATOM     17  C   UNL     1      -1.220   2.741  26.412  0.00  0.00    +0.008 A 
ATOM     19  C   UNL     1      -0.422   4.078  24.096  0.00  0.00    +0.038 A 
ATOM     20  C   UNL     1      -0.047   2.364  25.758  0.00  0.00    +0.038 A 
ATOM     21  C   UNL     1       0.352   3.033  24.601  0.00  0.00    +0.123 A 
ENDBRANCH  13  14
ENDBRANCH   6  13
ENDBRANCH   8   6
BRANCH  10  12
ATOM     12  C   UNL     1      -5.042  -0.029  24.771  0.00  0.00    +0.138 C 
BRANCH  12   7
ATOM      4  O   UNL     1      -2.622  -0.834  26.090  0.00  0.00    -0.270 OA
ATOM      7  N   UNL     1      -3.721  -0.041  24.208  0.00  0.00    -0.309 N 
ATOM     15  C   UNL     1      -2.601  -0.449  24.924  0.00  0.00    +0.244 C 
ATOM     30  H   UNL     1      -3.625   0.333  23.269  0.00  0.00    +0.149 HD
BRANCH  15  18
ATOM     18  C   UNL     1      -1.302  -0.379  24.206  0.00  0.00    +0.037 A 
ATOM     22  C   UNL     1      -1.178   0.414  23.066  0.00  0.00    +0.016 A 
ATOM     23  C   UNL     1      -0.208  -1.108  24.671  0.00  0.00    +0.016 A 
ATOM     24  C   UNL     1       0.041   0.480  22.390  0.00  0.00    +0.046 A 
ATOM     25  C   UNL     1       1.011  -1.043  23.996  0.00  0.00    +0.046 A 
ATOM     26  C   UNL     1       1.135  -0.249  22.856  0.00  0.00    +0.120 A 
BRANCH  26   5
ATOM      5  O   UNL     1       2.325  -0.185  22.197  0.00  0.00    -0.495 OA
ATOM     27  C   UNL     1       3.380   0.538  22.830  0.00  0.00    +0.277 C 
ENDBRANCH  26   5
ENDBRANCH  15  18
ENDBRANCH  12   7
ENDBRANCH  10  12
TORSDOF 8
ENDMDL
MODEL 4
REMARK VINA RESULT:      -2.3      2.966      3.794
REMARK  Name = 75536784
REMARK  9 active torsions:
REMARK  status: ('A' for Active; 'I' for Inactive)
REMARK    1  A    between atoms: O_3  and  C_9
REMARK    2  A    between atoms: O_5  and  C_26
REMARK    3  A    between atoms: O_5  and  C_27
REMARK    4  A    between atoms: N_6  and  C_8
REMARK    5  A    between atoms: N_6  and  C_13
REMARK    6  A    between atoms: N_7  and  C_12
REMARK    7  A    between atoms: C_10  and  C_12
REMARK    8  A    between atoms: C_13  and  C_14
REMARK    9  A    between atoms: C_15  and  C_18
REMARK                            x       y       z     vdW  Elec       q    Type
REMARK                         _______ _______ _______ _____ _____    ______ ____
ROOT
ATOM      2  O   UNL     1      -1.576  -2.823  23.788  0.00  0.00    -0.371 OA
ATOM      8  C   UNL     1      -0.028  -1.101  24.316  0.00  0.00    +0.111 C 
ATOM      9  C   UNL     1      -1.226  -0.990  25.241  0.00  0.00    +0.164 C 
ATOM     10  C   UNL     1      -1.806  -2.395  25.141  0.00  0.00    +0.165 C 
ATOM     11  C   UNL     1      -0.592  -1.958  23.195  0.00  0.00    +0.181 C 
ENDROOT
BRANCH   9   3
ATOM      3  O   UNL     1      -0.862  -0.664  26.568  0.00  0.00    -0.388 OA
ATOM     29  H   UNL     1      -1.666  -0.407  27.051  0.00  0.00    +0.210 HD
ENDBRANCH   9   3
BRANCH   8   6
ATOM      6  N   UNL     1       0.472   0.182  23.852  0.00  0.00    -0.305 NA
ATOM     28  H   UNL     1       1.039   0.604  24.587  0.00  0.00    +0.123 HD
BRANCH   6  13
ATOM     13  C   UNL     1       1.289   0.026  22.654  0.00  0.00    +0.116 C 
BRANCH  13  14
ATOM      1  F   UNL     1       6.783  -0.206  23.881  0.00  0.00    -0.205 F 
ATOM     14  C   UNL     1       2.757  -0.035  22.982  0.00  0.00    -0.033 A 
ATOM     16  C   UNL     1       3.567   1.079  22.768  0.00  0.00    +0.008 A 
ATOM     17  C   UNL     1       3.307  -1.208  23.501  0.00  0.00    +0.008 A 
ATOM     19  C   UNL     1       4.928   1.022  23.072  0.00  0.00    +0.038 A 
ATOM     20  C   UNL     1       4.667  -1.265  23.804  0.00  0.00    +0.038 A 
ATOM     21  C   UNL     1       5.477  -0.151  23.590  0.00  0.00    +0.123 A 
ENDBRANCH  13  14
ENDBRANCH   6  13
ENDBRANCH   8   6
BRANCH  10  12
ATOM     12  C   UNL     1      -3.289  -2.456  25.455  0.00  0.00    +0.138 C 
BRANCH  12   7
ATOM      4  O   UNL     1      -4.009  -0.568  23.415  0.00  0.00    -0.270 OA
ATOM      7  N   UNL     1      -3.834  -1.143  25.656  0.00  0.00    -0.309 N 
ATOM     15  C   UNL     1      -4.155  -0.292  24.603  0.00  0.00    +0.244 C 
ATOM     30  H   UNL     1      -3.913  -0.827  26.616  0.00  0.00    +0.149 HD
BRANCH  15  18
ATOM     18  C   UNL     1      -4.687   1.044  24.979  0.00  0.00    +0.037 A 
ATOM     22  C   UNL     1      -3.997   2.198  24.608  0.00  0.00    +0.016 A 
ATOM     23  C   UNL     1      -5.873   1.144  25.704  0.00  0.00    +0.016 A 
ATOM     24  C   UNL     1      -4.494   3.452  24.961  0.00  0.00    +0.046 A 
ATOM     25  C   UNL     1      -6.370   2.398  26.059  0.00  0.00    +0.046 A 
ATOM     26  C   UNL     1      -5.681   3.552  25.687  0.00  0.00    +0.120 A 
BRANCH  26   5
ATOM      5  O   UNL     1      -6.166   4.776  26.032  0.00  0.00    -0.495 OA
ATOM     27  C   UNL     1      -6.312   5.736  24.985  0.00  0.00    +0.277 C 
ENDBRANCH  26   5
ENDBRANCH  15  18
ENDBRANCH  12   7
ENDBRANCH  10  12
TORSDOF 8
ENDMDL
MODEL 5
REMARK VINA RESULT:      -1.7      4.020      7.905
REMARK  Name = 75536784
REMARK  9 active torsions:
REMARK  status: ('A' for Active; 'I' for Inactive)
REMARK    1  A    between atoms: O_3  and  C_9
REMARK    2  A    between atoms: O_5  and  C_26
REMARK    3  A    between atoms: O_5  and  C_27
REMARK    4  A    between atoms: N_6  and  C_8
REMARK    5  A    between atoms: N_6  and  C_13
REMARK    6  A    between atoms: N_7  and  C_12
REMARK    7  A    between atoms: C_10  and  C_12
REMARK    8  A    between atoms: C_13  and  C_14
REMARK    9  A    between atoms: C_15  and  C_18
REMARK                            x       y       z     vdW  Elec       q    Type
REMARK                         _______ _______ _______ _____ _____    ______ ____
ROOT
ATOM      2  O   UNL     1      -2.313   2.038  22.505  0.00  0.00    -0.371 OA
ATOM      8  C   UNL     1      -2.994   2.779  24.656  0.00  0.00    +0.111 C 
ATOM      9  C   UNL     1      -2.020   1.626  24.815  0.00  0.00    +0.164 C 
ATOM     10  C   UNL     1      -1.317   1.647  23.464  0.00  0.00    +0.165 C 
ATOM     11  C   UNL     1      -3.429   2.608  23.210  0.00  0.00    +0.181 C 
ENDROOT
BRANCH   9   3
ATOM      3  O   UNL     1      -1.114   1.820  25.883  0.00  0.00    -0.388 OA
ATOM     29  H   UNL     1      -0.540   2.574  25.665  0.00  0.00    +0.210 HD
ENDBRANCH   9   3
BRANCH   8   6
ATOM      6  N   UNL     1      -4.105   2.737  25.591  0.00  0.00    -0.305 NA
ATOM     28  H   UNL     1      -4.530   3.663  25.645  0.00  0.00    +0.123 HD
BRANCH   6  13
ATOM     13  C   UNL     1      -5.116   1.778  25.163  0.00  0.00    +0.116 C 
BRANCH  13  14
ATOM      1  F   UNL     1      -3.062  -3.463  24.908  0.00  0.00    -0.205 F 
ATOM     14  C   UNL     1      -4.567   0.377  25.096  0.00  0.00    -0.033 A 
ATOM     16  C   UNL     1      -3.938  -0.180  26.208  0.00  0.00    +0.008 A 
ATOM     17  C   UNL     1      -4.689  -0.363  23.919  0.00  0.00    +0.008 A 
ATOM     19  C   UNL     1      -3.429  -1.478  26.146  0.00  0.00    +0.038 A 
ATOM     20  C   UNL     1      -4.180  -1.660  23.857  0.00  0.00    +0.038 A 
ATOM     21  C   UNL     1      -3.551  -2.217  24.969  0.00  0.00    +0.123 A 
ENDBRANCH  13  14
ENDBRANCH   6  13
ENDBRANCH   8   6
BRANCH  10  12
ATOM     12  C   UNL     1      -0.726   0.304  23.075  0.00  0.00    +0.138 C 
BRANCH  12   7
ATOM      4  O   UNL     1       1.358  -0.469  21.258  0.00  0.00    -0.270 OA
ATOM      7  N   UNL     1       0.680   0.250  23.356  0.00  0.00    -0.309 N 
ATOM     15  C   UNL     1       1.623  -0.138  22.410  0.00  0.00    +0.244 C 
ATOM     30  H   UNL     1       0.959   0.443  24.313  0.00  0.00    +0.149 HD
BRANCH  15  18
ATOM     18  C   UNL     1       3.037  -0.165  22.867  0.00  0.00    +0.037 A 
ATOM     22  C   UNL     1       3.548  -1.306  23.486  0.00  0.00    +0.016 A 
ATOM     23  C   UNL     1       3.852   0.950  22.679  0.00  0.00    +0.016 A 
ATOM     24  C   UNL     1       4.874  -1.333  23.917  0.00  0.00    +0.046 A 
ATOM     25  C   UNL     1       5.179   0.924  23.110  0.00  0.00    +0.046 A 
ATOM     26  C   UNL     1       5.690  -0.217  23.728  0.00  0.00    +0.120 A 
BRANCH  26   5
ATOM      5  O   UNL     1       6.984  -0.242  24.148  0.00  0.00    -0.495 OA
ATOM     27  C   UNL     1       7.992  -0.347  23.142  0.00  0.00    +0.277 C 
ENDBRANCH  26   5
ENDBRANCH  15  18
ENDBRANCH  12   7
ENDBRANCH  10  12
TORSDOF 8
ENDMDL
MODEL 6
REMARK VINA RESULT:      -1.5      2.499      5.867
REMARK  Name = 75536784
REMARK  9 active torsions:
REMARK  status: ('A' for Active; 'I' for Inactive)
REMARK    1  A    between atoms: O_3  and  C_9
REMARK    2  A    between atoms: O_5  and  C_26
REMARK    3  A    between atoms: O_5  and  C_27
REMARK    4  A    between atoms: N_6  and  C_8
REMARK    5  A    between atoms: N_6  and  C_13
REMARK    6  A    between atoms: N_7  and  C_12
REMARK    7  A    between atoms: C_10  and  C_12
REMARK    8  A    between atoms: C_13  and  C_14
REMARK    9  A    between atoms: C_15  and  C_18
REMARK                            x       y       z     vdW  Elec       q    Type
REMARK                         _______ _______ _______ _____ _____    ______ ____
ROOT
ATOM      2  O   UNL     1      -5.412   0.574  25.897  0.00  0.00    -0.371 OA
ATOM      8  C   UNL     1      -5.244   2.333  24.310  0.00  0.00    +0.111 C 
ATOM      9  C   UNL     1      -3.975   1.501  24.264  0.00  0.00    +0.164 C 
ATOM     10  C   UNL     1      -4.454   0.200  24.893  0.00  0.00    +0.165 C 
ATOM     11  C   UNL     1      -5.816   1.934  25.660  0.00  0.00    +0.181 C 
ENDROOT
BRANCH   9   3
ATOM      3  O   UNL     1      -3.499   1.305  22.947  0.00  0.00    -0.388 OA
ATOM     29  H   UNL     1      -2.758   0.676  22.980  0.00  0.00    +0.210 HD
ENDBRANCH   9   3
BRANCH   8   6
ATOM      6  N   UNL     1      -5.009   3.762  24.194  0.00  0.00    -0.305 NA
ATOM     28  H   UNL     1      -5.889   4.227  23.972  0.00  0.00    +0.123 HD
BRANCH   6  13
ATOM     13  C   UNL     1      -4.485   4.311  25.440  0.00  0.00    +0.116 C 
BRANCH  13  14
ATOM      1  F   UNL     1       1.038   3.346  26.000  0.00  0.00    -0.205 F 
ATOM     14  C   UNL     1      -3.009   4.053  25.589  0.00  0.00    -0.033 A 
ATOM     16  C   UNL     1      -2.096   4.744  24.792  0.00  0.00    +0.008 A 
ATOM     17  C   UNL     1      -2.555   3.125  26.526  0.00  0.00    +0.008 A 
ATOM     19  C   UNL     1      -0.728   4.505  24.930  0.00  0.00    +0.038 A 
ATOM     20  C   UNL     1      -1.187   2.886  26.664  0.00  0.00    +0.038 A 
ATOM     21  C   UNL     1      -0.275   3.576  25.867  0.00  0.00    +0.123 A 
ENDBRANCH  13  14
ENDBRANCH   6  13
ENDBRANCH   8   6
BRANCH  10  12
ATOM     12  C   UNL     1      -3.335  -0.608  25.526  0.00  0.00    +0.138 C 
BRANCH  12   7
ATOM      4  O   UNL     1      -1.478  -2.199  24.022  0.00  0.00    -0.270 OA
ATOM      7  N   UNL     1      -2.051  -0.194  25.037  0.00  0.00    -0.309 N 
ATOM     15  C   UNL     1      -1.214  -1.036  24.313  0.00  0.00    +0.244 C 
ATOM     30  H   UNL     1      -1.742   0.735  25.305  0.00  0.00    +0.149 HD
BRANCH  15  18
ATOM     18  C   UNL     1       0.095  -0.464  23.901  0.00  0.00    +0.037 A 
ATOM     22  C   UNL     1       1.151  -1.310  23.563  0.00  0.00    +0.016 A 
ATOM     23  C   UNL     1       0.267   0.919  23.854  0.00  0.00    +0.016 A 
ATOM     24  C   UNL     1       2.379  -0.774  23.177  0.00  0.00    +0.046 A 
ATOM     25  C   UNL     1       1.496   1.456  23.469  0.00  0.00    +0.046 A 
ATOM     26  C   UNL     1       2.551   0.609  23.130  0.00  0.00    +0.120 A 
BRANCH  26   5
ATOM      5  O   UNL     1       3.750   1.133  22.754  0.00  0.00    -0.495 OA
ATOM     27  C   UNL     1       4.919   0.382  23.084  0.00  0.00    +0.277 C 
ENDBRANCH  26   5
ENDBRANCH  15  18
ENDBRANCH  12   7
ENDBRANCH  10  12
TORSDOF 8
ENDMDL
MODEL 7
REMARK VINA RESULT:      -1.2      1.888      4.408
REMARK  Name = 75536784
REMARK  9 active torsions:
REMARK  status: ('A' for Active; 'I' for Inactive)
REMARK    1  A    between atoms: O_3  and  C_9
REMARK    2  A    between atoms: O_5  and  C_26
REMARK    3  A    between atoms: O_5  and  C_27
REMARK    4  A    between atoms: N_6  and  C_8
REMARK    5  A    between atoms: N_6  and  C_13
REMARK    6  A    between atoms: N_7  and  C_12
REMARK    7  A    between atoms: C_10  and  C_12
REMARK    8  A    between atoms: C_13  and  C_14
REMARK    9  A    between atoms: C_15  and  C_18
REMARK                            x       y       z     vdW  Elec       q    Type
REMARK                         _______ _______ _______ _____ _____    ______ ____
ROOT
ATOM      2  O   UNL     1      -2.236  -1.962  26.643  0.00  0.00    -0.371 OA
ATOM      8  C   UNL     1      -3.573  -2.544  24.769  0.00  0.00    +0.111 C 
ATOM      9  C   UNL     1      -2.147  -2.310  24.306  0.00  0.00    +0.164 C 
ATOM     10  C   UNL     1      -1.382  -2.483  25.611  0.00  0.00    +0.165 C 
ATOM     11  C   UNL     1      -3.570  -1.845  26.119  0.00  0.00    +0.181 C 
ENDROOT
BRANCH   9   3
ATOM      3  O   UNL     1      -1.733  -3.239  23.325  0.00  0.00    -0.388 OA
ATOM     29  H   UNL     1      -1.310  -3.991  23.774  0.00  0.00    +0.210 HD
ENDBRANCH   9   3
BRANCH   8   6
ATOM      6  N   UNL     1      -4.577  -2.015  23.860  0.00  0.00    -0.305 NA
ATOM     28  H   UNL     1      -5.382  -1.701  24.400  0.00  0.00    +0.123 HD
BRANCH   6  13
ATOM     13  C   UNL     1      -4.051  -0.889  23.096  0.00  0.00    +0.116 C 
BRANCH  13  14
ATOM      1  F   UNL     1      -5.027   4.030  25.663  0.00  0.00    -0.205 F 
ATOM     14  C   UNL     1      -4.313   0.425  23.782  0.00  0.00    -0.033 A 
ATOM     16  C   UNL     1      -5.295   0.515  24.767  0.00  0.00    +0.008 A 
ATOM     17  C   UNL     1      -3.570   1.553  23.433  0.00  0.00    +0.008 A 
ATOM     19  C   UNL     1      -5.537   1.733  25.403  0.00  0.00    +0.038 A 
ATOM     20  C   UNL     1      -3.811   2.771  24.068  0.00  0.00    +0.038 A 
ATOM     21  C   UNL     1      -4.794   2.861  25.053  0.00  0.00    +0.123 A 
ENDBRANCH  13  14
ENDBRANCH   6  13
ENDBRANCH   8   6
BRANCH  10  12
ATOM     12  C   UNL     1      -0.051  -1.754  25.628  0.00  0.00    +0.138 C 
BRANCH  12   7
ATOM      4  O   UNL     1       0.152  -0.035  23.337  0.00  0.00    -0.270 OA
ATOM      7  N   UNL     1      -0.235  -0.331  25.605  0.00  0.00    -0.309 N 
ATOM     15  C   UNL     1      -0.117   0.425  24.443  0.00  0.00    +0.244 C 
ATOM     30  H   UNL     1      -0.389   0.121  26.500  0.00  0.00    +0.149 HD
BRANCH  15  18
ATOM     18  C   UNL     1      -0.312   1.891  24.592  0.00  0.00    +0.037 A 
ATOM     22  C   UNL     1      -0.742   2.417  25.810  0.00  0.00    +0.016 A 
ATOM     23  C   UNL     1      -0.068   2.740  23.513  0.00  0.00    +0.016 A 
ATOM     24  C   UNL     1      -0.926   3.793  25.950  0.00  0.00    +0.046 A 
ATOM     25  C   UNL     1      -0.253   4.116  23.653  0.00  0.00    +0.046 A 
ATOM     26  C   UNL     1      -0.682   4.642  24.871  0.00  0.00    +0.120 A 
BRANCH  26   5
ATOM      5  O   UNL     1      -0.862   5.984  25.007  0.00  0.00    -0.495 OA
ATOM     27  C   UNL     1      -2.206   6.465  24.980  0.00  0.00    +0.277 C 
ENDBRANCH  26   5
ENDBRANCH  15  18
ENDBRANCH  12   7
ENDBRANCH  10  12
TORSDOF 8
ENDMDL
MODEL 8
REMARK VINA RESULT:      -0.9      1.935      3.275
REMARK  Name = 75536784
REMARK  9 active torsions:
REMARK  status: ('A' for Active; 'I' for Inactive)
REMARK    1  A    between atoms: O_3  and  C_9
REMARK    2  A    between atoms: O_5  and  C_26
REMARK    3  A    between atoms: O_5  and  C_27
REMARK    4  A    between atoms: N_6  and  C_8
REMARK    5  A    between atoms: N_6  and  C_13
REMARK    6  A    between atoms: N_7  and  C_12
REMARK    7  A    between atoms: C_10  and  C_12
REMARK    8  A    between atoms: C_13  and  C_14
REMARK    9  A    between atoms: C_15  and  C_18
REMARK                            x       y       z     vdW  Elec       q    Type
REMARK                         _______ _______ _______ _____ _____    ______ ____
ROOT
ATOM      2  O   UNL     1      -4.042  -2.706  23.415  0.00  0.00    -0.371 OA
ATOM      8  C   UNL     1      -2.298  -2.863  25.020  0.00  0.00    +0.111 C 
ATOM      9  C   UNL     1      -3.172  -1.668  25.354  0.00  0.00    +0.164 C 
ATOM     10  C   UNL     1      -4.453  -2.025  24.612  0.00  0.00    +0.165 C 
ATOM     11  C   UNL     1      -2.670  -3.111  23.568  0.00  0.00    +0.181 C 
ENDROOT
BRANCH   9   3
ATOM      3  O   UNL     1      -3.391  -1.522  26.743  0.00  0.00    -0.388 OA
ATOM     29  H   UNL     1      -4.048  -2.184  27.020  0.00  0.00    +0.210 HD
ENDBRANCH   9   3
BRANCH   8   6
ATOM      6  N   UNL     1      -0.878  -2.616  25.207  0.00  0.00    -0.305 NA
ATOM     28  H   UNL     1      -0.383  -3.508  25.207  0.00  0.00    +0.123 HD
BRANCH   6  13
ATOM     13  C   UNL     1      -0.345  -1.780  24.138  0.00  0.00    +0.116 C 
BRANCH  13  14
ATOM      1  F   UNL     1       0.117   3.608  25.721  0.00  0.00    -0.205 F 
ATOM     14  C   UNL     1      -0.222  -0.340  24.562  0.00  0.00    -0.033 A 
ATOM     16  C   UNL     1      -0.793   0.086  25.761  0.00  0.00    +0.008 A 
ATOM     17  C   UNL     1       0.465   0.567  23.755  0.00  0.00    +0.008 A 
ATOM     19  C   UNL     1      -0.678   1.420  26.153  0.00  0.00    +0.038 A 
ATOM     20  C   UNL     1       0.579   1.901  24.147  0.00  0.00    +0.038 A 
ATOM     21  C   UNL     1       0.008   2.327  25.345  0.00  0.00    +0.123 A 
ENDBRANCH  13  14
ENDBRANCH   6  13
ENDBRANCH   8   6
BRANCH  10  12
ATOM     12  C   UNL     1      -5.295  -0.814  24.250  0.00  0.00    +0.138 C 
BRANCH  12   7
ATOM      4  O   UNL     1      -6.348   1.734  25.049  0.00  0.00    -0.270 OA
ATOM      7  N   UNL     1      -4.555   0.404  24.418  0.00  0.00    -0.309 N 
ATOM     15  C   UNL     1      -5.151   1.599  24.809  0.00  0.00    +0.244 C 
ATOM     30  H   UNL     1      -3.573   0.377  24.166  0.00  0.00    +0.149 HD
BRANCH  15  18
ATOM     18  C   UNL     1      -4.252   2.778  24.912  0.00  0.00    +0.037 A 
ATOM     22  C   UNL     1      -3.953   3.319  26.163  0.00  0.00    +0.016 A 
ATOM     23  C   UNL     1      -3.710   3.344  23.760  0.00  0.00    +0.016 A 
ATOM     24  C   UNL     1      -3.110   4.426  26.260  0.00  0.00    +0.046 A 
ATOM     25  C   UNL     1      -2.867   4.452  23.857  0.00  0.00    +0.046 A 
ATOM     26  C   UNL     1      -2.568   4.992  25.107  0.00  0.00    +0.120 A 
BRANCH  26   5
ATOM      5  O   UNL     1      -1.745   6.073  25.202  0.00  0.00    -0.495 OA
ATOM     27  C   UNL     1      -0.464   5.971  24.579  0.00  0.00    +0.277 C 
ENDBRANCH  26   5
ENDBRANCH  15  18
ENDBRANCH  12   7
ENDBRANCH  10  12
TORSDOF 8
ENDMDL
MODEL 9
REMARK VINA RESULT:      -0.8      2.668      5.889
REMARK  Name = 75536784
REMARK  9 active torsions:
REMARK  status: ('A' for Active; 'I' for Inactive)
REMARK    1  A    between atoms: O_3  and  C_9
REMARK    2  A    between atoms: O_5  and  C_26
REMARK    3  A    between atoms: O_5  and  C_27
REMARK    4  A    between atoms: N_6  and  C_8
REMARK    5  A    between atoms: N_6  and  C_13
REMARK    6  A    between atoms: N_7  and  C_12
REMARK    7  A    between atoms: C_10  and  C_12
REMARK    8  A    between atoms: C_13  and  C_14
REMARK    9  A    between atoms: C_15  and  C_18
REMARK                            x       y       z     vdW  Elec       q    Type
REMARK                         _______ _______ _______ _____ _____    ______ ____
ROOT
ATOM      2  O   UNL     1       0.225   4.138  24.396  0.00  0.00    -0.371 OA
ATOM      8  C   UNL     1      -2.055   4.803  24.407  0.00  0.00    +0.111 C 
ATOM      9  C   UNL     1      -1.812   3.851  25.563  0.00  0.00    +0.164 C 
ATOM     10  C   UNL     1      -0.301   3.961  25.722  0.00  0.00    +0.165 C 
ATOM     11  C   UNL     1      -0.853   4.516  23.522  0.00  0.00    +0.181 C 
ENDROOT
BRANCH   9   3
ATOM      3  O   UNL     1      -2.495   4.235  26.739  0.00  0.00    -0.388 OA
ATOM     29  H   UNL     1      -2.723   3.431  27.237  0.00  0.00    +0.210 HD
ENDBRANCH   9   3
BRANCH   8   6
ATOM      6  N   UNL     1      -3.322   4.586  23.728  0.00  0.00    -0.305 NA
ATOM     28  H   UNL     1      -3.299   5.056  22.823  0.00  0.00    +0.123 HD
BRANCH   6  13
ATOM     13  C   UNL     1      -3.568   3.165  23.518  0.00  0.00    +0.116 C 
BRANCH  13  14
ATOM      1  F   UNL     1      -7.219   1.087  27.274  0.00  0.00    -0.205 F 
ATOM     14  C   UNL     1      -4.544   2.610  24.522  0.00  0.00    -0.033 A 
ATOM     16  C   UNL     1      -5.226   3.471  25.380  0.00  0.00    +0.008 A 
ATOM     17  C   UNL     1      -4.765   1.234  24.591  0.00  0.00    +0.008 A 
ATOM     19  C   UNL     1      -6.130   2.956  26.311  0.00  0.00    +0.038 A 
ATOM     20  C   UNL     1      -5.669   0.720  25.521  0.00  0.00    +0.038 A 
ATOM     21  C   UNL     1      -6.351   1.581  26.380  0.00  0.00    +0.123 A 
ENDBRANCH  13  14
ENDBRANCH   6  13
ENDBRANCH   8   6
BRANCH  10  12
ATOM     12  C   UNL     1       0.326   2.737  26.365  0.00  0.00    +0.138 C 
BRANCH  12   7
ATOM      4  O   UNL     1       0.516   0.907  24.161  0.00  0.00    -0.270 OA
ATOM      7  N   UNL     1      -0.477   1.567  26.151  0.00  0.00    -0.309 N 
ATOM     15  C   UNL     1      -0.314   0.733  25.049  0.00  0.00    +0.244 C 
ATOM     30  H   UNL     1      -1.230   1.406  26.812  0.00  0.00    +0.149 HD
BRANCH  15  18
ATOM     18  C   UNL     1      -1.242  -0.425  24.960  0.00  0.00    +0.037 A 
ATOM     22  C   UNL     1      -2.321  -0.523  25.838  0.00  0.00    +0.016 A 
ATOM     23  C   UNL     1      -1.032  -1.414  24.000  0.00  0.00    +0.016 A 
ATOM     24  C   UNL     1      -3.191  -1.610  25.756  0.00  0.00    +0.046 A 
ATOM     25  C   UNL     1      -1.902  -2.501  23.918  0.00  0.00    +0.046 A 
ATOM     26  C   UNL     1      -2.981  -2.599  24.795  0.00  0.00    +0.120 A 
BRANCH  26   5
ATOM      5  O   UNL     1      -3.830  -3.660  24.715  0.00  0.00    -0.495 OA
ATOM     27  C   UNL     1      -4.673  -3.731  23.565  0.00  0.00    +0.277 C 
ENDBRANCH  26   5
ENDBRANCH  15  18
ENDBRANCH  12   7
ENDBRANCH  10  12
TORSDOF 8
ENDMDL
MODEL 10
REMARK VINA RESULT:      -0.8      3.336      6.837
REMARK  Name = 75536784
REMARK  9 active torsions:
REMARK  status: ('A' for Active; 'I' for Inactive)
REMARK    1  A    between atoms: O_3  and  C_9
REMARK    2  A    between atoms: O_5  and  C_26
REMARK    3  A    between atoms: O_5  and  C_27
REMARK    4  A    between atoms: N_6  and  C_8
REMARK    5  A    between atoms: N_6  and  C_13
REMARK    6  A    between atoms: N_7  and  C_12
REMARK    7  A    between atoms: C_10  and  C_12
REMARK    8  A    between atoms: C_13  and  C_14
REMARK    9  A    between atoms: C_15  and  C_18
REMARK                            x       y       z     vdW  Elec       q    Type
REMARK                         _______ _______ _______ _____ _____    ______ ____
ROOT
ATOM      2  O   UNL     1      -1.122  -0.525  25.428  0.00  0.00    -0.371 OA
ATOM      8  C   UNL     1      -3.482  -0.535  25.692  0.00  0.00    +0.111 C 
ATOM      9  C   UNL     1      -3.140  -0.960  24.276  0.00  0.00    +0.164 C 
ATOM     10  C   UNL     1      -1.692  -1.402  24.443  0.00  0.00    +0.165 C 
ATOM     11  C   UNL     1      -2.191   0.141  26.123  0.00  0.00    +0.181 C 
ENDROOT
BRANCH   9   3
ATOM      3  O   UNL     1      -3.961  -2.012  23.808  0.00  0.00    -0.388 OA
ATOM     29  H   UNL     1      -4.310  -2.493  24.578  0.00  0.00    +0.210 HD
ENDBRANCH   9   3
BRANCH   8   6
ATOM      6  N   UNL     1      -4.637   0.344  25.774  0.00  0.00    -0.305 NA
ATOM     28  H   UNL     1      -4.585   0.881  26.639  0.00  0.00    +0.123 HD
BRANCH   6  13
ATOM     13  C   UNL     1      -4.676   1.267  24.645  0.00  0.00    +0.116 C 
BRANCH  13  14
ATOM      1  F   UNL     1      -1.154   5.606  25.360  0.00  0.00    -0.205 F 
ATOM     14  C   UNL     1      -3.734   2.426  24.836  0.00  0.00    -0.033 A 
ATOM     16  C   UNL     1      -2.626   2.569  24.002  0.00  0.00    +0.008 A 
ATOM     17  C   UNL     1      -3.972   3.358  25.846  0.00  0.00    +0.008 A 
ATOM     19  C   UNL     1      -1.753   3.643  24.179  0.00  0.00    +0.038 A 
ATOM     20  C   UNL     1      -3.100   4.432  26.024  0.00  0.00    +0.038 A 
ATOM     21  C   UNL     1      -1.992   4.575  25.190  0.00  0.00    +0.123 A 
ENDBRANCH  13  14
ENDBRANCH   6  13
ENDBRANCH   8   6
BRANCH  10  12
ATOM     12  C   UNL     1      -0.889  -1.323  23.158  0.00  0.00    +0.138 C 
BRANCH  12   7
ATOM      4  O   UNL     1       1.059  -0.374  21.274  0.00  0.00    -0.270 OA
ATOM      7  N   UNL     1       0.493  -1.040  23.423  0.00  0.00    -0.309 N 
ATOM     15  C   UNL     1       1.369  -0.581  22.444  0.00  0.00    +0.244 C 
ATOM     30  H   UNL     1       0.830  -1.259  24.354  0.00  0.00    +0.149 HD
BRANCH  15  18
ATOM     18  C   UNL     1       2.775  -0.360  22.874  0.00  0.00    +0.037 A 
ATOM     22  C   UNL     1       3.403   0.855  22.603  0.00  0.00    +0.016 A 
ATOM     23  C   UNL     1       3.466  -1.369  23.544  0.00  0.00    +0.016 A 
ATOM     24  C   UNL     1       4.723   1.063  23.005  0.00  0.00    +0.046 A 
ATOM     25  C   UNL     1       4.786  -1.162  23.945  0.00  0.00    +0.046 A 
ATOM     26  C   UNL     1       5.414   0.054  23.675  0.00  0.00    +0.120 A 
BRANCH  26   5
ATOM      5  O   UNL     1       6.702   0.256  24.067  0.00  0.00    -0.495 OA
ATOM     27  C   UNL     1       7.728  -0.258  23.217  0.00  0.00    +0.277 C 
ENDBRANCH  26   5
ENDBRANCH  15  18
ENDBRANCH  12   7
ENDBRANCH  10  12
TORSDOF 8
ENDMDL
