MODEL 1
REMARK VINA RESULT:      -2.0      0.000      0.000
REMARK  Name = 38344332
REMARK  8 active torsions:
REMARK  status: ('A' for Active; 'I' for Inactive)
REMARK    1  A    between atoms: O_3  and  C_19
REMARK    2  A    between atoms: O_3  and  C_24
REMARK    3  A    between atoms: O_4  and  C_29
REMARK    4  A    between atoms: C_11  and  C_16
REMARK    5  A    between atoms: C_17  and  C_19
REMARK    6  A    between atoms: C_20  and  C_21
REMARK    7  A    between atoms: C_24  and  C_29
REMARK    8  A    between atoms: C_25  and  C_28
REMARK                            x       y       z     vdW  Elec       q    Type
REMARK                         _______ _______ _______ _____ _____    ______ ____
ROOT
ATOM      2  O   UNL     1      -2.105   3.410  25.529  0.00  0.00    -0.273 OA
ATOM      6  N   UNL     1      -2.591   1.388  24.477  0.00  0.00    -0.282 N 
ATOM      7  N   UNL     1      -4.447  -1.672  23.423  0.00  0.00    -0.347 N 
ATOM      8  N   UNL     1      -3.532  -2.590  25.244  0.00  0.00    -0.240 NA
ATOM     11  C   UNL     1      -1.528   0.643  25.237  0.00  0.00    +0.171 C 
ATOM     12  C   UNL     1      -2.115  -0.613  25.951  0.00  0.00    +0.089 C 
ATOM     13  C   UNL     1      -3.367   0.636  23.451  0.00  0.00    +0.163 C 
ATOM     14  C   UNL     1      -3.077  -1.313  25.072  0.00  0.00    +0.066 A 
ATOM     15  C   UNL     1      -3.628  -0.724  23.959  0.00  0.00    +0.056 A 
ATOM     17  C   UNL     1      -2.735   2.765  24.686  0.00  0.00    +0.242 C 
ATOM     18  C   UNL     1      -4.357  -2.777  24.232  0.00  0.00    +0.197 A 
ATOM     30  H   UNL     1      -5.014  -1.584  22.589  0.00  0.00    +0.167 HD
ENDROOT
BRANCH  11  16
ATOM      1  O   UNL     1      -0.524   0.277  23.027  0.00  0.00    -0.336 OA
ATOM      9  N   UNL     1       0.962   0.332  24.703  0.00  0.00    -0.190 NA
ATOM     10  N   UNL     1       0.733   0.081  22.441  0.00  0.00    -0.056 NA
ATOM     16  C   UNL     1      -0.298   0.415  24.360  0.00  0.00    +0.249 A 
ATOM     20  C   UNL     1       1.557   0.126  23.491  0.00  0.00    +0.202 A 
BRANCH  20  21
ATOM     21  C   UNL     1       2.977  -0.029  23.366  0.00  0.00    +0.022 A 
ATOM     22  C   UNL     1       3.745   0.999  22.818  0.00  0.00    +0.012 A 
ATOM     23  C   UNL     1       3.591  -1.205  23.795  0.00  0.00    +0.012 A 
ATOM     25  C   UNL     1       5.740  -0.329  23.125  0.00  0.00    -0.050 A 
ATOM     26  C   UNL     1       5.126   0.849  22.697  0.00  0.00    +0.004 A 
ATOM     27  C   UNL     1       4.972  -1.355  23.673  0.00  0.00    +0.004 A 
ATOM     28  C   UNL     1       7.217  -0.489  22.996  0.00  0.00    +0.044 C 
ENDBRANCH  20  21
ENDBRANCH  11  16
BRANCH  17  19
ATOM     19  C   UNL     1      -3.736   3.480  23.812  0.00  0.00    +0.256 C 
BRANCH  19   3
ATOM      3  O   UNL     1      -4.761   3.933  24.662  0.00  0.00    -0.359 OA
BRANCH   3  24
ATOM     24  C   UNL     1      -4.862   3.143  25.847  0.00  0.00    +0.280 C 
BRANCH  24  29
ATOM      5  O   UNL     1      -6.449   1.700  24.705  0.00  0.00    -0.248 OA
ATOM     29  C   UNL     1      -6.034   2.208  25.737  0.00  0.00    +0.331 C 
BRANCH  29   4
ATOM      4  O   UNL     1      -6.579   1.994  26.961  0.00  0.00    -0.479 OA
ATOM     31  H   UNL     1      -7.553   2.107  26.952  0.00  0.00    +0.295 HD
ENDBRANCH  29   4
ENDBRANCH  24  29
ENDBRANCH   3  24
ENDBRANCH  19   3
ENDBRANCH  17  19
TORSDOF 7
ENDMDL
MODEL 2
REMARK VINA RESULT:      -0.7      1.637      3.588
REMARK  Name = 38344332
REMARK  8 active torsions:
REMARK  status: ('A' for Active; 'I' for Inactive)
REMARK    1  A    between atoms: O_3  and  C_19
REMARK    2  A    between atoms: O_3  and  C_24
REMARK    3  A    between atoms: O_4  and  C_29
REMARK    4  A    between atoms: C_11  and  C_16
REMARK    5  A    between atoms: C_17  and  C_19
REMARK    6  A    between atoms: C_20  and  C_21
REMARK    7  A    between atoms: C_24  and  C_29
REMARK    8  A    between atoms: C_25  and  C_28
REMARK                            x       y       z     vdW  Elec       q    Type
REMARK                         _______ _______ _______ _____ _____    ______ ____
ROOT
ATOM      2  O   UNL     1      -4.022  -0.683  23.466  0.00  0.00    -0.273 OA
ATOM      6  N   UNL     1      -2.681   0.947  24.454  0.00  0.00    -0.282 N 
ATOM      7  N   UNL     1      -1.631   4.175  26.002  0.00  0.00    -0.347 N 
ATOM      8  N   UNL     1      -1.214   4.799  23.897  0.00  0.00    -0.240 NA
ATOM     11  C   UNL     1      -1.827   1.105  23.226  0.00  0.00    +0.171 C 
ATOM     12  C   UNL     1      -1.756   2.595  22.771  0.00  0.00    +0.089 C 
ATOM     13  C   UNL     1      -2.319   1.745  25.659  0.00  0.00    +0.163 C 
ATOM     14  C   UNL     1      -1.613   3.492  23.939  0.00  0.00    +0.066 A 
ATOM     15  C   UNL     1      -1.879   3.084  25.224  0.00  0.00    +0.056 A 
ATOM     17  C   UNL     1      -3.704  -0.010  24.450  0.00  0.00    +0.242 C 
ATOM     18  C   UNL     1      -1.235   5.182  25.159  0.00  0.00    +0.197 A 
ATOM     30  H   UNL     1      -1.719   4.235  27.009  0.00  0.00    +0.167 HD
ENDROOT
BRANCH  11  16
ATOM      1  O   UNL     1      -0.553  -0.897  23.855  0.00  0.00    -0.336 OA
ATOM      9  N   UNL     1       0.722   0.815  23.176  0.00  0.00    -0.190 NA
ATOM     10  N   UNL     1       0.773  -1.343  23.934  0.00  0.00    -0.056 NA
ATOM     16  C   UNL     1      -0.492   0.382  23.401  0.00  0.00    +0.249 A 
ATOM     20  C   UNL     1       1.465  -0.279  23.518  0.00  0.00    +0.202 A 
BRANCH  20  21
ATOM     21  C   UNL     1       2.896  -0.275  23.429  0.00  0.00    +0.022 A 
ATOM     22  C   UNL     1       3.626  -1.376  23.876  0.00  0.00    +0.012 A 
ATOM     23  C   UNL     1       3.558   0.830  22.894  0.00  0.00    +0.012 A 
ATOM     25  C   UNL     1       5.680  -0.268  23.256  0.00  0.00    -0.050 A 
ATOM     26  C   UNL     1       5.017  -1.373  23.790  0.00  0.00    +0.004 A 
ATOM     27  C   UNL     1       4.950   0.833  22.808  0.00  0.00    +0.004 A 
ATOM     28  C   UNL     1       7.168  -0.264  23.162  0.00  0.00    +0.044 C 
ENDBRANCH  20  21
ENDBRANCH  11  16
BRANCH  17  19
ATOM     19  C   UNL     1      -4.450  -0.205  25.747  0.00  0.00    +0.256 C 
BRANCH  19   3
ATOM      3  O   UNL     1      -5.650   0.518  25.632  0.00  0.00    -0.359 OA
BRANCH   3  24
ATOM     24  C   UNL     1      -5.493   1.697  24.844  0.00  0.00    +0.280 C 
BRANCH  24  29
ATOM      5  O   UNL     1      -5.064   4.001  25.487  0.00  0.00    -0.248 OA
ATOM     29  C   UNL     1      -5.569   2.913  25.724  0.00  0.00    +0.331 C 
BRANCH  29   4
ATOM      4  O   UNL     1      -6.291   2.639  26.840  0.00  0.00    -0.479 OA
ATOM     31  H   UNL     1      -5.821   2.915  27.656  0.00  0.00    +0.295 HD
ENDBRANCH  29   4
ENDBRANCH  24  29
ENDBRANCH   3  24
ENDBRANCH  19   3
ENDBRANCH  17  19
TORSDOF 7
ENDMDL
MODEL 3
REMARK VINA RESULT:      -0.2      2.133      4.247
REMARK  Name = 38344332
REMARK  8 active torsions:
REMARK  status: ('A' for Active; 'I' for Inactive)
REMARK    1  A    between atoms: O_3  and  C_19
REMARK    2  A    between atoms: O_3  and  C_24
REMARK    3  A    between atoms: O_4  and  C_29
REMARK    4  A    between atoms: C_11  and  C_16
REMARK    5  A    between atoms: C_17  and  C_19
REMARK    6  A    between atoms: C_20  and  C_21
REMARK    7  A    between atoms: C_24  and  C_29
REMARK    8  A    between atoms: C_25  and  C_28
REMARK                            x       y       z     vdW  Elec       q    Type
REMARK                         _______ _______ _______ _____ _____    ______ ____
ROOT
ATOM      2  O   UNL     1      -3.590  -1.400  22.689  0.00  0.00    -0.273 OA
ATOM      6  N   UNL     1      -3.487   0.486  24.054  0.00  0.00    -0.282 N 
ATOM      7  N   UNL     1      -4.567   3.448  26.049  0.00  0.00    -0.347 N 
ATOM      8  N   UNL     1      -4.324   4.559  24.125  0.00  0.00    -0.240 NA
ATOM     11  C   UNL     1      -2.727   1.285  23.031  0.00  0.00    +0.171 C 
ATOM     12  C   UNL     1      -3.435   2.641  22.729  0.00  0.00    +0.089 C 
ATOM     13  C   UNL     1      -3.763   1.127  25.370  0.00  0.00    +0.163 C 
ATOM     14  C   UNL     1      -3.942   3.256  23.976  0.00  0.00    +0.066 A 
ATOM     15  C   UNL     1      -4.085   2.549  25.145  0.00  0.00    +0.056 A 
ATOM     17  C   UNL     1      -3.808  -0.848  23.771  0.00  0.00    +0.242 C 
ATOM     18  C   UNL     1      -4.696   4.643  25.387  0.00  0.00    +0.197 A 
ATOM     30  H   UNL     1      -4.788   3.273  27.021  0.00  0.00    +0.167 HD
ENDROOT
BRANCH  11  16
ATOM      1  O   UNL     1      -0.902   2.256  24.354  0.00  0.00    -0.336 OA
ATOM      9  N   UNL     1      -0.238   0.670  22.918  0.00  0.00    -0.190 NA
ATOM     10  N   UNL     1       0.485   2.140  24.514  0.00  0.00    -0.056 NA
ATOM     16  C   UNL     1      -1.245   1.356  23.396  0.00  0.00    +0.249 A 
ATOM     20  C   UNL     1       0.803   1.186  23.634  0.00  0.00    +0.202 A 
BRANCH  20  21
ATOM     21  C   UNL     1       2.148   0.725  23.447  0.00  0.00    +0.022 A 
ATOM     22  C   UNL     1       3.129   1.603  22.987  0.00  0.00    +0.012 A 
ATOM     23  C   UNL     1       2.475  -0.601  23.726  0.00  0.00    +0.012 A 
ATOM     25  C   UNL     1       4.764  -0.172  23.085  0.00  0.00    -0.050 A 
ATOM     26  C   UNL     1       4.437   1.155  22.806  0.00  0.00    +0.004 A 
ATOM     27  C   UNL     1       3.783  -1.050  23.545  0.00  0.00    +0.004 A 
ATOM     28  C   UNL     1       6.162  -0.652  22.892  0.00  0.00    +0.044 C 
ENDBRANCH  20  21
ENDBRANCH  11  16
BRANCH  17  19
ATOM     19  C   UNL     1      -4.466  -1.633  24.878  0.00  0.00    +0.256 C 
BRANCH  19   3
ATOM      3  O   UNL     1      -3.488  -2.505  25.388  0.00  0.00    -0.359 OA
BRANCH   3  24
ATOM     24  C   UNL     1      -2.547  -1.827  26.221  0.00  0.00    +0.280 C 
BRANCH  24  29
ATOM      5  O   UNL     1      -0.854  -2.315  24.547  0.00  0.00    -0.248 OA
ATOM     29  C   UNL     1      -1.257  -1.629  25.476  0.00  0.00    +0.331 C 
BRANCH  29   4
ATOM      4  O   UNL     1      -0.584  -0.563  25.979  0.00  0.00    -0.479 OA
ATOM     31  H   UNL     1       0.385  -0.709  25.977  0.00  0.00    +0.295 HD
ENDBRANCH  29   4
ENDBRANCH  24  29
ENDBRANCH   3  24
ENDBRANCH  19   3
ENDBRANCH  17  19
TORSDOF 7
ENDMDL
MODEL 4
REMARK VINA RESULT:       0.2      1.246      2.136
REMARK  Name = 38344332
REMARK  8 active torsions:
REMARK  status: ('A' for Active; 'I' for Inactive)
REMARK    1  A    between atoms: O_3  and  C_19
REMARK    2  A    between atoms: O_3  and  C_24
REMARK    3  A    between atoms: O_4  and  C_29
REMARK    4  A    between atoms: C_11  and  C_16
REMARK    5  A    between atoms: C_17  and  C_19
REMARK    6  A    between atoms: C_20  and  C_21
REMARK    7  A    between atoms: C_24  and  C_29
REMARK    8  A    between atoms: C_25  and  C_28
REMARK                            x       y       z     vdW  Elec       q    Type
REMARK                         _______ _______ _______ _____ _____    ______ ____
ROOT
ATOM      2  O   UNL     1      -2.925   2.752  26.355  0.00  0.00    -0.273 OA
ATOM      6  N   UNL     1      -3.167   0.927  24.927  0.00  0.00    -0.282 N 
ATOM      7  N   UNL     1      -4.630  -2.091  23.292  0.00  0.00    -0.347 N 
ATOM      8  N   UNL     1      -3.555  -3.214  24.898  0.00  0.00    -0.240 NA
ATOM     11  C   UNL     1      -1.996   0.198  25.527  0.00  0.00    +0.171 C 
ATOM     12  C   UNL     1      -2.393  -1.240  25.980  0.00  0.00    +0.089 C 
ATOM     13  C   UNL     1      -3.863   0.291  23.773  0.00  0.00    +0.163 C 
ATOM     14  C   UNL     1      -3.277  -1.878  24.980  0.00  0.00    +0.066 A 
ATOM     15  C   UNL     1      -3.929  -1.164  24.004  0.00  0.00    +0.056 A 
ATOM     17  C   UNL     1      -3.486   2.205  25.402  0.00  0.00    +0.242 C 
ATOM     18  C   UNL     1      -4.374  -3.310  23.869  0.00  0.00    +0.197 A 
ATOM     30  H   UNL     1      -5.224  -1.919  22.491  0.00  0.00    +0.167 HD
ENDROOT
BRANCH  11  16
ATOM      1  O   UNL     1      -0.979   0.831  23.384  0.00  0.00    -0.336 OA
ATOM      9  N   UNL     1       0.474  -0.018  24.863  0.00  0.00    -0.190 NA
ATOM     10  N   UNL     1       0.271   0.836  22.751  0.00  0.00    -0.056 NA
ATOM     16  C   UNL     1      -0.770   0.313  24.623  0.00  0.00    +0.249 A 
ATOM     20  C   UNL     1       1.075   0.321  23.686  0.00  0.00    +0.202 A 
BRANCH  20  21
ATOM     21  C   UNL     1       2.481   0.134  23.477  0.00  0.00    +0.022 A 
ATOM     22  C   UNL     1       3.246   1.159  22.919  0.00  0.00    +0.012 A 
ATOM     23  C   UNL     1       3.085  -1.071  23.835  0.00  0.00    +0.012 A 
ATOM     25  C   UNL     1       5.217  -0.229  23.073  0.00  0.00    -0.050 A 
ATOM     26  C   UNL     1       4.613   0.978  22.716  0.00  0.00    +0.004 A 
ATOM     27  C   UNL     1       4.453  -1.253  23.632  0.00  0.00    +0.004 A 
ATOM     28  C   UNL     1       6.680  -0.423  22.857  0.00  0.00    +0.044 C 
ENDBRANCH  20  21
ENDBRANCH  11  16
BRANCH  17  19
ATOM     19  C   UNL     1      -4.595   2.935  24.685  0.00  0.00    +0.256 C 
BRANCH  19   3
ATOM      3  O   UNL     1      -4.050   4.152  24.237  0.00  0.00    -0.359 OA
BRANCH   3  24
ATOM     24  C   UNL     1      -2.805   3.967  23.565  0.00  0.00    +0.280 C 
BRANCH  24  29
ATOM      5  O   UNL     1      -1.707   5.476  25.121  0.00  0.00    -0.248 OA
ATOM     29  C   UNL     1      -1.681   4.471  24.427  0.00  0.00    +0.331 C 
BRANCH  29   4
ATOM      4  O   UNL     1      -0.611   3.641  24.333  0.00  0.00    -0.479 OA
ATOM     31  H   UNL     1      -0.094   3.803  23.516  0.00  0.00    +0.295 HD
ENDBRANCH  29   4
ENDBRANCH  24  29
ENDBRANCH   3  24
ENDBRANCH  19   3
ENDBRANCH  17  19
TORSDOF 7
ENDMDL
MODEL 5
REMARK VINA RESULT:       0.4      2.337      4.432
REMARK  Name = 38344332
REMARK  8 active torsions:
REMARK  status: ('A' for Active; 'I' for Inactive)
REMARK    1  A    between atoms: O_3  and  C_19
REMARK    2  A    between atoms: O_3  and  C_24
REMARK    3  A    between atoms: O_4  and  C_29
REMARK    4  A    between atoms: C_11  and  C_16
REMARK    5  A    between atoms: C_17  and  C_19
REMARK    6  A    between atoms: C_20  and  C_21
REMARK    7  A    between atoms: C_24  and  C_29
REMARK    8  A    between atoms: C_25  and  C_28
REMARK                            x       y       z     vdW  Elec       q    Type
REMARK                         _______ _______ _______ _____ _____    ______ ____
ROOT
ATOM      2  O   UNL     1      -4.144  -0.686  23.331  0.00  0.00    -0.273 OA
ATOM      6  N   UNL     1      -2.699   0.846  24.329  0.00  0.00    -0.282 N 
ATOM      7  N   UNL     1      -1.492   3.852  26.181  0.00  0.00    -0.347 N 
ATOM      8  N   UNL     1      -1.470   4.816  24.166  0.00  0.00    -0.240 NA
ATOM     11  C   UNL     1      -2.080   1.241  23.017  0.00  0.00    +0.171 C 
ATOM     12  C   UNL     1      -2.135   2.785  22.805  0.00  0.00    +0.089 C 
ATOM     13  C   UNL     1      -2.155   1.469  25.569  0.00  0.00    +0.163 C 
ATOM     14  C   UNL     1      -1.816   3.498  24.062  0.00  0.00    +0.066 A 
ATOM     15  C   UNL     1      -1.839   2.882  25.289  0.00  0.00    +0.056 A 
ATOM     17  C   UNL     1      -3.678  -0.156  24.343  0.00  0.00    +0.242 C 
ATOM     18  C   UNL     1      -1.281   4.998  25.458  0.00  0.00    +0.197 A 
ATOM     30  H   UNL     1      -1.403   3.750  27.184  0.00  0.00    +0.167 HD
ENDROOT
BRANCH  11  16
ATOM      1  O   UNL     1      -0.686  -0.566  22.113  0.00  0.00    -0.336 OA
ATOM      9  N   UNL     1       0.454   0.952  23.302  0.00  0.00    -0.190 NA
ATOM     10  N   UNL     1       0.652  -0.981  22.096  0.00  0.00    -0.056 NA
ATOM     16  C   UNL     1      -0.714   0.579  22.845  0.00  0.00    +0.249 A 
ATOM     20  C   UNL     1       1.261  -0.036  22.817  0.00  0.00    +0.202 A 
BRANCH  20  21
ATOM     21  C   UNL     1       2.672  -0.047  23.070  0.00  0.00    +0.022 A 
ATOM     22  C   UNL     1       3.276  -1.186  23.604  0.00  0.00    +0.012 A 
ATOM     23  C   UNL     1       3.442   1.079  22.781  0.00  0.00    +0.012 A 
ATOM     25  C   UNL     1       5.418  -0.070  23.561  0.00  0.00    -0.050 A 
ATOM     26  C   UNL     1       4.648  -1.198  23.850  0.00  0.00    +0.004 A 
ATOM     27  C   UNL     1       4.815   1.068  23.027  0.00  0.00    +0.004 A 
ATOM     28  C   UNL     1       6.886  -0.083  23.823  0.00  0.00    +0.044 C 
ENDBRANCH  20  21
ENDBRANCH  11  16
BRANCH  17  19
ATOM     19  C   UNL     1      -4.178  -0.593  25.699  0.00  0.00    +0.256 C 
BRANCH  19   3
ATOM      3  O   UNL     1      -3.200  -1.453  26.229  0.00  0.00    -0.359 OA
BRANCH   3  24
ATOM     24  C   UNL     1      -2.855  -2.498  25.319  0.00  0.00    +0.280 C 
BRANCH  24  29
ATOM      5  O   UNL     1      -0.545  -1.768  25.505  0.00  0.00    -0.248 OA
ATOM     29  C   UNL     1      -1.426  -2.341  24.881  0.00  0.00    +0.331 C 
BRANCH  29   4
ATOM      4  O   UNL     1      -1.238  -2.934  23.675  0.00  0.00    -0.479 OA
ATOM     31  H   UNL     1      -1.206  -3.912  23.749  0.00  0.00    +0.295 HD
ENDBRANCH  29   4
ENDBRANCH  24  29
ENDBRANCH   3  24
ENDBRANCH  19   3
ENDBRANCH  17  19
TORSDOF 7
ENDMDL
