MODEL 1
REMARK VINA RESULT:      13.4      0.000      0.000
REMARK  Name = 45361700
REMARK  10 active torsions:
REMARK  status: ('A' for Active; 'I' for Inactive)
REMARK    1  A    between atoms: N_7  and  C_21
REMARK    2  A    between atoms: N_9  and  C_37
REMARK    3  A    between atoms: N_9  and  C_38
REMARK    4  A    between atoms: N_9  and  C_39
REMARK    5  A    between atoms: C_10  and  C_14
REMARK    6  A    between atoms: C_13  and  C_22
REMARK    7  A    between atoms: C_14  and  C_21
REMARK    8  A    between atoms: C_17  and  C_29
REMARK    9  A    between atoms: C_21  and  C_30
REMARK   10  A    between atoms: C_31  and  C_32
REMARK                            x       y       z     vdW  Elec       q    Type
REMARK                         _______ _______ _______ _____ _____    ______ ____
ROOT
ATOM      1  O   UNL     1      -4.230   3.158  22.142  0.00  0.00    -0.275 OA
ATOM      4  O   UNL     1       1.936   2.918  25.101  0.00  0.00    -0.270 OA
ATOM      5  N   UNL     1      -2.848   2.957  24.004  0.00  0.00    -0.287 N 
ATOM      6  N   UNL     1      -0.336   3.444  25.245  0.00  0.00    -0.294 N 
ATOM     17  C   UNL     1      -1.623   2.958  23.191  0.00  0.00    +0.179 C 
ATOM     22  C   UNL     1      -4.088   2.985  23.355  0.00  0.00    +0.219 C 
ATOM     26  C   UNL     1      -0.477   3.749  23.824  0.00  0.00    +0.140 C 
ATOM     27  C   UNL     1      -2.678   2.750  25.454  0.00  0.00    +0.127 C 
ATOM     28  C   UNL     1      -1.566   3.625  26.021  0.00  0.00    +0.127 C 
ATOM     31  C   UNL     1       0.906   3.069  25.758  0.00  0.00    +0.247 C 
ENDROOT
BRANCH  22  13
ATOM     13  C   UNL     1      -5.300   2.791  24.214  0.00  0.00    +0.075 C 
ATOM     19  C   UNL     1      -5.281   3.815  25.350  0.00  0.00    +0.013 C 
ATOM     20  C   UNL     1      -5.334   1.359  24.750  0.00  0.00    +0.013 C 
ATOM     23  C   UNL     1      -6.444   3.603  26.316  0.00  0.00    +0.001 C 
ATOM     24  C   UNL     1      -6.500   1.151  25.714  0.00  0.00    +0.001 C 
ATOM     25  C   UNL     1      -6.480   2.172  26.849  0.00  0.00    +0.000 C 
ENDBRANCH  22  13
BRANCH  31  32
ATOM     32  C   UNL     1       1.012   2.810  27.199  0.00  0.00    +0.037 A 
ATOM     33  C   UNL     1      -0.106   2.380  27.915  0.00  0.00    +0.015 A 
ATOM     34  C   UNL     1       2.230   2.995  27.853  0.00  0.00    +0.015 A 
ATOM     35  C   UNL     1      -0.007   2.135  29.283  0.00  0.00    +0.024 A 
ATOM     36  C   UNL     1       2.329   2.750  29.224  0.00  0.00    +0.024 A 
ATOM     37  C   UNL     1       1.211   2.321  29.939  0.00  0.00    +0.029 A 
BRANCH  37   9
ATOM      9  N   UNL     1       1.313   2.073  31.323  0.00  0.00    -0.336 N 
ATOM     38  C   UNL     1       2.491   1.428  31.869  0.00  0.00    +0.129 C 
ATOM     39  C   UNL     1       0.239   2.454  32.218  0.00  0.00    +0.129 C 
ENDBRANCH  37   9
ENDBRANCH  31  32
BRANCH  17  29
ATOM      2  O   UNL     1      -1.988   0.737  22.388  0.00  0.00    -0.274 OA
ATOM      7  N   UNL     1      -0.028   1.206  23.553  0.00  0.00    -0.302 N 
ATOM     29  C   UNL     1      -1.251   1.519  22.984  0.00  0.00    +0.236 C 
ATOM     40  H   UNL     1       0.492   1.927  24.045  0.00  0.00    +0.150 HD
BRANCH   7  21
ATOM     21  C   UNL     1       0.547  -0.119  23.512  0.00  0.00    +0.159 C 
BRANCH  21  30
ATOM      3  O   UNL     1       1.578  -0.538  21.352  0.00  0.00    -0.274 OA
ATOM      8  N   UNL     1       2.871   0.353  23.027  0.00  0.00    -0.328 N 
ATOM     30  C   UNL     1       1.688  -0.125  22.503  0.00  0.00    +0.231 C 
ATOM     41  H   UNL     1       3.711   0.394  22.460  0.00  0.00    +0.145 HD
ATOM     42  H   UNL     1       2.954   0.673  23.987  0.00  0.00    +0.145 HD
ENDBRANCH  21  30
BRANCH  21  14
ATOM     14  C   UNL     1      -0.503  -1.197  23.226  0.00  0.00    +0.035 C 
BRANCH  14  10
ATOM     10  C   UNL     1      -1.265  -1.673  24.462  0.00  0.00    -0.009 C 
ATOM     11  C   UNL     1      -2.704  -2.055  24.098  0.00  0.00    +0.003 C 
ATOM     12  C   UNL     1      -1.246  -0.598  25.557  0.00  0.00    +0.003 C 
ATOM     15  C   UNL     1      -3.503  -2.484  25.327  0.00  0.00    +0.000 C 
ATOM     16  C   UNL     1      -2.046  -1.029  26.784  0.00  0.00    +0.000 C 
ATOM     18  C   UNL     1      -3.475  -1.417  26.417  0.00  0.00    +0.000 C 
ENDBRANCH  14  10
ENDBRANCH  21  14
ENDBRANCH   7  21
ENDBRANCH  17  29
TORSDOF 8
ENDMDL
MODEL 2
REMARK VINA RESULT:      15.0      1.533      3.295
REMARK  Name = 45361700
REMARK  10 active torsions:
REMARK  status: ('A' for Active; 'I' for Inactive)
REMARK    1  A    between atoms: N_7  and  C_21
REMARK    2  A    between atoms: N_9  and  C_37
REMARK    3  A    between atoms: N_9  and  C_38
REMARK    4  A    between atoms: N_9  and  C_39
REMARK    5  A    between atoms: C_10  and  C_14
REMARK    6  A    between atoms: C_13  and  C_22
REMARK    7  A    between atoms: C_14  and  C_21
REMARK    8  A    between atoms: C_17  and  C_29
REMARK    9  A    between atoms: C_21  and  C_30
REMARK   10  A    between atoms: C_31  and  C_32
REMARK                            x       y       z     vdW  Elec       q    Type
REMARK                         _______ _______ _______ _____ _____    ______ ____
ROOT
ATOM      1  O   UNL     1      -4.316   3.078  22.121  0.00  0.00    -0.275 OA
ATOM      4  O   UNL     1       1.832   2.412  25.051  0.00  0.00    -0.270 OA
ATOM      5  N   UNL     1      -2.935   2.897  23.985  0.00  0.00    -0.287 N 
ATOM      6  N   UNL     1      -0.363   3.206  25.159  0.00  0.00    -0.294 N 
ATOM     17  C   UNL     1      -1.731   2.680  23.169  0.00  0.00    +0.179 C 
ATOM     22  C   UNL     1      -4.174   3.005  23.344  0.00  0.00    +0.219 C 
ATOM     26  C   UNL     1      -0.493   3.391  23.716  0.00  0.00    +0.140 C 
ATOM     27  C   UNL     1      -2.764   2.808  25.447  0.00  0.00    +0.127 C 
ATOM     28  C   UNL     1      -1.551   3.599  25.921  0.00  0.00    +0.127 C 
ATOM     31  C   UNL     1       0.838   2.741  25.698  0.00  0.00    +0.247 C 
ENDROOT
BRANCH  22  13
ATOM     13  C   UNL     1      -5.386   3.033  24.225  0.00  0.00    +0.075 C 
ATOM     19  C   UNL     1      -5.194   4.093  25.311  0.00  0.00    +0.013 C 
ATOM     20  C   UNL     1      -5.622   1.648  24.829  0.00  0.00    +0.013 C 
ATOM     23  C   UNL     1      -6.358   4.100  26.299  0.00  0.00    +0.001 C 
ATOM     24  C   UNL     1      -6.788   1.660  25.815  0.00  0.00    +0.001 C 
ATOM     25  C   UNL     1      -6.596   2.717  26.899  0.00  0.00    +0.000 C 
ENDBRANCH  22  13
BRANCH  31  32
ATOM     32  C   UNL     1       0.937   2.608  27.156  0.00  0.00    +0.037 A 
ATOM     33  C   UNL     1       2.174   2.745  27.787  0.00  0.00    +0.015 A 
ATOM     34  C   UNL     1      -0.205   2.345  27.912  0.00  0.00    +0.015 A 
ATOM     35  C   UNL     1       2.269   2.618  29.172  0.00  0.00    +0.024 A 
ATOM     36  C   UNL     1      -0.111   2.218  29.298  0.00  0.00    +0.024 A 
ATOM     37  C   UNL     1       1.127   2.354  29.928  0.00  0.00    +0.029 A 
BRANCH  37   9
ATOM      9  N   UNL     1       1.221   2.227  31.329  0.00  0.00    -0.336 N 
ATOM     38  C   UNL     1       0.161   2.722  32.185  0.00  0.00    +0.129 C 
ATOM     39  C   UNL     1       2.382   1.604  31.933  0.00  0.00    +0.129 C 
ENDBRANCH  37   9
ENDBRANCH  31  32
BRANCH  17  29
ATOM      2  O   UNL     1      -2.475   0.411  23.073  0.00  0.00    -0.274 OA
ATOM      7  N   UNL     1      -0.188   0.848  23.086  0.00  0.00    -0.302 N 
ATOM     29  C   UNL     1      -1.529   1.194  23.097  0.00  0.00    +0.236 C 
ATOM     40  H   UNL     1       0.516   1.579  23.133  0.00  0.00    +0.150 HD
BRANCH   7  21
ATOM     21  C   UNL     1       0.275  -0.520  23.043  0.00  0.00    +0.159 C 
BRANCH  21  30
ATOM      3  O   UNL     1       0.792  -2.157  24.762  0.00  0.00    -0.274 OA
ATOM      8  N   UNL     1      -0.295  -0.230  25.377  0.00  0.00    -0.328 N 
ATOM     30  C   UNL     1       0.307  -1.069  24.463  0.00  0.00    +0.231 C 
ATOM     41  H   UNL     1      -0.347  -0.482  26.358  0.00  0.00    +0.145 HD
ATOM     42  H   UNL     1      -0.709   0.658  25.114  0.00  0.00    +0.145 HD
ENDBRANCH  21  30
BRANCH  21  14
ATOM     14  C   UNL     1       1.621  -0.653  22.324  0.00  0.00    +0.035 C 
BRANCH  14  10
ATOM     10  C   UNL     1       2.826  -0.251  23.173  0.00  0.00    -0.009 C 
ATOM     11  C   UNL     1       3.601   0.893  22.506  0.00  0.00    +0.003 C 
ATOM     12  C   UNL     1       3.740  -1.457  23.423  0.00  0.00    +0.003 C 
ATOM     15  C   UNL     1       4.841   1.278  23.310  0.00  0.00    +0.000 C 
ATOM     16  C   UNL     1       4.980  -1.069  24.226  0.00  0.00    +0.000 C 
ATOM     18  C   UNL     1       5.743   0.074  23.565  0.00  0.00    +0.000 C 
ENDBRANCH  14  10
ENDBRANCH  21  14
ENDBRANCH   7  21
ENDBRANCH  17  29
TORSDOF 8
ENDMDL
