MODEL 1
REMARK VINA RESULT:       2.7      0.000      0.000
REMARK  Name = 75536148
REMARK  18 active torsions:
REMARK  status: ('A' for Active; 'I' for Inactive)
REMARK    1  A    between atoms: O_3  and  C_28
REMARK    2  A    between atoms: O_3  and  C_35
REMARK    3  A    between atoms: O_4  and  C_30
REMARK    4  A    between atoms: O_4  and  C_36
REMARK    5  A    between atoms: O_5  and  C_34
REMARK    6  A    between atoms: N_9  and  C_20
REMARK    7  A    between atoms: C_13  and  C_17
REMARK    8  A    between atoms: C_14  and  C_20
REMARK    9  A    between atoms: C_16  and  C_21
REMARK   10  A    between atoms: C_17  and  C_22
REMARK   11  A    between atoms: C_17  and  C_23
REMARK   12  A    between atoms: C_18  and  C_24
REMARK   13  A    between atoms: C_21  and  C_25
REMARK   14  A    between atoms: C_26  and  C_28
REMARK   15  A    between atoms: C_28  and  C_30
REMARK   16  A    between atoms: C_30  and  C_34
REMARK   17  A    between atoms: C_35  and  C_37
REMARK   18  A    between atoms: C_36  and  C_38
REMARK                            x       y       z     vdW  Elec       q    Type
REMARK                         _______ _______ _______ _____ _____    ______ ____
ROOT
ATOM     13  C   UNL     1      -3.068  -1.987  24.375  0.00  0.00    +0.000 C 
ATOM     14  C   UNL     1      -3.581  -1.161  25.581  0.00  0.00    +0.032 C 
ATOM     15  C   UNL     1      -1.615  -2.430  24.607  0.00  0.00    +0.012 C 
ATOM     16  C   UNL     1      -0.668  -1.235  24.818  0.00  0.00    +0.022 C 
ATOM     18  C   UNL     1      -1.236  -0.233  25.804  0.00  0.00    -0.073 C 
ATOM     19  C   UNL     1      -2.537  -0.224  26.143  0.00  0.00    -0.022 C 
ATOM     24  C   UNL     1      -0.263   0.729  26.428  0.00  0.00    +0.039 C 
ENDROOT
BRANCH  13  17
ATOM     17  C   UNL     1      -3.948  -3.212  24.108  0.00  0.00    -0.013 C 
ATOM     22  C   UNL     1      -3.132  -4.320  23.451  0.00  0.00    +0.007 C 
ATOM     23  C   UNL     1      -5.142  -2.830  23.238  0.00  0.00    +0.007 C 
ENDBRANCH  13  17
BRANCH  14  20
ATOM     20  C   UNL     1      -4.837  -0.364  25.213  0.00  0.00    +0.112 C 
BRANCH  20   9
ATOM      2  O   UNL     1      -6.650   1.799  24.620  0.00  0.00    -0.272 OA
ATOM      9  N   UNL     1      -4.491   0.950  24.769  0.00  0.00    -0.312 N 
ATOM     26  C   UNL     1      -5.434   1.943  24.503  0.00  0.00    +0.258 C 
ATOM     39  H   UNL     1      -3.506   1.184  24.687  0.00  0.00    +0.149 HD
BRANCH  26  28
ATOM     28  C   UNL     1      -4.807   3.247  24.022  0.00  0.00    +0.313 C 
BRANCH  28   3
ATOM      3  O   UNL     1      -4.857   4.194  25.081  0.00  0.00    -0.448 OA
BRANCH   3  35
ATOM      7  O   UNL     1      -5.628   2.987  26.895  0.00  0.00    -0.251 OA
ATOM     35  C   UNL     1      -4.780   3.677  26.346  0.00  0.00    +0.305 C 
ATOM     37  C   UNL     1      -3.486   4.082  26.984  0.00  0.00    +0.136 C 
ENDBRANCH   3  35
ENDBRANCH  28   3
BRANCH  28  30
ATOM     30  C   UNL     1      -3.363   3.044  23.554  0.00  0.00    +0.333 C 
BRANCH  30  34
ATOM      6  O   UNL     1      -3.992   3.438  21.238  0.00  0.00    -0.247 OA
ATOM     34  C   UNL     1      -3.291   2.851  22.052  0.00  0.00    +0.350 C 
BRANCH  34   5
ATOM      5  O   UNL     1      -2.335   1.954  21.694  0.00  0.00    -0.478 OA
ATOM     41  H   UNL     1      -1.525   2.048  22.237  0.00  0.00    +0.295 HD
ENDBRANCH  34   5
ENDBRANCH  30  34
BRANCH  30   4
ATOM      4  O   UNL     1      -2.600   4.197  23.888  0.00  0.00    -0.446 OA
BRANCH   4  36
ATOM      8  O   UNL     1      -0.676   2.932  24.078  0.00  0.00    -0.251 OA
ATOM     36  C   UNL     1      -1.306   3.963  24.266  0.00  0.00    +0.305 C 
ATOM     38  C   UNL     1      -0.752   5.171  24.960  0.00  0.00    +0.136 C 
ENDBRANCH   4  36
ENDBRANCH  30   4
ENDBRANCH  28  30
ENDBRANCH  26  28
ENDBRANCH  20   9
ENDBRANCH  14  20
BRANCH  16  21
ATOM     21  C   UNL     1      -0.326  -0.558  23.486  0.00  0.00    +0.082 C 
BRANCH  21  25
ATOM      1 CL   UNL     1       7.273  -0.640  23.440  0.00  0.00    -0.082 Cl
ATOM     10  N   UNL     1       2.083  -1.215  23.646  0.00  0.00    -0.340 N 
ATOM     11  N   UNL     1       1.686   0.898  23.064  0.00  0.00    -0.213 NA
ATOM     12  N   UNL     1       4.004   1.587  22.851  0.00  0.00    -0.233 NA
ATOM     25  C   UNL     1       1.142  -0.254  23.388  0.00  0.00    +0.110 A 
ATOM     27  C   UNL     1       3.315  -0.642  23.476  0.00  0.00    +0.087 A 
ATOM     29  C   UNL     1       3.038   0.672  23.114  0.00  0.00    +0.178 A 
ATOM     31  C   UNL     1       4.617  -1.115  23.595  0.00  0.00    +0.051 A 
ATOM     32  C   UNL     1       5.619  -0.186  23.329  0.00  0.00    +0.061 A 
ATOM     33  C   UNL     1       5.266   1.112  22.973  0.00  0.00    +0.133 A 
ATOM     40  H   UNL     1       1.903  -2.173  23.913  0.00  0.00    +0.167 HD
ENDBRANCH  21  25
ENDBRANCH  16  21
TORSDOF 13
ENDMDL
MODEL 2
REMARK VINA RESULT:       3.2      1.056      1.738
REMARK  Name = 75536148
REMARK  18 active torsions:
REMARK  status: ('A' for Active; 'I' for Inactive)
REMARK    1  A    between atoms: O_3  and  C_28
REMARK    2  A    between atoms: O_3  and  C_35
REMARK    3  A    between atoms: O_4  and  C_30
REMARK    4  A    between atoms: O_4  and  C_36
REMARK    5  A    between atoms: O_5  and  C_34
REMARK    6  A    between atoms: N_9  and  C_20
REMARK    7  A    between atoms: C_13  and  C_17
REMARK    8  A    between atoms: C_14  and  C_20
REMARK    9  A    between atoms: C_16  and  C_21
REMARK   10  A    between atoms: C_17  and  C_22
REMARK   11  A    between atoms: C_17  and  C_23
REMARK   12  A    between atoms: C_18  and  C_24
REMARK   13  A    between atoms: C_21  and  C_25
REMARK   14  A    between atoms: C_26  and  C_28
REMARK   15  A    between atoms: C_28  and  C_30
REMARK   16  A    between atoms: C_30  and  C_34
REMARK   17  A    between atoms: C_35  and  C_37
REMARK   18  A    between atoms: C_36  and  C_38
REMARK                            x       y       z     vdW  Elec       q    Type
REMARK                         _______ _______ _______ _____ _____    ______ ____
ROOT
ATOM     13  C   UNL     1      -3.069  -1.970  24.250  0.00  0.00    +0.000 C 
ATOM     14  C   UNL     1      -3.632  -1.080  25.384  0.00  0.00    +0.032 C 
ATOM     15  C   UNL     1      -1.622  -2.384  24.562  0.00  0.00    +0.012 C 
ATOM     16  C   UNL     1      -0.693  -1.169  24.736  0.00  0.00    +0.022 C 
ATOM     18  C   UNL     1      -1.305  -0.117  25.638  0.00  0.00    -0.073 C 
ATOM     19  C   UNL     1      -2.618  -0.100  25.928  0.00  0.00    -0.022 C 
ATOM     24  C   UNL     1      -0.364   0.891  26.239  0.00  0.00    +0.039 C 
ENDROOT
BRANCH  13  17
ATOM     17  C   UNL     1      -3.929  -3.217  24.024  0.00  0.00    -0.013 C 
ATOM     22  C   UNL     1      -3.110  -4.312  23.348  0.00  0.00    +0.007 C 
ATOM     23  C   UNL     1      -5.161  -2.872  23.194  0.00  0.00    +0.007 C 
ENDBRANCH  13  17
BRANCH  14  20
ATOM     20  C   UNL     1      -4.880  -0.318  24.923  0.00  0.00    +0.112 C 
BRANCH  20   9
ATOM      2  O   UNL     1      -3.555   1.414  23.037  0.00  0.00    -0.272 OA
ATOM      9  N   UNL     1      -4.685   1.093  25.042  0.00  0.00    -0.312 N 
ATOM     26  C   UNL     1      -4.030   1.861  24.079  0.00  0.00    +0.258 C 
ATOM     39  H   UNL     1      -5.085   1.565  25.848  0.00  0.00    +0.149 HD
BRANCH  26  28
ATOM     28  C   UNL     1      -3.935   3.335  24.456  0.00  0.00    +0.313 C 
BRANCH  28   3
ATOM      3  O   UNL     1      -4.300   3.479  25.823  0.00  0.00    -0.448 OA
BRANCH   3  35
ATOM      7  O   UNL     1      -6.307   2.722  26.680  0.00  0.00    -0.251 OA
ATOM     35  C   UNL     1      -5.642   3.553  26.076  0.00  0.00    +0.305 C 
ATOM     37  C   UNL     1      -6.201   4.818  25.500  0.00  0.00    +0.136 C 
ENDBRANCH   3  35
ENDBRANCH  28   3
BRANCH  28  30
ATOM     30  C   UNL     1      -2.530   3.895  24.216  0.00  0.00    +0.333 C 
BRANCH  30  34
ATOM      6  O   UNL     1      -1.795   5.888  25.400  0.00  0.00    -0.247 OA
ATOM     34  C   UNL     1      -2.039   4.688  25.411  0.00  0.00    +0.350 C 
BRANCH  34   5
ATOM      5  O   UNL     1      -1.913   3.919  26.523  0.00  0.00    -0.478 OA
ATOM     41  H   UNL     1      -1.809   4.461  27.333  0.00  0.00    +0.295 HD
ENDBRANCH  34   5
ENDBRANCH  30  34
BRANCH  30   4
ATOM      4  O   UNL     1      -1.630   2.814  24.002  0.00  0.00    -0.446 OA
BRANCH   4  36
ATOM      8  O   UNL     1       0.514   2.638  24.843  0.00  0.00    -0.251 OA
ATOM     36  C   UNL     1      -0.300   3.127  24.073  0.00  0.00    +0.305 C 
ATOM     38  C   UNL     1       0.032   4.177  23.055  0.00  0.00    +0.136 C 
ENDBRANCH   4  36
ENDBRANCH  30   4
ENDBRANCH  28  30
ENDBRANCH  26  28
ENDBRANCH  20   9
ENDBRANCH  14  20
BRANCH  16  21
ATOM     21  C   UNL     1      -0.306  -0.569  23.379  0.00  0.00    +0.082 C 
BRANCH  21  25
ATOM      1 CL   UNL     1       7.285  -0.755  23.683  0.00  0.00    -0.082 Cl
ATOM     10  N   UNL     1       2.081  -1.223  23.748  0.00  0.00    -0.340 N 
ATOM     11  N   UNL     1       1.750   0.775  22.820  0.00  0.00    -0.213 NA
ATOM     12  N   UNL     1       4.088   1.392  22.604  0.00  0.00    -0.233 NA
ATOM     25  C   UNL     1       1.170  -0.304  23.299  0.00  0.00    +0.110 A 
ATOM     27  C   UNL     1       3.330  -0.701  23.544  0.00  0.00    +0.087 A 
ATOM     29  C   UNL     1       3.094   0.542  22.966  0.00  0.00    +0.178 A 
ATOM     31  C   UNL     1       4.616  -1.165  23.794  0.00  0.00    +0.051 A 
ATOM     32  C   UNL     1       5.647  -0.303  23.428  0.00  0.00    +0.061 A 
ATOM     33  C   UNL     1       5.334   0.925  22.855  0.00  0.00    +0.133 A 
ATOM     40  H   UNL     1       1.871  -2.124  24.155  0.00  0.00    +0.167 HD
ENDBRANCH  21  25
ENDBRANCH  16  21
TORSDOF 13
ENDMDL
MODEL 3
REMARK VINA RESULT:       3.6      0.979      2.417
REMARK  Name = 75536148
REMARK  18 active torsions:
REMARK  status: ('A' for Active; 'I' for Inactive)
REMARK    1  A    between atoms: O_3  and  C_28
REMARK    2  A    between atoms: O_3  and  C_35
REMARK    3  A    between atoms: O_4  and  C_30
REMARK    4  A    between atoms: O_4  and  C_36
REMARK    5  A    between atoms: O_5  and  C_34
REMARK    6  A    between atoms: N_9  and  C_20
REMARK    7  A    between atoms: C_13  and  C_17
REMARK    8  A    between atoms: C_14  and  C_20
REMARK    9  A    between atoms: C_16  and  C_21
REMARK   10  A    between atoms: C_17  and  C_22
REMARK   11  A    between atoms: C_17  and  C_23
REMARK   12  A    between atoms: C_18  and  C_24
REMARK   13  A    between atoms: C_21  and  C_25
REMARK   14  A    between atoms: C_26  and  C_28
REMARK   15  A    between atoms: C_28  and  C_30
REMARK   16  A    between atoms: C_30  and  C_34
REMARK   17  A    between atoms: C_35  and  C_37
REMARK   18  A    between atoms: C_36  and  C_38
REMARK                            x       y       z     vdW  Elec       q    Type
REMARK                         _______ _______ _______ _____ _____    ______ ____
ROOT
ATOM     13  C   UNL     1      -3.097  -2.098  24.542  0.00  0.00    +0.000 C 
ATOM     14  C   UNL     1      -3.467  -1.466  25.906  0.00  0.00    +0.032 C 
ATOM     15  C   UNL     1      -1.647  -2.605  24.562  0.00  0.00    +0.012 C 
ATOM     16  C   UNL     1      -0.640  -1.481  24.867  0.00  0.00    +0.022 C 
ATOM     18  C   UNL     1      -1.079  -0.638  26.048  0.00  0.00    -0.073 C 
ATOM     19  C   UNL     1      -2.342  -0.654  26.507  0.00  0.00    -0.022 C 
ATOM     24  C   UNL     1      -0.018   0.190  26.720  0.00  0.00    +0.039 C 
ENDROOT
BRANCH  13  17
ATOM     17  C   UNL     1      -4.043  -3.244  24.171  0.00  0.00    -0.013 C 
ATOM     22  C   UNL     1      -3.286  -4.337  23.423  0.00  0.00    +0.007 C 
ATOM     23  C   UNL     1      -5.208  -2.724  23.335  0.00  0.00    +0.007 C 
ENDBRANCH  13  17
BRANCH  14  20
ATOM     20  C   UNL     1      -4.721  -0.592  25.790  0.00  0.00    +0.112 C 
BRANCH  20   9
ATOM      2  O   UNL     1      -4.008   0.443  23.195  0.00  0.00    -0.272 OA
ATOM      9  N   UNL     1      -4.371   0.757  25.469  0.00  0.00    -0.312 N 
ATOM     26  C   UNL     1      -4.037   1.176  24.181  0.00  0.00    +0.258 C 
ATOM     39  H   UNL     1      -4.412   1.451  26.210  0.00  0.00    +0.149 HD
BRANCH  26  28
ATOM     28  C   UNL     1      -3.682   2.657  24.111  0.00  0.00    +0.313 C 
BRANCH  28   3
ATOM      3  O   UNL     1      -3.647   3.052  22.746  0.00  0.00    -0.448 OA
BRANCH   3  35
ATOM      7  O   UNL     1      -2.576   2.275  20.852  0.00  0.00    -0.251 OA
ATOM     35  C   UNL     1      -2.569   2.615  22.027  0.00  0.00    +0.305 C 
ATOM     37  C   UNL     1      -1.347   2.607  22.895  0.00  0.00    +0.136 C 
ENDBRANCH   3  35
ENDBRANCH  28   3
BRANCH  28  30
ATOM     30  C   UNL     1      -4.679   3.519  24.891  0.00  0.00    +0.333 C 
BRANCH  30  34
ATOM      6  O   UNL     1      -6.639   2.116  24.559  0.00  0.00    -0.247 OA
ATOM     34  C   UNL     1      -5.889   2.712  25.322  0.00  0.00    +0.350 C 
BRANCH  34   5
ATOM      5  O   UNL     1      -6.047   2.702  26.671  0.00  0.00    -0.478 OA
ATOM     41  H   UNL     1      -6.667   3.398  26.971  0.00  0.00    +0.295 HD
ENDBRANCH  34   5
ENDBRANCH  30  34
BRANCH  30   4
ATOM      4  O   UNL     1      -4.044   4.021  26.060  0.00  0.00    -0.446 OA
BRANCH   4  36
ATOM      8  O   UNL     1      -1.921   3.207  26.466  0.00  0.00    -0.251 OA
ATOM     36  C   UNL     1      -2.677   4.060  26.024  0.00  0.00    +0.305 C 
ATOM     38  C   UNL     1      -2.221   5.321  25.352  0.00  0.00    +0.136 C 
ENDBRANCH   4  36
ENDBRANCH  30   4
ENDBRANCH  28  30
ENDBRANCH  26  28
ENDBRANCH  20   9
ENDBRANCH  14  20
BRANCH  16  21
ATOM     21  C   UNL     1      -0.396  -0.606  23.631  0.00  0.00    +0.082 C 
BRANCH  21  25
ATOM      1 CL   UNL     1       7.197  -0.591  23.307  0.00  0.00    -0.082 Cl
ATOM     10  N   UNL     1       2.027  -1.225  23.727  0.00  0.00    -0.340 N 
ATOM     11  N   UNL     1       1.578   0.858  23.078  0.00  0.00    -0.213 NA
ATOM     12  N   UNL     1       3.877   1.568  22.754  0.00  0.00    -0.233 NA
ATOM     25  C   UNL     1       1.063  -0.288  23.467  0.00  0.00    +0.110 A 
ATOM     27  C   UNL     1       3.243  -0.643  23.490  0.00  0.00    +0.087 A 
ATOM     29  C   UNL     1       2.935   0.651  23.088  0.00  0.00    +0.178 A 
ATOM     31  C   UNL     1       4.556  -1.094  23.579  0.00  0.00    +0.051 A 
ATOM     32  C   UNL     1       5.534  -0.163  23.239  0.00  0.00    +0.061 A 
ATOM     33  C   UNL     1       5.149   1.114  22.846  0.00  0.00    +0.133 A 
ATOM     40  H   UNL     1       1.871  -2.174  24.038  0.00  0.00    +0.167 HD
ENDBRANCH  21  25
ENDBRANCH  16  21
TORSDOF 13
ENDMDL
MODEL 4
REMARK VINA RESULT:       4.8      3.281      7.228
REMARK  Name = 75536148
REMARK  18 active torsions:
REMARK  status: ('A' for Active; 'I' for Inactive)
REMARK    1  A    between atoms: O_3  and  C_28
REMARK    2  A    between atoms: O_3  and  C_35
REMARK    3  A    between atoms: O_4  and  C_30
REMARK    4  A    between atoms: O_4  and  C_36
REMARK    5  A    between atoms: O_5  and  C_34
REMARK    6  A    between atoms: N_9  and  C_20
REMARK    7  A    between atoms: C_13  and  C_17
REMARK    8  A    between atoms: C_14  and  C_20
REMARK    9  A    between atoms: C_16  and  C_21
REMARK   10  A    between atoms: C_17  and  C_22
REMARK   11  A    between atoms: C_17  and  C_23
REMARK   12  A    between atoms: C_18  and  C_24
REMARK   13  A    between atoms: C_21  and  C_25
REMARK   14  A    between atoms: C_26  and  C_28
REMARK   15  A    between atoms: C_28  and  C_30
REMARK   16  A    between atoms: C_30  and  C_34
REMARK   17  A    between atoms: C_35  and  C_37
REMARK   18  A    between atoms: C_36  and  C_38
REMARK                            x       y       z     vdW  Elec       q    Type
REMARK                         _______ _______ _______ _____ _____    ______ ____
ROOT
ATOM     13  C   UNL     1      -2.766   2.363  24.030  0.00  0.00    +0.000 C 
ATOM     14  C   UNL     1      -1.757   3.019  25.004  0.00  0.00    +0.032 C 
ATOM     15  C   UNL     1      -3.859   3.367  23.634  0.00  0.00    +0.012 C 
ATOM     16  C   UNL     1      -4.634   3.897  24.855  0.00  0.00    +0.022 C 
ATOM     18  C   UNL     1      -3.701   4.317  25.974  0.00  0.00    -0.073 C 
ATOM     19  C   UNL     1      -2.416   3.927  26.017  0.00  0.00    -0.022 C 
ATOM     24  C   UNL     1      -4.270   5.237  27.019  0.00  0.00    +0.039 C 
ENDROOT
BRANCH  13  17
ATOM     17  C   UNL     1      -2.076   1.824  22.773  0.00  0.00    -0.013 C 
ATOM     22  C   UNL     1      -2.462   2.658  21.556  0.00  0.00    +0.007 C 
ATOM     23  C   UNL     1      -2.432   0.356  22.558  0.00  0.00    +0.007 C 
ENDBRANCH  13  17
BRANCH  14  20
ATOM     20  C   UNL     1      -0.923   1.960  25.734  0.00  0.00    +0.112 C 
BRANCH  20   9
ATOM      2  O   UNL     1       1.030   3.271  24.066  0.00  0.00    -0.272 OA
ATOM      9  N   UNL     1       0.000   1.336  24.838  0.00  0.00    -0.312 N 
ATOM     26  C   UNL     1       0.917   2.047  24.063  0.00  0.00    +0.258 C 
ATOM     39  H   UNL     1       0.018   0.321  24.799  0.00  0.00    +0.149 HD
BRANCH  26  28
ATOM     28  C   UNL     1       1.770   1.148  23.175  0.00  0.00    +0.313 C 
BRANCH  28   3
ATOM      3  O   UNL     1       2.935   0.770  23.896  0.00  0.00    -0.448 OA
BRANCH   3  35
ATOM      7  O   UNL     1       4.355   1.630  22.289  0.00  0.00    -0.251 OA
ATOM     35  C   UNL     1       4.115   0.862  23.211  0.00  0.00    +0.305 C 
ATOM     37  C   UNL     1       5.099  -0.130  23.754  0.00  0.00    +0.136 C 
ENDBRANCH   3  35
ENDBRANCH  28   3
BRANCH  28  30
ATOM     30  C   UNL     1       1.000  -0.094  22.716  0.00  0.00    +0.333 C 
BRANCH  30  34
ATOM      6  O   UNL     1       0.884  -1.382  20.656  0.00  0.00    -0.247 OA
ATOM     34  C   UNL     1       1.469  -0.562  21.352  0.00  0.00    +0.350 C 
BRANCH  34   5
ATOM      5  O   UNL     1       2.619   0.050  20.965  0.00  0.00    -0.478 OA
ATOM     41  H   UNL     1       2.893  -0.223  20.065  0.00  0.00    +0.295 HD
ENDBRANCH  34   5
ENDBRANCH  30  34
BRANCH  30   4
ATOM      4  O   UNL     1       1.221  -1.148  23.645  0.00  0.00    -0.446 OA
BRANCH   4  36
ATOM      8  O   UNL     1      -1.033  -1.210  24.149  0.00  0.00    -0.251 OA
ATOM     36  C   UNL     1       0.122  -1.559  24.349  0.00  0.00    +0.305 C 
ATOM     38  C   UNL     1       0.536  -2.518  25.424  0.00  0.00    +0.136 C 
ENDBRANCH   4  36
ENDBRANCH  30   4
ENDBRANCH  28  30
ENDBRANCH  26  28
ENDBRANCH  20   9
ENDBRANCH  14  20
BRANCH  16  21
ATOM     21  C   UNL     1      -5.656   2.868  25.352  0.00  0.00    +0.082 C 
BRANCH  21  25
ATOM      1 CL   UNL     1      -3.604  -4.232  23.583  0.00  0.00    -0.082 Cl
ATOM     10  N   UNL     1      -5.321   0.662  24.219  0.00  0.00    -0.340 N 
ATOM     11  N   UNL     1      -4.371   0.883  26.222  0.00  0.00    -0.213 NA
ATOM     12  N   UNL     1      -3.388  -1.334  26.329  0.00  0.00    -0.233 NA
ATOM     25  C   UNL     1      -5.098   1.474  25.299  0.00  0.00    +0.110 A 
ATOM     27  C   UNL     1      -4.695  -0.531  24.463  0.00  0.00    +0.087 A 
ATOM     29  C   UNL     1      -4.113  -0.365  25.715  0.00  0.00    +0.178 A 
ATOM     31  C   UNL     1      -4.573  -1.715  23.745  0.00  0.00    +0.051 A 
ATOM     32  C   UNL     1      -3.832  -2.718  24.363  0.00  0.00    +0.061 A 
ATOM     33  C   UNL     1      -3.279  -2.480  25.617  0.00  0.00    +0.133 A 
ATOM     40  H   UNL     1      -5.851   0.899  23.392  0.00  0.00    +0.167 HD
ENDBRANCH  21  25
ENDBRANCH  16  21
TORSDOF 13
ENDMDL
MODEL 5
REMARK VINA RESULT:       5.6      1.100      2.539
REMARK  Name = 75536148
REMARK  18 active torsions:
REMARK  status: ('A' for Active; 'I' for Inactive)
REMARK    1  A    between atoms: O_3  and  C_28
REMARK    2  A    between atoms: O_3  and  C_35
REMARK    3  A    between atoms: O_4  and  C_30
REMARK    4  A    between atoms: O_4  and  C_36
REMARK    5  A    between atoms: O_5  and  C_34
REMARK    6  A    between atoms: N_9  and  C_20
REMARK    7  A    between atoms: C_13  and  C_17
REMARK    8  A    between atoms: C_14  and  C_20
REMARK    9  A    between atoms: C_16  and  C_21
REMARK   10  A    between atoms: C_17  and  C_22
REMARK   11  A    between atoms: C_17  and  C_23
REMARK   12  A    between atoms: C_18  and  C_24
REMARK   13  A    between atoms: C_21  and  C_25
REMARK   14  A    between atoms: C_26  and  C_28
REMARK   15  A    between atoms: C_28  and  C_30
REMARK   16  A    between atoms: C_30  and  C_34
REMARK   17  A    between atoms: C_35  and  C_37
REMARK   18  A    between atoms: C_36  and  C_38
REMARK                            x       y       z     vdW  Elec       q    Type
REMARK                         _______ _______ _______ _____ _____    ______ ____
ROOT
ATOM     13  C   UNL     1      -3.001  -2.004  24.029  0.00  0.00    +0.000 C 
ATOM     14  C   UNL     1      -3.370  -1.469  25.435  0.00  0.00    +0.032 C 
ATOM     15  C   UNL     1      -1.590  -2.611  24.040  0.00  0.00    +0.012 C 
ATOM     16  C   UNL     1      -0.519  -1.591  24.470  0.00  0.00    +0.022 C 
ATOM     18  C   UNL     1      -0.937  -0.827  25.711  0.00  0.00    -0.073 C 
ATOM     19  C   UNL     1      -2.212  -0.794  26.134  0.00  0.00    -0.022 C 
ATOM     24  C   UNL     1       0.156  -0.137  26.481  0.00  0.00    +0.039 C 
ENDROOT
BRANCH  13  17
ATOM     17  C   UNL     1      -4.010  -3.044  23.533  0.00  0.00    -0.013 C 
ATOM     22  C   UNL     1      -5.386  -2.409  23.361  0.00  0.00    +0.007 C 
ATOM     23  C   UNL     1      -4.076  -4.224  24.497  0.00  0.00    +0.007 C 
ENDBRANCH  13  17
BRANCH  14  20
ATOM     20  C   UNL     1      -4.558  -0.503  25.366  0.00  0.00    +0.112 C 
BRANCH  20   9
ATOM      2  O   UNL     1      -2.986   0.989  23.464  0.00  0.00    -0.272 OA
ATOM      9  N   UNL     1      -4.117   0.852  25.490  0.00  0.00    -0.312 N 
ATOM     26  C   UNL     1      -3.356   1.502  24.518  0.00  0.00    +0.258 C 
ATOM     39  H   UNL     1      -4.412   1.379  26.307  0.00  0.00    +0.149 HD
BRANCH  26  28
ATOM     28  C   UNL     1      -2.997   2.934  24.902  0.00  0.00    +0.313 C 
BRANCH  28   3
ATOM      3  O   UNL     1      -1.818   3.310  24.203  0.00  0.00    -0.448 OA
BRANCH   3  35
ATOM      7  O   UNL     1      -0.788   5.225  24.986  0.00  0.00    -0.251 OA
ATOM     35  C   UNL     1      -0.892   4.007  24.929  0.00  0.00    +0.305 C 
ATOM     37  C   UNL     1       0.001   3.054  25.665  0.00  0.00    +0.136 C 
ENDBRANCH   3  35
ENDBRANCH  28   3
BRANCH  28  30
ATOM     30  C   UNL     1      -4.137   3.908  24.591  0.00  0.00    +0.333 C 
BRANCH  30  34
ATOM      6  O   UNL     1      -3.940   5.689  22.947  0.00  0.00    -0.247 OA
ATOM     34  C   UNL     1      -4.001   4.493  23.199  0.00  0.00    +0.350 C 
BRANCH  34   5
ATOM      5  O   UNL     1      -3.933   3.531  22.242  0.00  0.00    -0.478 OA
ATOM     41  H   UNL     1      -3.007   3.333  21.988  0.00  0.00    +0.295 HD
ENDBRANCH  34   5
ENDBRANCH  30  34
BRANCH  30   4
ATOM      4  O   UNL     1      -5.375   3.212  24.660  0.00  0.00    -0.446 OA
BRANCH   4  36
ATOM      8  O   UNL     1      -6.449   2.521  26.585  0.00  0.00    -0.251 OA
ATOM     36  C   UNL     1      -6.098   3.396  25.807  0.00  0.00    +0.305 C 
ATOM     38  C   UNL     1      -6.410   4.852  25.984  0.00  0.00    +0.136 C 
ENDBRANCH   4  36
ENDBRANCH  30   4
ENDBRANCH  28  30
ENDBRANCH  26  28
ENDBRANCH  20   9
ENDBRANCH  14  20
BRANCH  16  21
ATOM     21  C   UNL     1      -0.178  -0.631  23.325  0.00  0.00    +0.082 C 
BRANCH  21  25
ATOM      1 CL   UNL     1       7.417  -0.663  23.606  0.00  0.00    -0.082 Cl
ATOM     10  N   UNL     1       2.227  -1.275  23.578  0.00  0.00    -0.340 N 
ATOM     11  N   UNL     1       1.840   0.844  23.013  0.00  0.00    -0.213 NA
ATOM     12  N   UNL     1       4.160   1.552  22.913  0.00  0.00    -0.233 NA
ATOM     25  C   UNL     1       1.291  -0.316  23.295  0.00  0.00    +0.110 A 
ATOM     27  C   UNL     1       3.461  -0.692  23.471  0.00  0.00    +0.087 A 
ATOM     29  C   UNL     1       3.191   0.626  23.119  0.00  0.00    +0.178 A 
ATOM     31  C   UNL     1       4.760  -1.157  23.639  0.00  0.00    +0.051 A 
ATOM     32  C   UNL     1       5.766  -0.218  23.431  0.00  0.00    +0.061 A 
ATOM     33  C   UNL     1       5.419   1.083  23.080  0.00  0.00    +0.133 A 
ATOM     40  H   UNL     1       2.043  -2.239  23.822  0.00  0.00    +0.167 HD
ENDBRANCH  21  25
ENDBRANCH  16  21
TORSDOF 13
ENDMDL
MODEL 6
REMARK VINA RESULT:       6.1      3.057      7.055
REMARK  Name = 75536148
REMARK  18 active torsions:
REMARK  status: ('A' for Active; 'I' for Inactive)
REMARK    1  A    between atoms: O_3  and  C_28
REMARK    2  A    between atoms: O_3  and  C_35
REMARK    3  A    between atoms: O_4  and  C_30
REMARK    4  A    between atoms: O_4  and  C_36
REMARK    5  A    between atoms: O_5  and  C_34
REMARK    6  A    between atoms: N_9  and  C_20
REMARK    7  A    between atoms: C_13  and  C_17
REMARK    8  A    between atoms: C_14  and  C_20
REMARK    9  A    between atoms: C_16  and  C_21
REMARK   10  A    between atoms: C_17  and  C_22
REMARK   11  A    between atoms: C_17  and  C_23
REMARK   12  A    between atoms: C_18  and  C_24
REMARK   13  A    between atoms: C_21  and  C_25
REMARK   14  A    between atoms: C_26  and  C_28
REMARK   15  A    between atoms: C_28  and  C_30
REMARK   16  A    between atoms: C_30  and  C_34
REMARK   17  A    between atoms: C_35  and  C_37
REMARK   18  A    between atoms: C_36  and  C_38
REMARK                            x       y       z     vdW  Elec       q    Type
REMARK                         _______ _______ _______ _____ _____    ______ ____
ROOT
ATOM     13  C   UNL     1      -2.794   4.601  25.236  0.00  0.00    +0.000 C 
ATOM     14  C   UNL     1      -2.687   4.039  26.675  0.00  0.00    +0.032 C 
ATOM     15  C   UNL     1      -4.228   5.075  24.951  0.00  0.00    +0.012 C 
ATOM     16  C   UNL     1      -5.258   3.942  25.109  0.00  0.00    +0.022 C 
ATOM     18  C   UNL     1      -5.045   3.163  26.392  0.00  0.00    -0.073 C 
ATOM     19  C   UNL     1      -3.895   3.229  27.085  0.00  0.00    -0.022 C 
ATOM     24  C   UNL     1      -6.204   2.341  26.885  0.00  0.00    +0.039 C 
ENDROOT
BRANCH  13  17
ATOM     17  C   UNL     1      -1.811   5.752  25.000  0.00  0.00    -0.013 C 
ATOM     22  C   UNL     1      -2.349   6.701  23.934  0.00  0.00    +0.007 C 
ATOM     23  C   UNL     1      -0.442   5.209  24.599  0.00  0.00    +0.007 C 
ENDBRANCH  13  17
BRANCH  14  20
ATOM     20  C   UNL     1      -1.422   3.191  26.845  0.00  0.00    +0.112 C 
BRANCH  20   9
ATOM      2  O   UNL     1       0.841   2.392  25.245  0.00  0.00    -0.272 OA
ATOM      9  N   UNL     1      -1.382   2.140  25.876  0.00  0.00    -0.312 N 
ATOM     26  C   UNL     1      -0.241   1.817  25.141  0.00  0.00    +0.258 C 
ATOM     39  H   UNL     1      -2.216   1.573  25.750  0.00  0.00    +0.149 HD
BRANCH  26  28
ATOM     28  C   UNL     1      -0.469   0.674  24.159  0.00  0.00    +0.313 C 
BRANCH  28   3
ATOM      3  O   UNL     1      -0.530   1.210  22.844  0.00  0.00    -0.448 OA
BRANCH   3  35
ATOM      7  O   UNL     1      -2.064   2.920  23.090  0.00  0.00    -0.251 OA
ATOM     35  C   UNL     1      -1.668   1.903  22.536  0.00  0.00    +0.305 C 
ATOM     37  C   UNL     1      -2.383   1.233  21.401  0.00  0.00    +0.136 C 
ENDBRANCH   3  35
ENDBRANCH  28   3
BRANCH  28  30
ATOM     30  C   UNL     1       0.633  -0.386  24.253  0.00  0.00    +0.333 C 
BRANCH  30  34
ATOM      6  O   UNL     1      -0.675  -2.382  23.782  0.00  0.00    -0.247 OA
ATOM     34  C   UNL     1       0.056  -1.759  24.541  0.00  0.00    +0.350 C 
BRANCH  34   5
ATOM      5  O   UNL     1       0.458  -2.244  25.744  0.00  0.00    -0.478 OA
ATOM     41  H   UNL     1       0.161  -1.676  26.486  0.00  0.00    +0.295 HD
ENDBRANCH  34   5
ENDBRANCH  30  34
BRANCH  30   4
ATOM      4  O   UNL     1       1.326  -0.448  23.013  0.00  0.00    -0.446 OA
BRANCH   4  36
ATOM      8  O   UNL     1       3.438  -1.282  23.435  0.00  0.00    -0.251 OA
ATOM     36  C   UNL     1       2.690  -0.378  23.090  0.00  0.00    +0.305 C 
ATOM     38  C   UNL     1       3.153   0.989  22.687  0.00  0.00    +0.136 C 
ENDBRANCH   4  36
ENDBRANCH  30   4
ENDBRANCH  28  30
ENDBRANCH  26  28
ENDBRANCH  20   9
ENDBRANCH  14  20
BRANCH  16  21
ATOM     21  C   UNL     1      -5.246   3.008  23.893  0.00  0.00    +0.082 C 
BRANCH  21  25
ATOM      1 CL   UNL     1      -3.550  -4.387  24.322  0.00  0.00    -0.082 Cl
ATOM     10  N   UNL     1      -5.018   0.554  23.463  0.00  0.00    -0.340 N 
ATOM     11  N   UNL     1      -4.069   1.308  25.332  0.00  0.00    -0.213 NA
ATOM     12  N   UNL     1      -3.200  -0.824  26.103  0.00  0.00    -0.233 NA
ATOM     25  C   UNL     1      -4.760   1.635  24.262  0.00  0.00    +0.110 A 
ATOM     27  C   UNL     1      -4.455  -0.543  24.058  0.00  0.00    +0.087 A 
ATOM     29  C   UNL     1      -3.872  -0.045  25.218  0.00  0.00    +0.178 A 
ATOM     31  C   UNL     1      -4.390  -1.890  23.720  0.00  0.00    +0.051 A 
ATOM     32  C   UNL     1      -3.704  -2.702  24.620  0.00  0.00    +0.061 A 
ATOM     33  C   UNL     1      -3.146  -2.133  25.760  0.00  0.00    +0.133 A 
ATOM     40  H   UNL     1      -5.531   0.562  22.592  0.00  0.00    +0.167 HD
ENDBRANCH  21  25
ENDBRANCH  16  21
TORSDOF 13
ENDMDL
MODEL 7
REMARK VINA RESULT:       6.1      3.541      7.145
REMARK  Name = 75536148
REMARK  18 active torsions:
REMARK  status: ('A' for Active; 'I' for Inactive)
REMARK    1  A    between atoms: O_3  and  C_28
REMARK    2  A    between atoms: O_3  and  C_35
REMARK    3  A    between atoms: O_4  and  C_30
REMARK    4  A    between atoms: O_4  and  C_36
REMARK    5  A    between atoms: O_5  and  C_34
REMARK    6  A    between atoms: N_9  and  C_20
REMARK    7  A    between atoms: C_13  and  C_17
REMARK    8  A    between atoms: C_14  and  C_20
REMARK    9  A    between atoms: C_16  and  C_21
REMARK   10  A    between atoms: C_17  and  C_22
REMARK   11  A    between atoms: C_17  and  C_23
REMARK   12  A    between atoms: C_18  and  C_24
REMARK   13  A    between atoms: C_21  and  C_25
REMARK   14  A    between atoms: C_26  and  C_28
REMARK   15  A    between atoms: C_28  and  C_30
REMARK   16  A    between atoms: C_30  and  C_34
REMARK   17  A    between atoms: C_35  and  C_37
REMARK   18  A    between atoms: C_36  and  C_38
REMARK                            x       y       z     vdW  Elec       q    Type
REMARK                         _______ _______ _______ _____ _____    ______ ____
ROOT
ATOM     13  C   UNL     1      -2.348   2.318  24.191  0.00  0.00    +0.000 C 
ATOM     14  C   UNL     1      -1.431   3.494  24.608  0.00  0.00    +0.032 C 
ATOM     15  C   UNL     1      -3.747   2.835  23.823  0.00  0.00    +0.012 C 
ATOM     16  C   UNL     1      -4.417   3.586  24.988  0.00  0.00    +0.022 C 
ATOM     18  C   UNL     1      -3.474   4.584  25.630  0.00  0.00    -0.073 C 
ATOM     19  C   UNL     1      -2.144   4.536  25.438  0.00  0.00    -0.022 C 
ATOM     24  C   UNL     1      -4.100   5.669  26.461  0.00  0.00    +0.039 C 
ENDROOT
BRANCH  13  17
ATOM     17  C   UNL     1      -1.761   1.527  23.018  0.00  0.00    -0.013 C 
ATOM     22  C   UNL     1      -1.391   2.467  21.875  0.00  0.00    +0.007 C 
ATOM     23  C   UNL     1      -2.748   0.463  22.547  0.00  0.00    +0.007 C 
ENDBRANCH  13  17
BRANCH  14  20
ATOM     20  C   UNL     1      -0.198   2.992  25.369  0.00  0.00    +0.112 C 
BRANCH  20   9
ATOM      2  O   UNL     1       1.898   2.083  23.609  0.00  0.00    -0.272 OA
ATOM      9  N   UNL     1       0.100   1.640  25.014  0.00  0.00    -0.312 N 
ATOM     26  C   UNL     1       1.137   1.284  24.151  0.00  0.00    +0.258 C 
ATOM     39  H   UNL     1      -0.444   0.900  25.449  0.00  0.00    +0.149 HD
BRANCH  26  28
ATOM     28  C   UNL     1       1.229  -0.221  23.920  0.00  0.00    +0.313 C 
BRANCH  28   3
ATOM      3  O   UNL     1      -0.010  -0.676  23.392  0.00  0.00    -0.448 OA
BRANCH   3  35
ATOM      7  O   UNL     1      -1.139  -2.691  23.443  0.00  0.00    -0.251 OA
ATOM     35  C   UNL     1      -0.548  -1.776  24.001  0.00  0.00    +0.305 C 
ATOM     37  C   UNL     1      -0.311  -1.708  25.479  0.00  0.00    +0.136 C 
ENDBRANCH   3  35
ENDBRANCH  28   3
BRANCH  28  30
ATOM     30  C   UNL     1       2.378  -0.581  22.974  0.00  0.00    +0.333 C 
BRANCH  30  34
ATOM      6  O   UNL     1       1.036  -0.603  20.946  0.00  0.00    -0.247 OA
ATOM     34  C   UNL     1       2.042  -0.233  21.537  0.00  0.00    +0.350 C 
BRANCH  34   5
ATOM      5  O   UNL     1       2.983   0.564  20.967  0.00  0.00    -0.478 OA
ATOM     41  H   UNL     1       2.846   1.509  21.192  0.00  0.00    +0.295 HD
ENDBRANCH  34   5
ENDBRANCH  30  34
BRANCH  30   4
ATOM      4  O   UNL     1       3.537   0.155  23.348  0.00  0.00    -0.446 OA
BRANCH   4  36
ATOM      8  O   UNL     1       4.624  -1.797  23.936  0.00  0.00    -0.251 OA
ATOM     36  C   UNL     1       4.619  -0.592  23.725  0.00  0.00    +0.305 C 
ATOM     38  C   UNL     1       5.827   0.287  23.847  0.00  0.00    +0.136 C 
ENDBRANCH   4  36
ENDBRANCH  30   4
ENDBRANCH  28  30
ENDBRANCH  26  28
ENDBRANCH  20   9
ENDBRANCH  14  20
BRANCH  16  21
ATOM     21  C   UNL     1      -4.971   2.608  26.031  0.00  0.00    +0.082 C 
BRANCH  21  25
ATOM      1 CL   UNL     1      -4.305  -4.246  22.819  0.00  0.00    -0.082 Cl
ATOM     10  N   UNL     1      -5.122   0.632  24.504  0.00  0.00    -0.340 N 
ATOM     11  N   UNL     1      -3.945   0.333  26.371  0.00  0.00    -0.213 NA
ATOM     12  N   UNL     1      -3.331  -1.981  25.967  0.00  0.00    -0.233 NA
ATOM     25  C   UNL     1      -4.658   1.185  25.668  0.00  0.00    +0.110 A 
ATOM     27  C   UNL     1      -4.677  -0.662  24.456  0.00  0.00    +0.087 A 
ATOM     29  C   UNL     1      -3.948  -0.821  25.629  0.00  0.00    +0.178 A 
ATOM     31  C   UNL     1      -4.827  -1.694  23.536  0.00  0.00    +0.051 A 
ATOM     32  C   UNL     1      -4.199  -2.891  23.869  0.00  0.00    +0.061 A 
ATOM     33  C   UNL     1      -3.487  -2.976  25.061  0.00  0.00    +0.133 A 
ATOM     40  H   UNL     1      -5.690   1.094  23.807  0.00  0.00    +0.167 HD
ENDBRANCH  21  25
ENDBRANCH  16  21
TORSDOF 13
ENDMDL
MODEL 8
REMARK VINA RESULT:       6.3      3.186      7.055
REMARK  Name = 75536148
REMARK  18 active torsions:
REMARK  status: ('A' for Active; 'I' for Inactive)
REMARK    1  A    between atoms: O_3  and  C_28
REMARK    2  A    between atoms: O_3  and  C_35
REMARK    3  A    between atoms: O_4  and  C_30
REMARK    4  A    between atoms: O_4  and  C_36
REMARK    5  A    between atoms: O_5  and  C_34
REMARK    6  A    between atoms: N_9  and  C_20
REMARK    7  A    between atoms: C_13  and  C_17
REMARK    8  A    between atoms: C_14  and  C_20
REMARK    9  A    between atoms: C_16  and  C_21
REMARK   10  A    between atoms: C_17  and  C_22
REMARK   11  A    between atoms: C_17  and  C_23
REMARK   12  A    between atoms: C_18  and  C_24
REMARK   13  A    between atoms: C_21  and  C_25
REMARK   14  A    between atoms: C_26  and  C_28
REMARK   15  A    between atoms: C_28  and  C_30
REMARK   16  A    between atoms: C_30  and  C_34
REMARK   17  A    between atoms: C_35  and  C_37
REMARK   18  A    between atoms: C_36  and  C_38
REMARK                            x       y       z     vdW  Elec       q    Type
REMARK                         _______ _______ _______ _____ _____    ______ ____
ROOT
ATOM     13  C   UNL     1      -3.432   2.635  23.894  0.00  0.00    +0.000 C 
ATOM     14  C   UNL     1      -3.104   4.136  24.089  0.00  0.00    +0.032 C 
ATOM     15  C   UNL     1      -4.932   2.447  23.613  0.00  0.00    +0.012 C 
ATOM     16  C   UNL     1      -5.811   2.995  24.752  0.00  0.00    +0.022 C 
ATOM     18  C   UNL     1      -5.373   4.379  25.186  0.00  0.00    -0.073 C 
ATOM     19  C   UNL     1      -4.165   4.878  24.869  0.00  0.00    -0.022 C 
ATOM     24  C   UNL     1      -6.374   5.197  25.954  0.00  0.00    +0.039 C 
ENDROOT
BRANCH  13  17
ATOM     17  C   UNL     1      -2.610   2.015  22.761  0.00  0.00    -0.013 C 
ATOM     22  C   UNL     1      -2.916   2.713  21.439  0.00  0.00    +0.007 C 
ATOM     23  C   UNL     1      -2.886   0.518  22.659  0.00  0.00    +0.007 C 
ENDBRANCH  13  17
BRANCH  14  20
ATOM     20  C   UNL     1      -1.745   4.322  24.773  0.00  0.00    +0.112 C 
BRANCH  20   9
ATOM      2  O   UNL     1       0.616   3.913  23.167  0.00  0.00    -0.272 OA
ATOM      9  N   UNL     1      -0.964   3.127  24.680  0.00  0.00    -0.312 N 
ATOM     26  C   UNL     1       0.170   3.013  23.875  0.00  0.00    +0.258 C 
ATOM     39  H   UNL     1      -1.225   2.339  25.265  0.00  0.00    +0.149 HD
BRANCH  26  28
ATOM     28  C   UNL     1       0.807   1.629  23.938  0.00  0.00    +0.313 C 
BRANCH  28   3
ATOM      3  O   UNL     1       2.208   1.764  23.744  0.00  0.00    -0.448 OA
BRANCH   3  35
ATOM      7  O   UNL     1       2.219   0.033  22.214  0.00  0.00    -0.251 OA
ATOM     35  C   UNL     1       2.797   0.806  22.966  0.00  0.00    +0.305 C 
ATOM     37  C   UNL     1       4.283   0.831  23.163  0.00  0.00    +0.136 C 
ENDBRANCH   3  35
ENDBRANCH  28   3
BRANCH  28  30
ATOM     30  C   UNL     1       0.516   0.929  25.269  0.00  0.00    +0.333 C 
BRANCH  30  34
ATOM      6  O   UNL     1      -0.994   2.069  26.797  0.00  0.00    -0.247 OA
ATOM     34  C   UNL     1       0.135   1.926  26.346  0.00  0.00    +0.350 C 
BRANCH  34   5
ATOM      5  O   UNL     1       1.201   2.646  26.782  0.00  0.00    -0.478 OA
ATOM     41  H   UNL     1       1.614   2.244  27.575  0.00  0.00    +0.295 HD
ENDBRANCH  34   5
ENDBRANCH  30  34
BRANCH  30   4
ATOM      4  O   UNL     1      -0.571   0.030  25.094  0.00  0.00    -0.446 OA
BRANCH   4  36
ATOM      8  O   UNL     1      -0.412  -1.401  23.287  0.00  0.00    -0.251 OA
ATOM     36  C   UNL     1      -0.270  -1.153  24.476  0.00  0.00    +0.305 C 
ATOM     38  C   UNL     1       0.269  -2.129  25.478  0.00  0.00    +0.136 C 
ENDBRANCH   4  36
ENDBRANCH  30   4
ENDBRANCH  28  30
ENDBRANCH  26  28
ENDBRANCH  20   9
ENDBRANCH  14  20
BRANCH  16  21
ATOM     21  C   UNL     1      -5.838   2.031  25.944  0.00  0.00    +0.082 C 
BRANCH  21  25
ATOM      1 CL   UNL     1      -3.379  -4.488  22.909  0.00  0.00    -0.082 Cl
ATOM     10  N   UNL     1      -5.466   0.039  24.475  0.00  0.00    -0.340 N 
ATOM     11  N   UNL     1      -4.231   0.128  26.327  0.00  0.00    -0.213 NA
ATOM     12  N   UNL     1      -3.020  -1.946  25.975  0.00  0.00    -0.233 NA
ATOM     25  C   UNL     1      -5.155   0.734  25.614  0.00  0.00    +0.110 A 
ATOM     27  C   UNL     1      -4.688  -1.087  24.454  0.00  0.00    +0.087 A 
ATOM     29  C   UNL     1      -3.931  -1.007  25.617  0.00  0.00    +0.178 A 
ATOM     31  C   UNL     1      -4.564  -2.149  23.565  0.00  0.00    +0.051 A 
ATOM     32  C   UNL     1      -3.632  -3.122  23.919  0.00  0.00    +0.061 A 
ATOM     33  C   UNL     1      -2.911  -2.974  25.100  0.00  0.00    +0.133 A 
ATOM     40  H   UNL     1      -6.144   0.309  23.776  0.00  0.00    +0.167 HD
ENDBRANCH  21  25
ENDBRANCH  16  21
TORSDOF 13
ENDMDL
MODEL 9
REMARK VINA RESULT:       6.4      3.219      6.907
REMARK  Name = 75536148
REMARK  18 active torsions:
REMARK  status: ('A' for Active; 'I' for Inactive)
REMARK    1  A    between atoms: O_3  and  C_28
REMARK    2  A    between atoms: O_3  and  C_35
REMARK    3  A    between atoms: O_4  and  C_30
REMARK    4  A    between atoms: O_4  and  C_36
REMARK    5  A    between atoms: O_5  and  C_34
REMARK    6  A    between atoms: N_9  and  C_20
REMARK    7  A    between atoms: C_13  and  C_17
REMARK    8  A    between atoms: C_14  and  C_20
REMARK    9  A    between atoms: C_16  and  C_21
REMARK   10  A    between atoms: C_17  and  C_22
REMARK   11  A    between atoms: C_17  and  C_23
REMARK   12  A    between atoms: C_18  and  C_24
REMARK   13  A    between atoms: C_21  and  C_25
REMARK   14  A    between atoms: C_26  and  C_28
REMARK   15  A    between atoms: C_28  and  C_30
REMARK   16  A    between atoms: C_30  and  C_34
REMARK   17  A    between atoms: C_35  and  C_37
REMARK   18  A    between atoms: C_36  and  C_38
REMARK                            x       y       z     vdW  Elec       q    Type
REMARK                         _______ _______ _______ _____ _____    ______ ____
ROOT
ATOM     13  C   UNL     1      -2.515   4.555  25.055  0.00  0.00    +0.000 C 
ATOM     14  C   UNL     1      -2.902   4.112  26.488  0.00  0.00    +0.032 C 
ATOM     15  C   UNL     1      -3.775   4.885  24.238  0.00  0.00    +0.012 C 
ATOM     16  C   UNL     1      -4.733   3.684  24.135  0.00  0.00    +0.022 C 
ATOM     18  C   UNL     1      -4.954   3.023  25.481  0.00  0.00    -0.073 C 
ATOM     19  C   UNL     1      -4.133   3.236  26.525  0.00  0.00    -0.022 C 
ATOM     24  C   UNL     1      -6.168   2.146  25.614  0.00  0.00    +0.039 C 
ENDROOT
BRANCH  13  17
ATOM     17  C   UNL     1      -1.574   5.763  25.068  0.00  0.00    -0.013 C 
ATOM     22  C   UNL     1      -2.089   6.849  24.128  0.00  0.00    +0.007 C 
ATOM     23  C   UNL     1      -0.160   5.340  24.682  0.00  0.00    +0.007 C 
ENDBRANCH  13  17
BRANCH  14  20
ATOM     20  C   UNL     1      -1.740   3.387  27.176  0.00  0.00    +0.112 C 
BRANCH  20   9
ATOM      2  O   UNL     1       1.022   2.742  26.651  0.00  0.00    -0.272 OA
ATOM      9  N   UNL     1      -1.246   2.327  26.353  0.00  0.00    -0.312 N 
ATOM     26  C   UNL     1       0.113   2.083  26.151  0.00  0.00    +0.258 C 
ATOM     39  H   UNL     1      -1.920   1.694  25.933  0.00  0.00    +0.149 HD
BRANCH  26  28
ATOM     28  C   UNL     1       0.373   0.908  25.214  0.00  0.00    +0.313 C 
BRANCH  28   3
ATOM      3  O   UNL     1      -0.752   0.040  25.249  0.00  0.00    -0.448 OA
BRANCH   3  35
ATOM      7  O   UNL     1      -0.842  -1.433  23.472  0.00  0.00    -0.251 OA
ATOM     35  C   UNL     1      -0.587  -1.173  24.640  0.00  0.00    +0.305 C 
ATOM     37  C   UNL     1      -0.038  -2.166  25.619  0.00  0.00    +0.136 C 
ENDBRANCH   3  35
ENDBRANCH  28   3
BRANCH  28  30
ATOM     30  C   UNL     1       0.645   1.374  23.781  0.00  0.00    +0.333 C 
BRANCH  30  34
ATOM      6  O   UNL     1       0.047   3.666  23.229  0.00  0.00    -0.247 OA
ATOM     34  C   UNL     1      -0.290   2.499  23.378  0.00  0.00    +0.350 C 
BRANCH  34   5
ATOM      5  O   UNL     1      -1.561   2.064  23.178  0.00  0.00    -0.478 OA
ATOM     41  H   UNL     1      -1.610   1.087  23.132  0.00  0.00    +0.295 HD
ENDBRANCH  34   5
ENDBRANCH  30  34
BRANCH  30   4
ATOM      4  O   UNL     1       1.980   1.856  23.693  0.00  0.00    -0.446 OA
BRANCH   4  36
ATOM      8  O   UNL     1       4.085   1.144  23.063  0.00  0.00    -0.251 OA
ATOM     36  C   UNL     1       2.867   1.034  23.054  0.00  0.00    +0.305 C 
ATOM     38  C   UNL     1       2.126  -0.044  22.322  0.00  0.00    +0.136 C 
ENDBRANCH   4  36
ENDBRANCH  30   4
ENDBRANCH  28  30
ENDBRANCH  26  28
ENDBRANCH  20   9
ENDBRANCH  14  20
BRANCH  16  21
ATOM     21  C   UNL     1      -4.238   2.667  23.100  0.00  0.00    +0.082 C 
BRANCH  21  25
ATOM      1 CL   UNL     1      -3.788  -4.763  24.630  0.00  0.00    -0.082 Cl
ATOM     10  N   UNL     1      -4.253   0.169  22.966  0.00  0.00    -0.340 N 
ATOM     11  N   UNL     1      -3.748   1.035  24.955  0.00  0.00    -0.213 NA
ATOM     12  N   UNL     1      -3.432  -1.070  26.123  0.00  0.00    -0.233 NA
ATOM     25  C   UNL     1      -4.070   1.304  23.709  0.00  0.00    +0.110 A 
ATOM     27  C   UNL     1      -4.033  -0.903  23.789  0.00  0.00    +0.087 A 
ATOM     29  C   UNL     1      -3.721  -0.336  25.020  0.00  0.00    +0.178 A 
ATOM     31  C   UNL     1      -4.071  -2.280  23.601  0.00  0.00    +0.051 A 
ATOM     32  C   UNL     1      -3.776  -3.047  24.725  0.00  0.00    +0.061 A 
ATOM     33  C   UNL     1      -3.473  -2.409  25.923  0.00  0.00    +0.133 A 
ATOM     40  H   UNL     1      -4.504   0.128  21.988  0.00  0.00    +0.167 HD
ENDBRANCH  21  25
ENDBRANCH  16  21
TORSDOF 13
ENDMDL
MODEL 10
REMARK VINA RESULT:       6.5      2.996      7.144
REMARK  Name = 75536148
REMARK  18 active torsions:
REMARK  status: ('A' for Active; 'I' for Inactive)
REMARK    1  A    between atoms: O_3  and  C_28
REMARK    2  A    between atoms: O_3  and  C_35
REMARK    3  A    between atoms: O_4  and  C_30
REMARK    4  A    between atoms: O_4  and  C_36
REMARK    5  A    between atoms: O_5  and  C_34
REMARK    6  A    between atoms: N_9  and  C_20
REMARK    7  A    between atoms: C_13  and  C_17
REMARK    8  A    between atoms: C_14  and  C_20
REMARK    9  A    between atoms: C_16  and  C_21
REMARK   10  A    between atoms: C_17  and  C_22
REMARK   11  A    between atoms: C_17  and  C_23
REMARK   12  A    between atoms: C_18  and  C_24
REMARK   13  A    between atoms: C_21  and  C_25
REMARK   14  A    between atoms: C_26  and  C_28
REMARK   15  A    between atoms: C_28  and  C_30
REMARK   16  A    between atoms: C_30  and  C_34
REMARK   17  A    between atoms: C_35  and  C_37
REMARK   18  A    between atoms: C_36  and  C_38
REMARK                            x       y       z     vdW  Elec       q    Type
REMARK                         _______ _______ _______ _____ _____    ______ ____
ROOT
ATOM     13  C   UNL     1      -2.592   4.370  25.194  0.00  0.00    +0.000 C 
ATOM     14  C   UNL     1      -2.606   3.852  26.653  0.00  0.00    +0.032 C 
ATOM     15  C   UNL     1      -3.958   4.972  24.827  0.00  0.00    +0.012 C 
ATOM     16  C   UNL     1      -5.102   3.952  24.971  0.00  0.00    +0.022 C 
ATOM     18  C   UNL     1      -5.024   3.202  26.286  0.00  0.00    -0.073 C 
ATOM     19  C   UNL     1      -3.905   3.179  27.031  0.00  0.00    -0.022 C 
ATOM     24  C   UNL     1      -6.280   2.515  26.749  0.00  0.00    +0.039 C 
ENDROOT
BRANCH  13  17
ATOM     17  C   UNL     1      -1.490   5.409  24.969  0.00  0.00    -0.013 C 
ATOM     22  C   UNL     1      -2.098   6.757  24.595  0.00  0.00    +0.007 C 
ATOM     23  C   UNL     1      -0.522   4.934  23.890  0.00  0.00    +0.007 C 
ENDBRANCH  13  17
BRANCH  14  20
ATOM     20  C   UNL     1      -1.440   2.890  26.910  0.00  0.00    +0.112 C 
BRANCH  20   9
ATOM      2  O   UNL     1       1.325   2.347  26.294  0.00  0.00    -0.272 OA
ATOM      9  N   UNL     1      -0.916   2.389  25.677  0.00  0.00    -0.312 N 
ATOM     26  C   UNL     1       0.442   2.153  25.461  0.00  0.00    +0.258 C 
ATOM     39  H   UNL     1      -1.573   2.151  24.940  0.00  0.00    +0.149 HD
BRANCH  26  28
ATOM     28  C   UNL     1       0.740   1.641  24.056  0.00  0.00    +0.313 C 
BRANCH  28   3
ATOM      3  O   UNL     1       1.992   0.967  24.073  0.00  0.00    -0.448 OA
BRANCH   3  35
ATOM      7  O   UNL     1       1.824  -0.020  21.991  0.00  0.00    -0.251 OA
ATOM     35  C   UNL     1       2.466   0.559  22.857  0.00  0.00    +0.305 C 
ATOM     37  C   UNL     1       3.913   0.926  22.724  0.00  0.00    +0.136 C 
ENDBRANCH   3  35
ENDBRANCH  28   3
BRANCH  28  30
ATOM     30  C   UNL     1      -0.362   0.710  23.544  0.00  0.00    +0.333 C 
BRANCH  30  34
ATOM      6  O   UNL     1      -0.585  -1.680  23.938  0.00  0.00    -0.247 OA
ATOM     34  C   UNL     1      -0.459  -0.548  24.386  0.00  0.00    +0.350 C 
BRANCH  34   5
ATOM      5  O   UNL     1      -0.369  -0.284  25.716  0.00  0.00    -0.478 OA
ATOM     41  H   UNL     1      -0.644   0.633  25.926  0.00  0.00    +0.295 HD
ENDBRANCH  34   5
ENDBRANCH  30  34
BRANCH  30   4
ATOM      4  O   UNL     1      -1.611   1.386  23.613  0.00  0.00    -0.446 OA
BRANCH   4  36
ATOM      8  O   UNL     1      -2.445   3.056  22.252  0.00  0.00    -0.251 OA
ATOM     36  C   UNL     1      -2.071   1.906  22.434  0.00  0.00    +0.305 C 
ATOM     38  C   UNL     1      -2.056   0.849  21.371  0.00  0.00    +0.136 C 
ENDBRANCH   4  36
ENDBRANCH  30   4
ENDBRANCH  28  30
ENDBRANCH  26  28
ENDBRANCH  20   9
ENDBRANCH  14  20
BRANCH  16  21
ATOM     21  C   UNL     1      -5.129   2.979  23.787  0.00  0.00    +0.082 C 
BRANCH  21  25
ATOM      1 CL   UNL     1      -3.504  -4.424  24.345  0.00  0.00    -0.082 Cl
ATOM     10  N   UNL     1      -4.841   0.530  23.358  0.00  0.00    -0.340 N 
ATOM     11  N   UNL     1      -4.165   1.257  25.352  0.00  0.00    -0.213 NA
ATOM     12  N   UNL     1      -3.412  -0.887  26.208  0.00  0.00    -0.233 NA
ATOM     25  C   UNL     1      -4.699   1.600  24.201  0.00  0.00    +0.110 A 
ATOM     27  C   UNL     1      -4.366  -0.575  24.011  0.00  0.00    +0.087 A 
ATOM     29  C   UNL     1      -3.953  -0.095  25.249  0.00  0.00    +0.178 A 
ATOM     31  C   UNL     1      -4.254  -1.918  23.667  0.00  0.00    +0.051 A 
ATOM     32  C   UNL     1      -3.700  -2.743  24.642  0.00  0.00    +0.061 A 
ATOM     33  C   UNL     1      -3.309  -2.191  25.857  0.00  0.00    +0.133 A 
ATOM     40  H   UNL     1      -5.226   0.552  22.424  0.00  0.00    +0.167 HD
ENDBRANCH  21  25
ENDBRANCH  16  21
TORSDOF 13
ENDMDL
