MODEL 1
REMARK VINA RESULT:       9.3      0.000      0.000
REMARK  Name = 11941493
REMARK  3 active torsions:
REMARK  status: ('A' for Active; 'I' for Inactive)
REMARK    1  A    between atoms: N_6  and  C_9
REMARK    2  A    between atoms: N_7  and  C_13
REMARK    3  A    between atoms: C_26  and  C_28
REMARK                            x       y       z     vdW  Elec       q    Type
REMARK                         _______ _______ _______ _____ _____    ______ ____
ROOT
ATOM      2  O   UNL     1       2.528   1.560  23.737  0.00  0.00    -0.273 OA
ATOM      3  O   UNL     1      -2.273   1.874  21.590  0.00  0.00    -0.270 OA
ATOM      5  N   UNL     1      -0.459   0.836  22.549  0.00  0.00    -0.284 N 
ATOM      8  N   UNL     1       0.746   2.854  24.319  0.00  0.00    -0.283 N 
ATOM      9  C   UNL     1       1.061  -0.808  23.313  0.00  0.00    +0.105 C 
ATOM     10  C   UNL     1       0.361   0.503  23.699  0.00  0.00    +0.183 C 
ATOM     11  C   UNL     1       1.110  -0.748  21.784  0.00  0.00    +0.043 C 
ATOM     12  C   UNL     1      -0.183  -0.037  21.418  0.00  0.00    +0.111 C 
ATOM     16  C   UNL     1       1.309   1.674  23.878  0.00  0.00    +0.240 C 
ATOM     20  C   UNL     1      -1.499   1.740  22.538  0.00  0.00    +0.249 C 
ATOM     22  C   UNL     1      -1.678   2.616  23.726  0.00  0.00    +0.059 A 
ATOM     23  C   UNL     1      -0.621   3.177  24.462  0.00  0.00    +0.046 A 
ATOM     24  C   UNL     1      -2.999   3.019  23.995  0.00  0.00    +0.024 A 
ATOM     25  C   UNL     1      -0.908   4.178  25.406  0.00  0.00    +0.024 A 
ATOM     26  C   UNL     1      -3.268   3.980  24.969  0.00  0.00    -0.010 A 
ATOM     27  C   UNL     1      -2.222   4.570  25.666  0.00  0.00    +0.011 A 
ATOM     34  H   UNL     1       1.405   3.550  24.660  0.00  0.00    +0.155 HD
ENDROOT
BRANCH   9   6
ATOM      4  O   UNL     1      -1.513  -0.764  24.594  0.00  0.00    -0.253 OA
ATOM      6  N   UNL     1       0.302  -1.951  23.766  0.00  0.00    -0.294 N 
ATOM      7  N   UNL     1      -1.458  -3.083  24.718  0.00  0.00    -0.297 N 
ATOM     21  C   UNL     1      -0.943  -1.833  24.379  0.00  0.00    +0.300 C 
ATOM     32  H   UNL     1       0.721  -2.874  23.699  0.00  0.00    +0.151 HD
ATOM     33  H   UNL     1      -0.872  -3.896  24.562  0.00  0.00    +0.151 HD
BRANCH   7  13
ATOM     13  C   UNL     1      -2.737  -3.262  25.367  0.00  0.00    +0.074 C 
ATOM     14  C   UNL     1      -3.074  -2.062  26.259  0.00  0.00    +0.022 C 
ATOM     15  C   UNL     1      -3.846  -3.521  24.341  0.00  0.00    +0.022 C 
ATOM     17  C   UNL     1      -3.430  -0.814  25.451  0.00  0.00    +0.002 C 
ATOM     18  C   UNL     1      -4.200  -2.270  23.536  0.00  0.00    +0.002 C 
ATOM     19  C   UNL     1      -4.543  -1.093  24.445  0.00  0.00    +0.000 C 
ENDBRANCH   7  13
ENDBRANCH   9   6
BRANCH  26  28
ATOM      1  S   UNL     1      -5.721   3.225  25.873  0.00  0.00    -0.097 S 
ATOM     28  C   UNL     1      -4.629   4.378  25.234  0.00  0.00    +0.019 A 
ATOM     29  C   UNL     1      -5.227   5.607  25.048  0.00  0.00    +0.016 A 
ATOM     30  C   UNL     1      -6.599   5.599  25.434  0.00  0.00    +0.008 A 
ATOM     31  C   UNL     1      -6.998   4.366  25.901  0.00  0.00    +0.046 A 
ENDBRANCH  26  28
TORSDOF 3
ENDMDL
MODEL 2
REMARK VINA RESULT:       9.6      3.218      5.509
REMARK  Name = 11941493
REMARK  3 active torsions:
REMARK  status: ('A' for Active; 'I' for Inactive)
REMARK    1  A    between atoms: N_6  and  C_9
REMARK    2  A    between atoms: N_7  and  C_13
REMARK    3  A    between atoms: C_26  and  C_28
REMARK                            x       y       z     vdW  Elec       q    Type
REMARK                         _______ _______ _______ _____ _____    ______ ____
ROOT
ATOM      2  O   UNL     1      -4.205   3.787  22.386  0.00  0.00    -0.273 OA
ATOM      3  O   UNL     1      -3.689   3.456  27.619  0.00  0.00    -0.270 OA
ATOM      5  N   UNL     1      -4.315   2.765  25.517  0.00  0.00    -0.284 N 
ATOM      8  N   UNL     1      -2.343   3.958  23.688  0.00  0.00    -0.283 N 
ATOM      9  C   UNL     1      -5.319   1.578  23.734  0.00  0.00    +0.105 C 
ATOM     10  C   UNL     1      -4.007   2.220  24.208  0.00  0.00    +0.183 C 
ATOM     11  C   UNL     1      -6.394   2.376  24.476  0.00  0.00    +0.043 C 
ATOM     12  C   UNL     1      -5.739   2.693  25.811  0.00  0.00    +0.111 C 
ATOM     16  C   UNL     1      -3.564   3.403  23.367  0.00  0.00    +0.240 C 
ATOM     20  C   UNL     1      -3.392   3.154  26.464  0.00  0.00    +0.249 C 
ATOM     22  C   UNL     1      -1.964   3.234  26.058  0.00  0.00    +0.059 A 
ATOM     23  C   UNL     1      -1.522   3.691  24.805  0.00  0.00    +0.046 A 
ATOM     24  C   UNL     1      -1.024   2.987  27.075  0.00  0.00    +0.024 A 
ATOM     25  C   UNL     1      -0.153   3.954  24.624  0.00  0.00    +0.024 A 
ATOM     26  C   UNL     1       0.336   3.209  26.861  0.00  0.00    -0.010 A 
ATOM     27  C   UNL     1       0.771   3.705  25.639  0.00  0.00    +0.011 A 
ATOM     34  H   UNL     1      -1.949   4.581  22.986  0.00  0.00    +0.155 HD
ENDROOT
BRANCH   9   6
ATOM      4  O   UNL     1      -3.080  -0.115  24.358  0.00  0.00    -0.253 OA
ATOM      6  N   UNL     1      -5.367   0.179  24.092  0.00  0.00    -0.294 N 
ATOM      7  N   UNL     1      -4.549  -1.883  24.694  0.00  0.00    -0.297 N 
ATOM     21  C   UNL     1      -4.225  -0.565  24.380  0.00  0.00    +0.300 C 
ATOM     32  H   UNL     1      -6.262  -0.301  24.067  0.00  0.00    +0.151 HD
ATOM     33  H   UNL     1      -5.519  -2.167  24.610  0.00  0.00    +0.151 HD
BRANCH   7  13
ATOM     13  C   UNL     1      -3.559  -2.881  25.035  0.00  0.00    +0.074 C 
ATOM     14  C   UNL     1      -2.503  -3.007  23.932  0.00  0.00    +0.022 C 
ATOM     15  C   UNL     1      -2.914  -2.577  26.391  0.00  0.00    +0.022 C 
ATOM     17  C   UNL     1      -1.565  -1.801  23.881  0.00  0.00    +0.002 C 
ATOM     18  C   UNL     1      -1.975  -1.371  26.335  0.00  0.00    +0.002 C 
ATOM     19  C   UNL     1      -0.926  -1.526  25.239  0.00  0.00    +0.000 C 
ENDBRANCH   7  13
ENDBRANCH   9   6
BRANCH  26  28
ATOM      1  S   UNL     1       0.743   2.192  29.352  0.00  0.00    -0.097 S 
ATOM     28  C   UNL     1       1.286   2.946  27.914  0.00  0.00    +0.019 A 
ATOM     29  C   UNL     1       2.637   3.219  27.954  0.00  0.00    +0.016 A 
ATOM     30  C   UNL     1       3.232   2.804  29.180  0.00  0.00    +0.008 A 
ATOM     31  C   UNL     1       2.315   2.228  30.031  0.00  0.00    +0.046 A 
ENDBRANCH  26  28
TORSDOF 3
ENDMDL
MODEL 3
REMARK VINA RESULT:      11.0      3.069      7.194
REMARK  Name = 11941493
REMARK  3 active torsions:
REMARK  status: ('A' for Active; 'I' for Inactive)
REMARK    1  A    between atoms: N_6  and  C_9
REMARK    2  A    between atoms: N_7  and  C_13
REMARK    3  A    between atoms: C_26  and  C_28
REMARK                            x       y       z     vdW  Elec       q    Type
REMARK                         _______ _______ _______ _____ _____    ______ ____
ROOT
ATOM      2  O   UNL     1      -4.425  -1.910  25.508  0.00  0.00    -0.273 OA
ATOM      3  O   UNL     1      -1.725   0.668  21.790  0.00  0.00    -0.270 OA
ATOM      5  N   UNL     1      -3.121   0.442  23.603  0.00  0.00    -0.284 N 
ATOM      8  N   UNL     1      -2.208  -1.989  24.988  0.00  0.00    -0.283 N 
ATOM      9  C   UNL     1      -4.683   0.890  25.322  0.00  0.00    +0.105 C 
ATOM     10  C   UNL     1      -3.351   0.192  25.014  0.00  0.00    +0.183 C 
ATOM     11  C   UNL     1      -5.406   0.889  23.973  0.00  0.00    +0.043 C 
ATOM     12  C   UNL     1      -4.277   1.058  22.968  0.00  0.00    +0.111 C 
ATOM     16  C   UNL     1      -3.402  -1.318  25.158  0.00  0.00    +0.240 C 
ATOM     20  C   UNL     1      -1.919   0.291  22.945  0.00  0.00    +0.249 C 
ATOM     22  C   UNL     1      -0.807  -0.386  23.663  0.00  0.00    +0.059 A 
ATOM     23  C   UNL     1      -0.974  -1.484  24.524  0.00  0.00    +0.046 A 
ATOM     24  C   UNL     1       0.490   0.020  23.304  0.00  0.00    +0.024 A 
ATOM     25  C   UNL     1       0.164  -2.190  24.950  0.00  0.00    +0.024 A 
ATOM     26  C   UNL     1       1.610  -0.664  23.775  0.00  0.00    -0.010 A 
ATOM     27  C   UNL     1       1.447  -1.778  24.589  0.00  0.00    +0.011 A 
ATOM     34  H   UNL     1      -2.200  -2.952  25.315  0.00  0.00    +0.155 HD
ENDROOT
BRANCH   9   6
ATOM      4  O   UNL     1      -2.181   2.306  25.371  0.00  0.00    -0.253 OA
ATOM      6  N   UNL     1      -4.462   2.237  25.795  0.00  0.00    -0.294 N 
ATOM      7  N   UNL     1      -3.272   4.140  26.289  0.00  0.00    -0.297 N 
ATOM     21  C   UNL     1      -3.209   2.845  25.780  0.00  0.00    +0.300 C 
ATOM     32  H   UNL     1      -5.237   2.739  26.219  0.00  0.00    +0.151 HD
ATOM     33  H   UNL     1      -4.157   4.460  26.667  0.00  0.00    +0.151 HD
BRANCH   7  13
ATOM     13  C   UNL     1      -2.118   5.006  26.392  0.00  0.00    +0.074 C 
ATOM     14  C   UNL     1      -0.819   4.194  26.391  0.00  0.00    +0.022 C 
ATOM     15  C   UNL     1      -2.117   6.059  25.279  0.00  0.00    +0.022 C 
ATOM     17  C   UNL     1      -0.503   3.599  25.018  0.00  0.00    +0.002 C 
ATOM     18  C   UNL     1      -1.799   5.461  23.909  0.00  0.00    +0.002 C 
ATOM     19  C   UNL     1      -0.496   4.667  23.930  0.00  0.00    +0.000 C 
ENDBRANCH   7  13
ENDBRANCH   9   6
BRANCH  26  28
ATOM      1  S   UNL     1       4.275  -1.216  23.802  0.00  0.00    -0.097 S 
ATOM     28  C   UNL     1       2.933  -0.231  23.399  0.00  0.00    +0.019 A 
ATOM     29  C   UNL     1       3.316   0.913  22.730  0.00  0.00    +0.016 A 
ATOM     30  C   UNL     1       4.728   0.979  22.547  0.00  0.00    +0.008 A 
ATOM     31  C   UNL     1       5.371  -0.115  23.082  0.00  0.00    +0.046 A 
ENDBRANCH  26  28
TORSDOF 3
ENDMDL
MODEL 4
REMARK VINA RESULT:      13.0      3.058      6.252
REMARK  Name = 11941493
REMARK  3 active torsions:
REMARK  status: ('A' for Active; 'I' for Inactive)
REMARK    1  A    between atoms: N_6  and  C_9
REMARK    2  A    between atoms: N_7  and  C_13
REMARK    3  A    between atoms: C_26  and  C_28
REMARK                            x       y       z     vdW  Elec       q    Type
REMARK                         _______ _______ _______ _____ _____    ______ ____
ROOT
ATOM      2  O   UNL     1      -2.756   5.794  24.293  0.00  0.00    -0.273 OA
ATOM      3  O   UNL     1       0.085   2.360  27.104  0.00  0.00    -0.270 OA
ATOM      5  N   UNL     1      -1.788   3.180  26.052  0.00  0.00    -0.284 N 
ATOM      8  N   UNL     1      -0.776   4.781  23.800  0.00  0.00    -0.283 N 
ATOM      9  C   UNL     1      -4.020   3.501  25.336  0.00  0.00    +0.105 C 
ATOM     10  C   UNL     1      -2.563   3.457  24.856  0.00  0.00    +0.183 C 
ATOM     11  C   UNL     1      -3.898   3.913  26.805  0.00  0.00    +0.043 C 
ATOM     12  C   UNL     1      -2.608   3.244  27.252  0.00  0.00    +0.111 C 
ATOM     16  C   UNL     1      -2.048   4.786  24.334  0.00  0.00    +0.240 C 
ATOM     20  C   UNL     1      -0.482   2.739  26.079  0.00  0.00    +0.249 C 
ATOM     22  C   UNL     1       0.287   2.746  24.808  0.00  0.00    +0.059 A 
ATOM     23  C   UNL     1       0.186   3.748  23.827  0.00  0.00    +0.046 A 
ATOM     24  C   UNL     1       1.286   1.763  24.691  0.00  0.00    +0.024 A 
ATOM     25  C   UNL     1       1.133   3.778  22.789  0.00  0.00    +0.024 A 
ATOM     26  C   UNL     1       2.188   1.782  23.628  0.00  0.00    -0.010 A 
ATOM     27  C   UNL     1       2.120   2.798  22.683  0.00  0.00    +0.011 A 
ATOM     34  H   UNL     1      -0.533   5.600  23.246  0.00  0.00    +0.155 HD
ENDROOT
BRANCH   9   6
ATOM      4  O   UNL     1      -3.021   1.250  23.853  0.00  0.00    -0.253 OA
ATOM      6  N   UNL     1      -4.645   2.206  25.207  0.00  0.00    -0.294 N 
ATOM      7  N   UNL     1      -4.888   0.031  24.504  0.00  0.00    -0.297 N 
ATOM     21  C   UNL     1      -4.086   1.169  24.464  0.00  0.00    +0.300 C 
ATOM     32  H   UNL     1      -5.564   2.064  25.618  0.00  0.00    +0.151 HD
ATOM     33  H   UNL     1      -5.782   0.096  24.979  0.00  0.00    +0.151 HD
BRANCH   7  13
ATOM     13  C   UNL     1      -4.551  -1.198  23.821  0.00  0.00    +0.074 C 
ATOM     14  C   UNL     1      -3.242  -1.052  23.038  0.00  0.00    +0.022 C 
ATOM     15  C   UNL     1      -4.484  -2.374  24.801  0.00  0.00    +0.022 C 
ATOM     17  C   UNL     1      -2.018  -0.986  23.952  0.00  0.00    +0.002 C 
ATOM     18  C   UNL     1      -3.258  -2.306  25.712  0.00  0.00    +0.002 C 
ATOM     19  C   UNL     1      -1.967  -2.172  24.910  0.00  0.00    +0.000 C 
ENDBRANCH   7  13
ENDBRANCH   9   6
BRANCH  26  28
ATOM      1  S   UNL     1       2.729  -0.881  23.485  0.00  0.00    -0.097 S 
ATOM     28  C   UNL     1       3.203   0.764  23.523  0.00  0.00    +0.019 A 
ATOM     29  C   UNL     1       4.573   0.907  23.442  0.00  0.00    +0.016 A 
ATOM     30  C   UNL     1       5.238  -0.349  23.349  0.00  0.00    +0.008 A 
ATOM     31  C   UNL     1       4.354  -1.405  23.361  0.00  0.00    +0.046 A 
ENDBRANCH  26  28
TORSDOF 3
ENDMDL
