MODEL 1
REMARK VINA RESULT:      -1.6      0.000      0.000
REMARK  Name = 26742991
REMARK  10 active torsions:
REMARK  status: ('A' for Active; 'I' for Inactive)
REMARK    1  A    between atoms: C_6  and  C_9
REMARK    2  A    between atoms: C_7  and  C_13
REMARK    3  A    between atoms: C_9  and  C_18
REMARK    4  A    between atoms: C_11  and  C_19
REMARK    5  A    between atoms: C_13  and  C_20
REMARK    6  A    between atoms: C_19  and  C_21
REMARK    7  A    between atoms: C_23  and  C_26
REMARK    8  A    between atoms: C_26  and  C_27
REMARK    9  A    between atoms: C_27  and  C_31
REMARK   10  A    between atoms: C_31  and  C_32
REMARK                            x       y       z     vdW  Elec       q    Type
REMARK                         _______ _______ _______ _____ _____    ______ ____
ROOT
ATOM      4  N   UNL     1       0.214   5.378  23.945  0.00  0.00    -0.316 NA
ATOM      6  C   UNL     1      -2.129   4.429  25.467  0.00  0.00    +0.004 C 
ATOM      7  C   UNL     1      -0.920   3.519  25.139  0.00  0.00    +0.012 C 
ATOM      8  C   UNL     1      -1.670   5.897  25.455  0.00  0.00    +0.019 C 
ATOM     10  C   UNL     1      -0.197   3.976  23.860  0.00  0.00    +0.085 C 
ATOM     12  C   UNL     1      -0.925   6.265  24.173  0.00  0.00    +0.081 C 
ATOM     33  H   UNL     1       0.681   5.645  23.079  0.00  0.00    +0.122 HD
ENDROOT
BRANCH   6   9
ATOM      9  C   UNL     1      -3.332   4.226  24.537  0.00  0.00    +0.100 C 
BRANCH   9  18
ATOM      1  O   UNL     1      -4.851   3.798  26.305  0.00  0.00    -0.276 OA
ATOM      3  N   UNL     1      -4.769   2.217  24.604  0.00  0.00    -0.301 N 
ATOM     11  C   UNL     1      -4.785  -0.634  24.076  0.00  0.00    -0.004 C 
ATOM     14  C   UNL     1      -3.712   0.293  23.483  0.00  0.00    +0.023 C 
ATOM     15  C   UNL     1      -5.324  -0.050  25.389  0.00  0.00    +0.023 C 
ATOM     16  C   UNL     1      -4.235   1.721  23.331  0.00  0.00    +0.108 C 
ATOM     17  C   UNL     1      -5.815   1.383  25.197  0.00  0.00    +0.108 C 
ATOM     18  C   UNL     1      -4.386   3.402  25.233  0.00  0.00    +0.216 C 
BRANCH  11  19
ATOM     19  C   UNL     1      -4.227  -2.039  24.293  0.00  0.00    +0.038 C 
BRANCH  19  21
ATOM     21  C   UNL     1      -2.818  -2.001  24.818  0.00  0.00    -0.047 A 
ATOM     24  C   UNL     1      -2.512  -1.230  25.939  0.00  0.00    +0.003 A 
ATOM     25  C   UNL     1      -1.818  -2.739  24.184  0.00  0.00    +0.003 A 
ATOM     28  C   UNL     1      -1.205  -1.195  26.427  0.00  0.00    +0.000 A 
ATOM     29  C   UNL     1      -0.511  -2.705  24.671  0.00  0.00    +0.000 A 
ATOM     30  C   UNL     1      -0.204  -1.933  25.792  0.00  0.00    +0.000 A 
ENDBRANCH  19  21
ENDBRANCH  11  19
ENDBRANCH   9  18
ENDBRANCH   6   9
BRANCH   7  13
ATOM     13  C   UNL     1      -1.292   2.039  25.046  0.00  0.00    +0.064 C 
BRANCH  13  20
ATOM      2  O   UNL     1       0.333   0.005  22.560  0.00  0.00    -0.359 OA
ATOM      5  N   UNL     1      -0.798   0.548  23.156  0.00  0.00    -0.083 NA
ATOM     20  C   UNL     1      -0.334   1.289  24.167  0.00  0.00    +0.084 A 
ATOM     22  C   UNL     1       1.068   1.250  24.256  0.00  0.00    +0.071 A 
ATOM     23  C   UNL     1       1.438   0.429  23.224  0.00  0.00    +0.138 A 
BRANCH  23  26
ATOM     26  C   UNL     1       2.730  -0.054  22.722  0.00  0.00    +0.077 C 
BRANCH  26  27
ATOM     27  C   UNL     1       3.838   1.023  22.765  0.00  0.00    +0.007 C 
BRANCH  27  31
ATOM     31  C   UNL     1       5.078   0.560  23.529  0.00  0.00    -0.003 C 
ATOM     32  C   UNL     1       4.976  -0.906  23.920  0.00  0.00    +0.004 C 
ENDBRANCH  27  31
ENDBRANCH  26  27
ENDBRANCH  23  26
ENDBRANCH  13  20
ENDBRANCH   7  13
TORSDOF 9
ENDMDL
MODEL 2
REMARK VINA RESULT:      -0.7      1.761      5.507
REMARK  Name = 26742991
REMARK  10 active torsions:
REMARK  status: ('A' for Active; 'I' for Inactive)
REMARK    1  A    between atoms: C_6  and  C_9
REMARK    2  A    between atoms: C_7  and  C_13
REMARK    3  A    between atoms: C_9  and  C_18
REMARK    4  A    between atoms: C_11  and  C_19
REMARK    5  A    between atoms: C_13  and  C_20
REMARK    6  A    between atoms: C_19  and  C_21
REMARK    7  A    between atoms: C_23  and  C_26
REMARK    8  A    between atoms: C_26  and  C_27
REMARK    9  A    between atoms: C_27  and  C_31
REMARK   10  A    between atoms: C_31  and  C_32
REMARK                            x       y       z     vdW  Elec       q    Type
REMARK                         _______ _______ _______ _____ _____    ______ ____
ROOT
ATOM      4  N   UNL     1      -6.976   2.413  25.707  0.00  0.00    -0.316 NA
ATOM      6  C   UNL     1      -4.535   3.891  24.955  0.00  0.00    +0.004 C 
ATOM      7  C   UNL     1      -5.004   2.617  24.211  0.00  0.00    +0.012 C 
ATOM      8  C   UNL     1      -5.749   4.555  25.626  0.00  0.00    +0.019 C 
ATOM     10  C   UNL     1      -5.837   1.701  25.124  0.00  0.00    +0.085 C 
ATOM     12  C   UNL     1      -6.551   3.576  26.483  0.00  0.00    +0.081 C 
ATOM     33  H   UNL     1      -7.498   1.778  26.310  0.00  0.00    +0.122 HD
ENDROOT
BRANCH   6   9
ATOM      9  C   UNL     1      -3.417   3.643  25.974  0.00  0.00    +0.100 C 
BRANCH   9  18
ATOM      1  O   UNL     1      -2.049   5.352  25.068  0.00  0.00    -0.276 OA
ATOM      3  N   UNL     1      -1.037   3.289  25.412  0.00  0.00    -0.301 N 
ATOM     11  C   UNL     1       0.804   1.376  24.244  0.00  0.00    -0.004 C 
ATOM     14  C   UNL     1      -0.586   0.958  24.747  0.00  0.00    +0.023 C 
ATOM     15  C   UNL     1       0.794   2.853  23.824  0.00  0.00    +0.023 C 
ATOM     16  C   UNL     1      -1.080   1.890  25.853  0.00  0.00    +0.108 C 
ATOM     17  C   UNL     1       0.274   3.744  24.949  0.00  0.00    +0.108 C 
ATOM     18  C   UNL     1      -2.111   4.179  25.445  0.00  0.00    +0.216 C 
BRANCH  11  19
ATOM     19  C   UNL     1       1.254   0.485  23.088  0.00  0.00    +0.038 C 
BRANCH  19  21
ATOM     21  C   UNL     1       2.704   0.104  23.213  0.00  0.00    -0.047 A 
ATOM     24  C   UNL     1       3.054  -1.165  23.671  0.00  0.00    +0.003 A 
ATOM     25  C   UNL     1       3.697   1.021  22.869  0.00  0.00    +0.003 A 
ATOM     28  C   UNL     1       4.399  -1.519  23.786  0.00  0.00    +0.000 A 
ATOM     29  C   UNL     1       5.042   0.668  22.984  0.00  0.00    +0.000 A 
ATOM     30  C   UNL     1       5.393  -0.602  23.442  0.00  0.00    +0.000 A 
ENDBRANCH  19  21
ENDBRANCH  11  19
ENDBRANCH   9  18
ENDBRANCH   6   9
BRANCH   7  13
ATOM     13  C   UNL     1      -3.852   1.837  23.576  0.00  0.00    +0.064 C 
BRANCH  13  20
ATOM      2  O   UNL     1      -3.778  -1.160  25.568  0.00  0.00    -0.359 OA
ATOM      5  N   UNL     1      -3.879   0.218  25.424  0.00  0.00    -0.083 NA
ATOM     20  C   UNL     1      -3.781   0.436  24.109  0.00  0.00    +0.084 A 
ATOM     22  C   UNL     1      -3.616  -0.756  23.382  0.00  0.00    +0.071 A 
ATOM     23  C   UNL     1      -3.621  -1.729  24.346  0.00  0.00    +0.138 A 
BRANCH  23  26
ATOM     26  C   UNL     1      -3.497  -3.192  24.315  0.00  0.00    +0.077 C 
BRANCH  26  27
ATOM     27  C   UNL     1      -2.029  -3.675  24.332  0.00  0.00    +0.007 C 
BRANCH  27  31
ATOM     31  C   UNL     1      -1.034  -2.535  24.114  0.00  0.00    -0.003 C 
ATOM     32  C   UNL     1      -0.291  -2.192  25.396  0.00  0.00    +0.004 C 
ENDBRANCH  27  31
ENDBRANCH  26  27
ENDBRANCH  23  26
ENDBRANCH  13  20
ENDBRANCH   7  13
TORSDOF 9
ENDMDL
MODEL 3
REMARK VINA RESULT:       0.7      2.412      5.509
REMARK  Name = 26742991
REMARK  10 active torsions:
REMARK  status: ('A' for Active; 'I' for Inactive)
REMARK    1  A    between atoms: C_6  and  C_9
REMARK    2  A    between atoms: C_7  and  C_13
REMARK    3  A    between atoms: C_9  and  C_18
REMARK    4  A    between atoms: C_11  and  C_19
REMARK    5  A    between atoms: C_13  and  C_20
REMARK    6  A    between atoms: C_19  and  C_21
REMARK    7  A    between atoms: C_23  and  C_26
REMARK    8  A    between atoms: C_26  and  C_27
REMARK    9  A    between atoms: C_27  and  C_31
REMARK   10  A    between atoms: C_31  and  C_32
REMARK                            x       y       z     vdW  Elec       q    Type
REMARK                         _______ _______ _______ _____ _____    ______ ____
ROOT
ATOM      4  N   UNL     1       3.125   1.106  23.043  0.00  0.00    -0.316 NA
ATOM      6  C   UNL     1       0.723  -0.579  22.738  0.00  0.00    +0.004 C 
ATOM      7  C   UNL     1       0.662   0.967  22.760  0.00  0.00    +0.012 C 
ATOM      8  C   UNL     1       2.124  -1.020  22.283  0.00  0.00    +0.019 C 
ATOM     10  C   UNL     1       1.834   1.570  23.553  0.00  0.00    +0.085 C 
ATOM     12  C   UNL     1       3.237  -0.350  23.088  0.00  0.00    +0.081 C 
ATOM     33  H   UNL     1       3.874   1.519  23.597  0.00  0.00    +0.122 HD
ENDROOT
BRANCH   6   9
ATOM      9  C   UNL     1       0.350  -1.238  24.072  0.00  0.00    +0.100 C 
BRANCH   9  18
ATOM      1  O   UNL     1      -0.933  -2.969  23.088  0.00  0.00    -0.276 OA
ATOM      3  N   UNL     1      -1.989  -1.697  24.719  0.00  0.00    -0.301 N 
ATOM     11  C   UNL     1      -4.495  -0.408  25.404  0.00  0.00    -0.004 C 
ATOM     14  C   UNL     1      -3.157   0.345  25.457  0.00  0.00    +0.023 C 
ATOM     15  C   UNL     1      -4.424  -1.547  24.376  0.00  0.00    +0.023 C 
ATOM     16  C   UNL     1      -1.991  -0.611  25.706  0.00  0.00    +0.108 C 
ATOM     17  C   UNL     1      -3.234  -2.463  24.650  0.00  0.00    +0.108 C 
ATOM     18  C   UNL     1      -0.909  -2.051  23.911  0.00  0.00    +0.216 C 
BRANCH  11  19
ATOM     19  C   UNL     1      -5.642   0.547  25.079  0.00  0.00    +0.038 C 
BRANCH  19  21
ATOM     21  C   UNL     1      -5.151   1.954  24.871  0.00  0.00    -0.047 A 
ATOM     24  C   UNL     1      -5.440   2.939  25.815  0.00  0.00    +0.003 A 
ATOM     25  C   UNL     1      -4.408   2.271  23.735  0.00  0.00    +0.003 A 
ATOM     28  C   UNL     1      -4.985   4.244  25.623  0.00  0.00    +0.000 A 
ATOM     29  C   UNL     1      -3.952   3.576  23.542  0.00  0.00    +0.000 A 
ATOM     30  C   UNL     1      -4.240   4.562  24.485  0.00  0.00    +0.000 A 
ENDBRANCH  19  21
ENDBRANCH  11  19
ENDBRANCH   9  18
ENDBRANCH   6   9
BRANCH   7  13
ATOM     13  C   UNL     1      -0.672   1.506  23.279  0.00  0.00    +0.064 C 
BRANCH  13  20
ATOM      2  O   UNL     1      -0.616   3.807  26.047  0.00  0.00    -0.359 OA
ATOM      5  N   UNL     1      -0.917   3.471  24.733  0.00  0.00    -0.083 NA
ATOM     20  C   UNL     1      -0.502   2.209  24.595  0.00  0.00    +0.084 A 
ATOM     22  C   UNL     1       0.064   1.701  25.776  0.00  0.00    +0.071 A 
ATOM     23  C   UNL     1      -0.032   2.745  26.658  0.00  0.00    +0.138 A 
BRANCH  23  26
ATOM     26  C   UNL     1       0.353   2.928  28.063  0.00  0.00    +0.077 C 
BRANCH  26  27
ATOM     27  C   UNL     1       1.875   2.789  28.296  0.00  0.00    +0.007 C 
BRANCH  27  31
ATOM     31  C   UNL     1       2.212   2.326  29.713  0.00  0.00    -0.003 C 
ATOM     32  C   UNL     1       0.996   2.392  30.625  0.00  0.00    +0.004 C 
ENDBRANCH  27  31
ENDBRANCH  26  27
ENDBRANCH  23  26
ENDBRANCH  13  20
ENDBRANCH   7  13
TORSDOF 9
ENDMDL
MODEL 4
REMARK VINA RESULT:       1.5      2.385      5.469
REMARK  Name = 26742991
REMARK  10 active torsions:
REMARK  status: ('A' for Active; 'I' for Inactive)
REMARK    1  A    between atoms: C_6  and  C_9
REMARK    2  A    between atoms: C_7  and  C_13
REMARK    3  A    between atoms: C_9  and  C_18
REMARK    4  A    between atoms: C_11  and  C_19
REMARK    5  A    between atoms: C_13  and  C_20
REMARK    6  A    between atoms: C_19  and  C_21
REMARK    7  A    between atoms: C_23  and  C_26
REMARK    8  A    between atoms: C_26  and  C_27
REMARK    9  A    between atoms: C_27  and  C_31
REMARK   10  A    between atoms: C_31  and  C_32
REMARK                            x       y       z     vdW  Elec       q    Type
REMARK                         _______ _______ _______ _____ _____    ______ ____
ROOT
ATOM      4  N   UNL     1      -6.581   2.795  24.675  0.00  0.00    -0.316 NA
ATOM      6  C   UNL     1      -4.245   1.292  25.670  0.00  0.00    +0.004 C 
ATOM      7  C   UNL     1      -4.111   2.560  24.793  0.00  0.00    +0.012 C 
ATOM      8  C   UNL     1      -5.597   1.327  26.401  0.00  0.00    +0.019 C 
ATOM     10  C   UNL     1      -5.344   2.761  23.894  0.00  0.00    +0.085 C 
ATOM     12  C   UNL     1      -6.768   1.570  25.450  0.00  0.00    +0.081 C 
ATOM     33  H   UNL     1      -7.373   2.920  24.046  0.00  0.00    +0.122 HD
ENDROOT
BRANCH   6   9
ATOM      9  C   UNL     1      -4.077  -0.022  24.897  0.00  0.00    +0.100 C 
BRANCH   9  18
ATOM      1  O   UNL     1      -2.724  -1.127  26.498  0.00  0.00    -0.276 OA
ATOM      3  N   UNL     1      -1.809  -0.856  24.379  0.00  0.00    -0.301 N 
ATOM     11  C   UNL     1       0.635  -0.188  22.969  0.00  0.00    -0.004 C 
ATOM     14  C   UNL     1      -0.696   0.514  22.659  0.00  0.00    +0.023 C 
ATOM     15  C   UNL     1       0.647  -0.685  24.422  0.00  0.00    +0.023 C 
ATOM     16  C   UNL     1      -1.888  -0.383  22.993  0.00  0.00    +0.108 C 
ATOM     17  C   UNL     1      -0.570  -1.557  24.718  0.00  0.00    +0.108 C 
ATOM     18  C   UNL     1      -2.815  -0.720  25.337  0.00  0.00    +0.216 C 
BRANCH  11  19
ATOM     19  C   UNL     1       1.815   0.744  22.703  0.00  0.00    +0.038 C 
BRANCH  19  21
ATOM     21  C   UNL     1       3.118   0.128  23.134  0.00  0.00    -0.047 A 
ATOM     24  C   UNL     1       4.279   0.899  23.160  0.00  0.00    +0.003 A 
ATOM     25  C   UNL     1       3.163  -1.215  23.508  0.00  0.00    +0.003 A 
ATOM     28  C   UNL     1       5.488   0.328  23.559  0.00  0.00    +0.000 A 
ATOM     29  C   UNL     1       4.371  -1.787  23.908  0.00  0.00    +0.000 A 
ATOM     30  C   UNL     1       5.534  -1.016  23.934  0.00  0.00    +0.000 A 
ENDBRANCH  19  21
ENDBRANCH  11  19
ENDBRANCH   9  18
ENDBRANCH   6   9
BRANCH   7  13
ATOM     13  C   UNL     1      -2.830   2.580  23.960  0.00  0.00    +0.064 C 
BRANCH  13  20
ATOM      2  O   UNL     1      -0.001   4.095  25.592  0.00  0.00    -0.359 OA
ATOM      5  N   UNL     1      -1.053   4.115  24.684  0.00  0.00    -0.083 NA
ATOM     20  C   UNL     1      -1.634   2.918  24.803  0.00  0.00    +0.084 A 
ATOM     22  C   UNL     1      -0.998   2.109  25.760  0.00  0.00    +0.071 A 
ATOM     23  C   UNL     1       0.021   2.895  26.226  0.00  0.00    +0.138 A 
BRANCH  23  26
ATOM     26  C   UNL     1       1.078   2.703  27.227  0.00  0.00    +0.077 C 
BRANCH  26  27
ATOM     27  C   UNL     1       0.534   2.269  28.606  0.00  0.00    +0.007 C 
BRANCH  27  31
ATOM     31  C   UNL     1       1.573   2.410  29.718  0.00  0.00    -0.003 C 
ATOM     32  C   UNL     1       2.873   3.001  29.195  0.00  0.00    +0.004 C 
ENDBRANCH  27  31
ENDBRANCH  26  27
ENDBRANCH  23  26
ENDBRANCH  13  20
ENDBRANCH   7  13
TORSDOF 9
ENDMDL
MODEL 5
REMARK VINA RESULT:       2.4      2.602      5.080
REMARK  Name = 26742991
REMARK  10 active torsions:
REMARK  status: ('A' for Active; 'I' for Inactive)
REMARK    1  A    between atoms: C_6  and  C_9
REMARK    2  A    between atoms: C_7  and  C_13
REMARK    3  A    between atoms: C_9  and  C_18
REMARK    4  A    between atoms: C_11  and  C_19
REMARK    5  A    between atoms: C_13  and  C_20
REMARK    6  A    between atoms: C_19  and  C_21
REMARK    7  A    between atoms: C_23  and  C_26
REMARK    8  A    between atoms: C_26  and  C_27
REMARK    9  A    between atoms: C_27  and  C_31
REMARK   10  A    between atoms: C_31  and  C_32
REMARK                            x       y       z     vdW  Elec       q    Type
REMARK                         _______ _______ _______ _____ _____    ______ ____
ROOT
ATOM      4  N   UNL     1      -2.224  -2.516  24.937  0.00  0.00    -0.316 NA
ATOM      6  C   UNL     1      -3.739  -0.478  23.435  0.00  0.00    +0.004 C 
ATOM      7  C   UNL     1      -2.193  -0.491  23.499  0.00  0.00    +0.012 C 
ATOM      8  C   UNL     1      -4.265  -1.901  23.688  0.00  0.00    +0.019 C 
ATOM     10  C   UNL     1      -1.684  -1.164  24.785  0.00  0.00    +0.085 C 
ATOM     12  C   UNL     1      -3.685  -2.519  24.960  0.00  0.00    +0.081 C 
ATOM     33  H   UNL     1      -1.872  -2.925  25.802  0.00  0.00    +0.122 HD
ENDROOT
BRANCH   6   9
ATOM      9  C   UNL     1      -4.395   0.524  24.393  0.00  0.00    +0.100 C 
BRANCH   9  18
ATOM      1  O   UNL     1      -4.223   2.441  23.010  0.00  0.00    -0.276 OA
ATOM      3  N   UNL     1      -3.131   2.540  25.058  0.00  0.00    -0.301 N 
ATOM     11  C   UNL     1      -0.686   3.415  26.351  0.00  0.00    -0.004 C 
ATOM     14  C   UNL     1      -1.231   1.989  26.529  0.00  0.00    +0.023 C 
ATOM     15  C   UNL     1      -1.142   3.992  25.002  0.00  0.00    +0.023 C 
ATOM     16  C   UNL     1      -2.748   1.947  26.344  0.00  0.00    +0.108 C 
ATOM     17  C   UNL     1      -2.659   3.909  24.850  0.00  0.00    +0.108 C 
ATOM     18  C   UNL     1      -3.914   1.920  24.085  0.00  0.00    +0.216 C 
BRANCH  11  19
ATOM     19  C   UNL     1       0.836   3.432  26.463  0.00  0.00    +0.038 C 
BRANCH  19  21
ATOM     21  C   UNL     1       1.297   2.991  27.825  0.00  0.00    -0.047 A 
ATOM     24  C   UNL     1       0.362   2.631  28.795  0.00  0.00    +0.003 A 
ATOM     25  C   UNL     1       2.660   2.941  28.117  0.00  0.00    +0.003 A 
ATOM     28  C   UNL     1       0.789   2.222  30.059  0.00  0.00    +0.000 A 
ATOM     29  C   UNL     1       3.088   2.531  29.380  0.00  0.00    +0.000 A 
ATOM     30  C   UNL     1       2.153   2.172  30.352  0.00  0.00    +0.000 A 
ENDBRANCH  19  21
ENDBRANCH  11  19
ENDBRANCH   9  18
ENDBRANCH   6   9
BRANCH   7  13
ATOM     13  C   UNL     1      -1.575   0.898  23.338  0.00  0.00    +0.064 C 
BRANCH  13  20
ATOM      2  O   UNL     1       1.973   1.442  23.604  0.00  0.00    -0.359 OA
ATOM      5  N   UNL     1       0.653   1.823  23.806  0.00  0.00    -0.083 NA
ATOM     20  C   UNL     1      -0.076   0.828  23.293  0.00  0.00    +0.084 A 
ATOM     22  C   UNL     1       0.722  -0.197  22.757  0.00  0.00    +0.071 A 
ATOM     23  C   UNL     1       2.002   0.238  22.978  0.00  0.00    +0.138 A 
BRANCH  23  26
ATOM     26  C   UNL     1       3.330  -0.316  22.684  0.00  0.00    +0.077 C 
BRANCH  26  27
ATOM     27  C   UNL     1       4.451   0.748  22.718  0.00  0.00    +0.007 C 
BRANCH  27  31
ATOM     31  C   UNL     1       5.548   0.412  23.728  0.00  0.00    -0.003 C 
ATOM     32  C   UNL     1       5.449  -1.030  24.199  0.00  0.00    +0.004 C 
ENDBRANCH  27  31
ENDBRANCH  26  27
ENDBRANCH  23  26
ENDBRANCH  13  20
ENDBRANCH   7  13
TORSDOF 9
ENDMDL
