MODEL 1
REMARK VINA RESULT:       2.6      0.000      0.000
REMARK  Name = 40780416
REMARK  8 active torsions:
REMARK  status: ('A' for Active; 'I' for Inactive)
REMARK    1  A    between atoms: N_4  and  C_10
REMARK    2  A    between atoms: N_4  and  C_16
REMARK    3  A    between atoms: N_5  and  C_19
REMARK    4  A    between atoms: N_7  and  C_21
REMARK    5  A    between atoms: C_8  and  C_11
REMARK    6  A    between atoms: C_14  and  C_17
REMARK    7  A    between atoms: C_15  and  C_18
REMARK    8  A    between atoms: C_16  and  C_20
REMARK                            x       y       z     vdW  Elec       q    Type
REMARK                         _______ _______ _______ _____ _____    ______ ____
ROOT
ATOM      5  N   UNL     1       0.690   1.773  24.353  0.00  0.00    -0.234 N 
ATOM      6  N   UNL     1       0.908   2.057  25.648  0.00  0.00    -0.171 NA
ATOM     11  C   UNL     1      -1.151   2.774  24.968  0.00  0.00    +0.003 A 
ATOM     14  C   UNL     1      -0.529   2.182  23.896  0.00  0.00    +0.046 A 
ATOM     15  C   UNL     1      -0.221   2.668  26.019  0.00  0.00    +0.064 A 
ATOM     17  C   UNL     1      -0.984   1.977  22.507  0.00  0.00    +0.066 C 
ATOM     18  C   UNL     1      -0.365   3.142  27.407  0.00  0.00    +0.068 C 
ENDROOT
BRANCH   5  19
ATOM     19  C   UNL     1       1.674   1.117  23.613  0.00  0.00    +0.096 A 
ATOM     21  C   UNL     1       1.531  -0.220  23.242  0.00  0.00    +0.151 A 
ATOM     22  C   UNL     1       2.818   1.826  23.243  0.00  0.00    +0.030 A 
ATOM     25  C   UNL     1       2.532  -0.849  22.501  0.00  0.00    +0.035 A 
ATOM     26  C   UNL     1       3.818   1.197  22.502  0.00  0.00    +0.002 A 
ATOM     27  C   UNL     1       3.675  -0.140  22.131  0.00  0.00    +0.002 A 
BRANCH  21   7
ATOM      2  O   UNL     1       0.174  -1.221  24.814  0.00  0.00    -0.126 OA
ATOM      3  O   UNL     1      -0.400  -1.357  22.700  0.00  0.00    -0.126 OA
ATOM      7  N   UNL     1       0.377  -0.971  23.604  0.00  0.00    +0.059 N 
ENDBRANCH  21   7
ENDBRANCH   5  19
BRANCH  11   8
ATOM      8  C   UNL     1      -2.527   3.398  25.007  0.00  0.00    +0.047 C 
ATOM      9  C   UNL     1      -3.462   2.743  26.042  0.00  0.00    +0.035 C 
ATOM     10  C   UNL     1      -4.359   3.870  26.583  0.00  0.00    +0.078 C 
ATOM     12  C   UNL     1      -2.551   4.839  25.425  0.00  0.00    -0.021 C 
ATOM     13  C   UNL     1      -3.553   5.092  26.275  0.00  0.00    -0.012 C 
BRANCH  10   4
ATOM      4  N   UNL     1      -5.656   3.904  25.917  0.00  0.00    -0.306 NA
ATOM     31  H   UNL     1      -5.543   4.285  24.978  0.00  0.00    +0.123 HD
BRANCH   4  16
ATOM     16  C   UNL     1      -6.228   2.566  25.819  0.00  0.00    +0.117 C 
BRANCH  16  20
ATOM      1 CL   UNL     1      -3.623  -1.945  25.668  0.00  0.00    -0.084 Cl
ATOM     20  C   UNL     1      -5.325   1.625  25.067  0.00  0.00    -0.032 A 
ATOM     23  C   UNL     1      -4.939   0.416  25.648  0.00  0.00    +0.025 A 
ATOM     24  C   UNL     1      -4.877   1.959  23.790  0.00  0.00    +0.005 A 
ATOM     28  C   UNL     1      -4.103  -0.456  24.951  0.00  0.00    +0.041 A 
ATOM     29  C   UNL     1      -4.040   1.087  23.093  0.00  0.00    +0.002 A 
ATOM     30  C   UNL     1      -3.654  -0.121  23.673  0.00  0.00    +0.020 A 
ENDBRANCH  16  20
ENDBRANCH   4  16
ENDBRANCH  10   4
ENDBRANCH  11   8
TORSDOF 6
ENDMDL
MODEL 2
REMARK VINA RESULT:       2.9      2.224      3.759
REMARK  Name = 40780416
REMARK  8 active torsions:
REMARK  status: ('A' for Active; 'I' for Inactive)
REMARK    1  A    between atoms: N_4  and  C_10
REMARK    2  A    between atoms: N_4  and  C_16
REMARK    3  A    between atoms: N_5  and  C_19
REMARK    4  A    between atoms: N_7  and  C_21
REMARK    5  A    between atoms: C_8  and  C_11
REMARK    6  A    between atoms: C_14  and  C_17
REMARK    7  A    between atoms: C_15  and  C_18
REMARK    8  A    between atoms: C_16  and  C_20
REMARK                            x       y       z     vdW  Elec       q    Type
REMARK                         _______ _______ _______ _____ _____    ______ ____
ROOT
ATOM      5  N   UNL     1       0.734  -0.218  23.789  0.00  0.00    -0.234 N 
ATOM      6  N   UNL     1       0.464  -1.462  24.220  0.00  0.00    -0.171 NA
ATOM     11  C   UNL     1      -1.296  -0.050  24.575  0.00  0.00    +0.003 A 
ATOM     14  C   UNL     1      -0.287   0.666  23.979  0.00  0.00    +0.046 A 
ATOM     15  C   UNL     1      -0.779  -1.354  24.698  0.00  0.00    +0.064 A 
ATOM     17  C   UNL     1      -0.213   2.087  23.585  0.00  0.00    +0.066 C 
ATOM     18  C   UNL     1      -1.440  -2.538  25.273  0.00  0.00    +0.068 C 
ENDROOT
BRANCH   5  19
ATOM     19  C   UNL     1       1.974   0.060  23.213  0.00  0.00    +0.096 A 
ATOM     21  C   UNL     1       2.208  -0.163  21.855  0.00  0.00    +0.151 A 
ATOM     22  C   UNL     1       2.990   0.572  24.020  0.00  0.00    +0.030 A 
ATOM     25  C   UNL     1       3.457   0.125  21.306  0.00  0.00    +0.035 A 
ATOM     26  C   UNL     1       4.239   0.860  23.471  0.00  0.00    +0.002 A 
ATOM     27  C   UNL     1       4.473   0.637  22.114  0.00  0.00    +0.002 A 
BRANCH  21   7
ATOM      2  O   UNL     1       1.253  -1.887  20.657  0.00  0.00    -0.126 OA
ATOM      3  O   UNL     1       0.271   0.076  20.628  0.00  0.00    -0.126 OA
ATOM      7  N   UNL     1       1.193  -0.684  21.004  0.00  0.00    +0.059 N 
ENDBRANCH  21   7
ENDBRANCH   5  19
BRANCH  11   8
ATOM      8  C   UNL     1      -2.657   0.452  25.001  0.00  0.00    +0.047 C 
ATOM      9  C   UNL     1      -3.641   0.609  23.827  0.00  0.00    +0.035 C 
ATOM     10  C   UNL     1      -5.033   0.265  24.385  0.00  0.00    +0.078 C 
ATOM     12  C   UNL     1      -3.405  -0.467  25.922  0.00  0.00    -0.021 C 
ATOM     13  C   UNL     1      -4.697  -0.559  25.589  0.00  0.00    -0.012 C 
BRANCH  10   4
ATOM      4  N   UNL     1      -5.786   1.459  24.750  0.00  0.00    -0.306 NA
ATOM     31  H   UNL     1      -5.741   1.591  25.761  0.00  0.00    +0.123 HD
BRANCH   4  16
ATOM     16  C   UNL     1      -5.241   2.642  24.095  0.00  0.00    +0.117 C 
BRANCH  16  20
ATOM      1 CL   UNL     1      -0.785   5.308  24.541  0.00  0.00    -0.084 Cl
ATOM     20  C   UNL     1      -4.254   3.364  24.974  0.00  0.00    -0.032 A 
ATOM     23  C   UNL     1      -3.111   3.936  24.415  0.00  0.00    +0.025 A 
ATOM     24  C   UNL     1      -4.484   3.463  26.346  0.00  0.00    +0.005 A 
ATOM     28  C   UNL     1      -2.198   4.606  25.229  0.00  0.00    +0.041 A 
ATOM     29  C   UNL     1      -3.570   4.132  27.160  0.00  0.00    +0.002 A 
ATOM     30  C   UNL     1      -2.427   4.704  26.602  0.00  0.00    +0.020 A 
ENDBRANCH  16  20
ENDBRANCH   4  16
ENDBRANCH  10   4
ENDBRANCH  11   8
TORSDOF 6
ENDMDL
MODEL 3
REMARK VINA RESULT:       3.6      1.577      2.251
REMARK  Name = 40780416
REMARK  8 active torsions:
REMARK  status: ('A' for Active; 'I' for Inactive)
REMARK    1  A    between atoms: N_4  and  C_10
REMARK    2  A    between atoms: N_4  and  C_16
REMARK    3  A    between atoms: N_5  and  C_19
REMARK    4  A    between atoms: N_7  and  C_21
REMARK    5  A    between atoms: C_8  and  C_11
REMARK    6  A    between atoms: C_14  and  C_17
REMARK    7  A    between atoms: C_15  and  C_18
REMARK    8  A    between atoms: C_16  and  C_20
REMARK                            x       y       z     vdW  Elec       q    Type
REMARK                         _______ _______ _______ _____ _____    ______ ____
ROOT
ATOM      5  N   UNL     1       1.330   1.550  23.675  0.00  0.00    -0.234 N 
ATOM      6  N   UNL     1       1.292   2.890  23.582  0.00  0.00    -0.171 NA
ATOM     11  C   UNL     1      -0.758   2.026  24.100  0.00  0.00    +0.003 A 
ATOM     14  C   UNL     1       0.128   0.983  23.983  0.00  0.00    +0.046 A 
ATOM     15  C   UNL     1       0.014   3.176  23.844  0.00  0.00    +0.064 A 
ATOM     17  C   UNL     1      -0.068  -0.472  24.134  0.00  0.00    +0.066 C 
ATOM     18  C   UNL     1      -0.431   4.580  23.836  0.00  0.00    +0.068 C 
ENDROOT
BRANCH   5  19
ATOM     19  C   UNL     1       2.532   0.875  23.459  0.00  0.00    +0.096 A 
ATOM     21  C   UNL     1       2.620  -0.172  22.542  0.00  0.00    +0.151 A 
ATOM     22  C   UNL     1       3.660   1.267  24.181  0.00  0.00    +0.030 A 
ATOM     25  C   UNL     1       3.836  -0.828  22.346  0.00  0.00    +0.035 A 
ATOM     26  C   UNL     1       4.876   0.612  23.985  0.00  0.00    +0.002 A 
ATOM     27  C   UNL     1       4.964  -0.435  23.068  0.00  0.00    +0.002 A 
BRANCH  21   7
ATOM      2  O   UNL     1       0.627  -1.315  22.347  0.00  0.00    -0.126 OA
ATOM      3  O   UNL     1       1.389  -0.237  20.594  0.00  0.00    -0.126 OA
ATOM      7  N   UNL     1       1.488  -0.597  21.789  0.00  0.00    +0.059 N 
ENDBRANCH  21   7
ENDBRANCH   5  19
BRANCH  11   8
ATOM      8  C   UNL     1      -2.231   1.953  24.432  0.00  0.00    +0.047 C 
ATOM      9  C   UNL     1      -2.643   2.895  25.579  0.00  0.00    +0.035 C 
ATOM     10  C   UNL     1      -4.070   3.370  25.253  0.00  0.00    +0.078 C 
ATOM     12  C   UNL     1      -3.146   2.384  23.323  0.00  0.00    -0.021 C 
ATOM     13  C   UNL     1      -4.148   3.147  23.775  0.00  0.00    -0.012 C 
BRANCH  10   4
ATOM      4  N   UNL     1      -5.080   2.594  25.964  0.00  0.00    -0.306 NA
ATOM     31  H   UNL     1      -5.828   3.216  26.270  0.00  0.00    +0.123 HD
BRANCH   4  16
ATOM     16  C   UNL     1      -5.646   1.561  25.104  0.00  0.00    +0.117 C 
BRANCH  16  20
ATOM      1 CL   UNL     1      -4.284  -2.958  22.895  0.00  0.00    -0.084 Cl
ATOM     20  C   UNL     1      -4.855   0.282  25.170  0.00  0.00    -0.032 A 
ATOM     23  C   UNL     1      -4.927  -0.637  24.124  0.00  0.00    +0.025 A 
ATOM     24  C   UNL     1      -4.049   0.017  26.277  0.00  0.00    +0.005 A 
ATOM     28  C   UNL     1      -4.193  -1.822  24.185  0.00  0.00    +0.041 A 
ATOM     29  C   UNL     1      -3.316  -1.169  26.339  0.00  0.00    +0.002 A 
ATOM     30  C   UNL     1      -3.387  -2.088  25.292  0.00  0.00    +0.020 A 
ENDBRANCH  16  20
ENDBRANCH   4  16
ENDBRANCH  10   4
ENDBRANCH  11   8
TORSDOF 6
ENDMDL
MODEL 4
REMARK VINA RESULT:       3.6      2.210      3.932
REMARK  Name = 40780416
REMARK  8 active torsions:
REMARK  status: ('A' for Active; 'I' for Inactive)
REMARK    1  A    between atoms: N_4  and  C_10
REMARK    2  A    between atoms: N_4  and  C_16
REMARK    3  A    between atoms: N_5  and  C_19
REMARK    4  A    between atoms: N_7  and  C_21
REMARK    5  A    between atoms: C_8  and  C_11
REMARK    6  A    between atoms: C_14  and  C_17
REMARK    7  A    between atoms: C_15  and  C_18
REMARK    8  A    between atoms: C_16  and  C_20
REMARK                            x       y       z     vdW  Elec       q    Type
REMARK                         _______ _______ _______ _____ _____    ______ ____
ROOT
ATOM      5  N   UNL     1      -0.408  -0.170  23.979  0.00  0.00    -0.234 N 
ATOM      6  N   UNL     1      -0.581  -1.370  24.558  0.00  0.00    -0.171 NA
ATOM     11  C   UNL     1      -2.439  -0.059  24.775  0.00  0.00    +0.003 A 
ATOM     14  C   UNL     1      -1.491   0.653  24.080  0.00  0.00    +0.046 A 
ATOM     15  C   UNL     1      -1.824  -1.297  25.042  0.00  0.00    +0.064 A 
ATOM     17  C   UNL     1      -1.527   2.018  23.520  0.00  0.00    +0.066 C 
ATOM     18  C   UNL     1      -2.389  -2.450  25.765  0.00  0.00    +0.068 C 
ENDROOT
BRANCH   5  19
ATOM     19  C   UNL     1       0.802   0.127  23.351  0.00  0.00    +0.096 A 
ATOM     21  C   UNL     1       1.488   1.311  23.625  0.00  0.00    +0.151 A 
ATOM     22  C   UNL     1       1.326  -0.787  22.436  0.00  0.00    +0.030 A 
ATOM     25  C   UNL     1       2.697   1.581  22.984  0.00  0.00    +0.035 A 
ATOM     26  C   UNL     1       2.534  -0.517  21.795  0.00  0.00    +0.002 A 
ATOM     27  C   UNL     1       3.220   0.667  22.069  0.00  0.00    +0.002 A 
BRANCH  21   7
ATOM      2  O   UNL     1       0.593   3.376  24.127  0.00  0.00    -0.126 OA
ATOM      3  O   UNL     1       0.939   1.960  25.768  0.00  0.00    -0.126 OA
ATOM      7  N   UNL     1       0.981   2.264  24.554  0.00  0.00    +0.059 N 
ENDBRANCH  21   7
ENDBRANCH   5  19
BRANCH  11   8
ATOM      8  C   UNL     1      -3.829   0.389  25.162  0.00  0.00    +0.047 C 
ATOM      9  C   UNL     1      -4.243   1.721  24.507  0.00  0.00    +0.035 C 
ATOM     10  C   UNL     1      -5.756   1.619  24.249  0.00  0.00    +0.078 C 
ATOM     12  C   UNL     1      -4.930  -0.534  24.729  0.00  0.00    -0.021 C 
ATOM     13  C   UNL     1      -5.978   0.139  24.241  0.00  0.00    -0.012 C 
BRANCH  10   4
ATOM      4  N   UNL     1      -6.535   2.269  25.296  0.00  0.00    -0.306 NA
ATOM     31  H   UNL     1      -6.313   1.842  26.196  0.00  0.00    +0.123 HD
BRANCH   4  16
ATOM     16  C   UNL     1      -6.234   3.694  25.363  0.00  0.00    +0.117 C 
BRANCH  16  20
ATOM      1 CL   UNL     1      -1.680   5.733  23.856  0.00  0.00    -0.084 Cl
ATOM     20  C   UNL     1      -4.777   3.946  25.650  0.00  0.00    -0.032 A 
ATOM     23  C   UNL     1      -3.995   4.642  24.728  0.00  0.00    +0.025 A 
ATOM     24  C   UNL     1      -4.210   3.483  26.837  0.00  0.00    +0.005 A 
ATOM     28  C   UNL     1      -2.646   4.876  24.994  0.00  0.00    +0.041 A 
ATOM     29  C   UNL     1      -2.860   3.716  27.102  0.00  0.00    +0.002 A 
ATOM     30  C   UNL     1      -2.078   4.413  26.181  0.00  0.00    +0.020 A 
ENDBRANCH  16  20
ENDBRANCH   4  16
ENDBRANCH  10   4
ENDBRANCH  11   8
TORSDOF 6
ENDMDL
MODEL 5
REMARK VINA RESULT:       3.7      3.231      7.960
REMARK  Name = 40780416
REMARK  8 active torsions:
REMARK  status: ('A' for Active; 'I' for Inactive)
REMARK    1  A    between atoms: N_4  and  C_10
REMARK    2  A    between atoms: N_4  and  C_16
REMARK    3  A    between atoms: N_5  and  C_19
REMARK    4  A    between atoms: N_7  and  C_21
REMARK    5  A    between atoms: C_8  and  C_11
REMARK    6  A    between atoms: C_14  and  C_17
REMARK    7  A    between atoms: C_15  and  C_18
REMARK    8  A    between atoms: C_16  and  C_20
REMARK                            x       y       z     vdW  Elec       q    Type
REMARK                         _______ _______ _______ _____ _____    ______ ____
ROOT
ATOM      5  N   UNL     1      -3.967   1.577  25.052  0.00  0.00    -0.234 N 
ATOM      6  N   UNL     1      -4.204   0.448  25.740  0.00  0.00    -0.171 NA
ATOM     11  C   UNL     1      -2.462   0.193  24.285  0.00  0.00    +0.003 A 
ATOM     14  C   UNL     1      -2.934   1.478  24.167  0.00  0.00    +0.046 A 
ATOM     15  C   UNL     1      -3.280  -0.395  25.268  0.00  0.00    +0.064 A 
ATOM     17  C   UNL     1      -2.497   2.592  23.303  0.00  0.00    +0.066 C 
ATOM     18  C   UNL     1      -3.219  -1.770  25.792  0.00  0.00    +0.068 C 
ENDROOT
BRANCH   5  19
ATOM     19  C   UNL     1      -4.755   2.706  25.282  0.00  0.00    +0.096 A 
ATOM     21  C   UNL     1      -4.189   3.913  25.693  0.00  0.00    +0.151 A 
ATOM     22  C   UNL     1      -6.134   2.611  25.093  0.00  0.00    +0.030 A 
ATOM     25  C   UNL     1      -5.001   5.025  25.914  0.00  0.00    +0.035 A 
ATOM     26  C   UNL     1      -6.946   3.722  25.314  0.00  0.00    +0.002 A 
ATOM     27  C   UNL     1      -6.380   4.929  25.725  0.00  0.00    +0.002 A 
BRANCH  21   7
ATOM      2  O   UNL     1      -2.154   4.889  25.220  0.00  0.00    -0.126 OA
ATOM      3  O   UNL     1      -2.226   3.308  26.741  0.00  0.00    -0.126 OA
ATOM      7  N   UNL     1      -2.785   4.043  25.895  0.00  0.00    +0.059 N 
ENDBRANCH  21   7
ENDBRANCH   5  19
BRANCH  11   8
ATOM      8  C   UNL     1      -1.319  -0.443  23.528  0.00  0.00    +0.047 C 
ATOM      9  C   UNL     1      -0.199   0.552  23.169  0.00  0.00    +0.035 C 
ATOM     10  C   UNL     1       1.117  -0.241  23.237  0.00  0.00    +0.078 C 
ATOM     12  C   UNL     1      -0.573  -1.499  24.289  0.00  0.00    -0.021 C 
ATOM     13  C   UNL     1       0.750  -1.391  24.121  0.00  0.00    -0.012 C 
BRANCH  10   4
ATOM      4  N   UNL     1       1.549  -0.697  21.920  0.00  0.00    -0.306 NA
ATOM     31  H   UNL     1       0.837  -0.458  21.230  0.00  0.00    +0.123 HD
BRANCH   4  16
ATOM     16  C   UNL     1       2.808  -0.070  21.537  0.00  0.00    +0.117 C 
BRANCH  16  20
ATOM      1 CL   UNL     1       6.611   2.017  24.425  0.00  0.00    -0.084 Cl
ATOM     20  C   UNL     1       3.866  -0.244  22.594  0.00  0.00    -0.032 A 
ATOM     23  C   UNL     1       4.656   0.841  22.976  0.00  0.00    +0.025 A 
ATOM     24  C   UNL     1       4.054  -1.489  23.194  0.00  0.00    +0.005 A 
ATOM     28  C   UNL     1       5.634   0.679  23.956  0.00  0.00    +0.041 A 
ATOM     29  C   UNL     1       5.034  -1.650  24.174  0.00  0.00    +0.002 A 
ATOM     30  C   UNL     1       5.824  -0.566  24.556  0.00  0.00    +0.020 A 
ENDBRANCH  16  20
ENDBRANCH   4  16
ENDBRANCH  10   4
ENDBRANCH  11   8
TORSDOF 6
ENDMDL
MODEL 6
REMARK VINA RESULT:       3.9      3.225      7.761
REMARK  Name = 40780416
REMARK  8 active torsions:
REMARK  status: ('A' for Active; 'I' for Inactive)
REMARK    1  A    between atoms: N_4  and  C_10
REMARK    2  A    between atoms: N_4  and  C_16
REMARK    3  A    between atoms: N_5  and  C_19
REMARK    4  A    between atoms: N_7  and  C_21
REMARK    5  A    between atoms: C_8  and  C_11
REMARK    6  A    between atoms: C_14  and  C_17
REMARK    7  A    between atoms: C_15  and  C_18
REMARK    8  A    between atoms: C_16  and  C_20
REMARK                            x       y       z     vdW  Elec       q    Type
REMARK                         _______ _______ _______ _____ _____    ______ ____
ROOT
ATOM      5  N   UNL     1      -4.319   1.042  24.780  0.00  0.00    -0.234 N 
ATOM      6  N   UNL     1      -5.058   0.024  24.308  0.00  0.00    -0.171 NA
ATOM     11  C   UNL     1      -2.840  -0.517  24.392  0.00  0.00    +0.003 A 
ATOM     14  C   UNL     1      -2.984   0.770  24.849  0.00  0.00    +0.046 A 
ATOM     15  C   UNL     1      -4.149  -0.927  24.074  0.00  0.00    +0.064 A 
ATOM     17  C   UNL     1      -1.983   1.740  25.334  0.00  0.00    +0.066 C 
ATOM     18  C   UNL     1      -4.584  -2.228  23.536  0.00  0.00    +0.068 C 
ENDROOT
BRANCH   5  19
ATOM     19  C   UNL     1      -4.940   2.238  25.142  0.00  0.00    +0.096 A 
ATOM     21  C   UNL     1      -4.558   3.454  24.573  0.00  0.00    +0.151 A 
ATOM     22  C   UNL     1      -5.962   2.203  26.091  0.00  0.00    +0.030 A 
ATOM     25  C   UNL     1      -5.198   4.634  24.954  0.00  0.00    +0.035 A 
ATOM     26  C   UNL     1      -6.602   3.382  26.471  0.00  0.00    +0.002 A 
ATOM     27  C   UNL     1      -6.220   4.597  25.902  0.00  0.00    +0.002 A 
BRANCH  21   7
ATOM      2  O   UNL     1      -2.438   4.077  23.913  0.00  0.00    -0.126 OA
ATOM      3  O   UNL     1      -3.717   3.031  22.469  0.00  0.00    -0.126 OA
ATOM      7  N   UNL     1      -3.519   3.524  23.603  0.00  0.00    +0.059 N 
ENDBRANCH  21   7
ENDBRANCH   5  19
BRANCH  11   8
ATOM      8  C   UNL     1      -1.562  -1.313  24.261  0.00  0.00    +0.047 C 
ATOM      9  C   UNL     1      -0.452  -0.842  25.221  0.00  0.00    +0.035 C 
ATOM     10  C   UNL     1       0.335  -2.104  25.616  0.00  0.00    +0.078 C 
ATOM     12  C   UNL     1      -1.689  -2.767  24.610  0.00  0.00    -0.021 C 
ATOM     13  C   UNL     1      -0.652  -3.194  25.339  0.00  0.00    -0.012 C 
BRANCH  10   4
ATOM      4  N   UNL     1       1.545  -2.265  24.819  0.00  0.00    -0.306 NA
ATOM     31  H   UNL     1       1.650  -3.246  24.559  0.00  0.00    +0.123 HD
BRANCH   4  16
ATOM     16  C   UNL     1       1.483  -1.459  23.605  0.00  0.00    +0.117 C 
BRANCH  16  20
ATOM      1 CL   UNL     1       6.642  -1.036  24.214  0.00  0.00    -0.084 Cl
ATOM     20  C   UNL     1       2.744  -0.663  23.396  0.00  0.00    -0.032 A 
ATOM     23  C   UNL     1       3.966  -1.161  23.848  0.00  0.00    +0.025 A 
ATOM     24  C   UNL     1       2.690   0.572  22.750  0.00  0.00    +0.005 A 
ATOM     28  C   UNL     1       5.134  -0.423  23.654  0.00  0.00    +0.041 A 
ATOM     29  C   UNL     1       3.859   1.310  22.557  0.00  0.00    +0.002 A 
ATOM     30  C   UNL     1       5.081   0.812  23.008  0.00  0.00    +0.020 A 
ENDBRANCH  16  20
ENDBRANCH   4  16
ENDBRANCH  10   4
ENDBRANCH  11   8
TORSDOF 6
ENDMDL
MODEL 7
REMARK VINA RESULT:       3.9      3.629      8.296
REMARK  Name = 40780416
REMARK  8 active torsions:
REMARK  status: ('A' for Active; 'I' for Inactive)
REMARK    1  A    between atoms: N_4  and  C_10
REMARK    2  A    between atoms: N_4  and  C_16
REMARK    3  A    between atoms: N_5  and  C_19
REMARK    4  A    between atoms: N_7  and  C_21
REMARK    5  A    between atoms: C_8  and  C_11
REMARK    6  A    between atoms: C_14  and  C_17
REMARK    7  A    between atoms: C_15  and  C_18
REMARK    8  A    between atoms: C_16  and  C_20
REMARK                            x       y       z     vdW  Elec       q    Type
REMARK                         _______ _______ _______ _____ _____    ______ ____
ROOT
ATOM      5  N   UNL     1      -2.937   1.246  24.631  0.00  0.00    -0.234 N 
ATOM      6  N   UNL     1      -2.444   0.217  25.341  0.00  0.00    -0.171 NA
ATOM     11  C   UNL     1      -1.082   0.757  23.589  0.00  0.00    +0.003 A 
ATOM     14  C   UNL     1      -2.160   1.608  23.571  0.00  0.00    +0.046 A 
ATOM     15  C   UNL     1      -1.309  -0.077  24.700  0.00  0.00    +0.064 A 
ATOM     17  C   UNL     1      -2.505   2.711  22.651  0.00  0.00    +0.066 C 
ATOM     18  C   UNL     1      -0.465  -1.180  25.191  0.00  0.00    +0.068 C 
ENDROOT
BRANCH   5  19
ATOM     19  C   UNL     1      -4.145   1.833  25.012  0.00  0.00    +0.096 A 
ATOM     21  C   UNL     1      -4.187   3.123  25.543  0.00  0.00    +0.151 A 
ATOM     22  C   UNL     1      -5.325   1.106  24.852  0.00  0.00    +0.030 A 
ATOM     25  C   UNL     1      -5.409   3.685  25.913  0.00  0.00    +0.035 A 
ATOM     26  C   UNL     1      -6.546   1.668  25.222  0.00  0.00    +0.002 A 
ATOM     27  C   UNL     1      -6.588   2.957  25.753  0.00  0.00    +0.002 A 
BRANCH  21   7
ATOM      2  O   UNL     1      -2.831   4.911  25.010  0.00  0.00    -0.126 OA
ATOM      3  O   UNL     1      -2.167   3.526  26.578  0.00  0.00    -0.126 OA
ATOM      7  N   UNL     1      -3.001   3.892  25.719  0.00  0.00    +0.059 N 
ENDBRANCH  21   7
ENDBRANCH   5  19
BRANCH  11   8
ATOM      8  C   UNL     1       0.086   0.726  22.630  0.00  0.00    +0.047 C 
ATOM      9  C   UNL     1       1.446   0.559  23.334  0.00  0.00    +0.035 C 
ATOM     10  C   UNL     1       2.320  -0.278  22.384  0.00  0.00    +0.078 C 
ATOM     12  C   UNL     1       0.081  -0.428  21.671  0.00  0.00    -0.021 C 
ATOM     13  C   UNL     1       1.298  -0.965  21.534  0.00  0.00    -0.012 C 
BRANCH  10   4
ATOM      4  N   UNL     1       3.208   0.556  21.581  0.00  0.00    -0.306 NA
ATOM     31  H   UNL     1       2.652   1.231  21.055  0.00  0.00    +0.123 HD
BRANCH   4  16
ATOM     16  C   UNL     1       4.152   1.278  22.426  0.00  0.00    +0.117 C 
BRANCH  16  20
ATOM      1 CL   UNL     1       9.090  -0.221  23.158  0.00  0.00    -0.084 Cl
ATOM     20  C   UNL     1       5.131   0.348  23.093  0.00  0.00    -0.032 A 
ATOM     23  C   UNL     1       6.497   0.480  22.846  0.00  0.00    +0.025 A 
ATOM     24  C   UNL     1       4.671  -0.644  23.959  0.00  0.00    +0.005 A 
ATOM     28  C   UNL     1       7.404  -0.381  23.465  0.00  0.00    +0.041 A 
ATOM     29  C   UNL     1       5.578  -1.505  24.577  0.00  0.00    +0.002 A 
ATOM     30  C   UNL     1       6.944  -1.374  24.331  0.00  0.00    +0.020 A 
ENDBRANCH  16  20
ENDBRANCH   4  16
ENDBRANCH  10   4
ENDBRANCH  11   8
TORSDOF 6
ENDMDL
MODEL 8
REMARK VINA RESULT:       4.1      2.473      3.818
REMARK  Name = 40780416
REMARK  8 active torsions:
REMARK  status: ('A' for Active; 'I' for Inactive)
REMARK    1  A    between atoms: N_4  and  C_10
REMARK    2  A    between atoms: N_4  and  C_16
REMARK    3  A    between atoms: N_5  and  C_19
REMARK    4  A    between atoms: N_7  and  C_21
REMARK    5  A    between atoms: C_8  and  C_11
REMARK    6  A    between atoms: C_14  and  C_17
REMARK    7  A    between atoms: C_15  and  C_18
REMARK    8  A    between atoms: C_16  and  C_20
REMARK                            x       y       z     vdW  Elec       q    Type
REMARK                         _______ _______ _______ _____ _____    ______ ____
ROOT
ATOM      5  N   UNL     1       2.024   0.808  23.889  0.00  0.00    -0.234 N 
ATOM      6  N   UNL     1       1.629   2.090  23.814  0.00  0.00    -0.171 NA
ATOM     11  C   UNL     1      -0.104   0.709  24.368  0.00  0.00    +0.003 A 
ATOM     14  C   UNL     1       1.024  -0.060  24.217  0.00  0.00    +0.046 A 
ATOM     15  C   UNL     1       0.328   2.024  24.109  0.00  0.00    +0.064 A 
ATOM     17  C   UNL     1       1.226  -1.516  24.354  0.00  0.00    +0.066 C 
ATOM     18  C   UNL     1      -0.474   3.260  24.129  0.00  0.00    +0.068 C 
ENDROOT
BRANCH   5  19
ATOM     19  C   UNL     1       3.357   0.479  23.636  0.00  0.00    +0.096 A 
ATOM     21  C   UNL     1       3.787   0.132  22.355  0.00  0.00    +0.151 A 
ATOM     22  C   UNL     1       4.266   0.502  24.695  0.00  0.00    +0.030 A 
ATOM     25  C   UNL     1       5.126  -0.191  22.132  0.00  0.00    +0.035 A 
ATOM     26  C   UNL     1       5.604   0.179  24.472  0.00  0.00    +0.002 A 
ATOM     27  C   UNL     1       6.034  -0.167  23.191  0.00  0.00    +0.002 A 
BRANCH  21   7
ATOM      2  O   UNL     1       1.757  -0.423  21.411  0.00  0.00    -0.126 OA
ATOM      3  O   UNL     1       3.248   0.593  20.161  0.00  0.00    -0.126 OA
ATOM      7  N   UNL     1       2.885   0.099  21.254  0.00  0.00    +0.059 N 
ENDBRANCH  21   7
ENDBRANCH   5  19
BRANCH  11   8
ATOM      8  C   UNL     1      -1.495   0.245  24.732  0.00  0.00    +0.047 C 
ATOM      9  C   UNL     1      -1.965  -0.970  23.910  0.00  0.00    +0.035 C 
ATOM     10  C   UNL     1      -2.846  -1.809  24.851  0.00  0.00    +0.078 C 
ATOM     12  C   UNL     1      -1.644  -0.248  26.141  0.00  0.00    -0.021 C 
ATOM     13  C   UNL     1      -2.385  -1.360  26.202  0.00  0.00    -0.012 C 
BRANCH  10   4
ATOM      4  N   UNL     1      -4.266  -1.540  24.655  0.00  0.00    -0.306 NA
ATOM     31  H   UNL     1      -4.689  -1.290  25.550  0.00  0.00    +0.123 HD
BRANCH   4  16
ATOM     16  C   UNL     1      -4.466  -0.444  23.715  0.00  0.00    +0.117 C 
BRANCH  16  20
ATOM      1 CL   UNL     1      -3.614   4.677  24.180  0.00  0.00    -0.084 Cl
ATOM     20  C   UNL     1      -4.762   0.852  24.421  0.00  0.00    -0.032 A 
ATOM     23  C   UNL     1      -4.126   2.027  24.019  0.00  0.00    +0.025 A 
ATOM     24  C   UNL     1      -5.674   0.879  25.476  0.00  0.00    +0.005 A 
ATOM     28  C   UNL     1      -4.401   3.228  24.673  0.00  0.00    +0.041 A 
ATOM     29  C   UNL     1      -5.948   2.080  26.131  0.00  0.00    +0.002 A 
ATOM     30  C   UNL     1      -5.313   3.255  25.729  0.00  0.00    +0.020 A 
ENDBRANCH  16  20
ENDBRANCH   4  16
ENDBRANCH  10   4
ENDBRANCH  11   8
TORSDOF 6
ENDMDL
MODEL 9
REMARK VINA RESULT:       4.2      3.416      7.700
REMARK  Name = 40780416
REMARK  8 active torsions:
REMARK  status: ('A' for Active; 'I' for Inactive)
REMARK    1  A    between atoms: N_4  and  C_10
REMARK    2  A    between atoms: N_4  and  C_16
REMARK    3  A    between atoms: N_5  and  C_19
REMARK    4  A    between atoms: N_7  and  C_21
REMARK    5  A    between atoms: C_8  and  C_11
REMARK    6  A    between atoms: C_14  and  C_17
REMARK    7  A    between atoms: C_15  and  C_18
REMARK    8  A    between atoms: C_16  and  C_20
REMARK                            x       y       z     vdW  Elec       q    Type
REMARK                         _______ _______ _______ _____ _____    ______ ____
ROOT
ATOM      5  N   UNL     1      -4.080   1.674  24.491  0.00  0.00    -0.234 N 
ATOM      6  N   UNL     1      -4.911   0.640  24.279  0.00  0.00    -0.171 NA
ATOM     11  C   UNL     1      -2.725  -0.024  24.256  0.00  0.00    +0.003 A 
ATOM     14  C   UNL     1      -2.759   1.330  24.487  0.00  0.00    +0.046 A 
ATOM     15  C   UNL     1      -4.078  -0.395  24.137  0.00  0.00    +0.064 A 
ATOM     17  C   UNL     1      -1.668   2.302  24.697  0.00  0.00    +0.066 C 
ATOM     18  C   UNL     1      -4.628  -1.738  23.883  0.00  0.00    +0.068 C 
ENDROOT
BRANCH   5  19
ATOM     19  C   UNL     1      -4.602   2.953  24.688  0.00  0.00    +0.096 A 
ATOM     21  C   UNL     1      -5.727   3.160  25.487  0.00  0.00    +0.151 A 
ATOM     22  C   UNL     1      -3.977   4.035  24.068  0.00  0.00    +0.030 A 
ATOM     25  C   UNL     1      -6.226   4.450  25.666  0.00  0.00    +0.035 A 
ATOM     26  C   UNL     1      -4.476   5.325  24.248  0.00  0.00    +0.002 A 
ATOM     27  C   UNL     1      -5.601   5.532  25.047  0.00  0.00    +0.002 A 
BRANCH  21   7
ATOM      2  O   UNL     1      -6.272   1.952  27.374  0.00  0.00    -0.126 OA
ATOM      3  O   UNL     1      -7.065   1.284  25.440  0.00  0.00    -0.126 OA
ATOM      7  N   UNL     1      -6.388   2.077  26.133  0.00  0.00    +0.059 N 
ENDBRANCH  21   7
ENDBRANCH   5  19
BRANCH  11   8
ATOM      8  C   UNL     1      -1.507  -0.912  24.155  0.00  0.00    +0.047 C 
ATOM      9  C   UNL     1      -0.483  -0.670  25.280  0.00  0.00    +0.035 C 
ATOM     10  C   UNL     1       0.151  -2.038  25.583  0.00  0.00    +0.078 C 
ATOM     12  C   UNL     1      -1.788  -2.380  24.291  0.00  0.00    -0.021 C 
ATOM     13  C   UNL     1      -0.879  -2.989  25.061  0.00  0.00    -0.012 C 
BRANCH  10   4
ATOM      4  N   UNL     1       1.430  -2.211  24.903  0.00  0.00    -0.306 NA
ATOM     31  H   UNL     1       1.602  -3.206  24.756  0.00  0.00    +0.123 HD
BRANCH   4  16
ATOM     16  C   UNL     1       1.430  -1.535  23.611  0.00  0.00    +0.117 C 
BRANCH  16  20
ATOM      1 CL   UNL     1       6.580  -1.029  24.230  0.00  0.00    -0.084 Cl
ATOM     20  C   UNL     1       2.678  -0.717  23.407  0.00  0.00    -0.032 A 
ATOM     23  C   UNL     1       3.907  -1.197  23.859  0.00  0.00    +0.025 A 
ATOM     24  C   UNL     1       2.605   0.518  22.764  0.00  0.00    +0.005 A 
ATOM     28  C   UNL     1       5.063  -0.440  23.669  0.00  0.00    +0.041 A 
ATOM     29  C   UNL     1       3.761   1.276  22.575  0.00  0.00    +0.002 A 
ATOM     30  C   UNL     1       4.991   0.797  23.027  0.00  0.00    +0.020 A 
ENDBRANCH  16  20
ENDBRANCH   4  16
ENDBRANCH  10   4
ENDBRANCH  11   8
TORSDOF 6
ENDMDL
MODEL 10
REMARK VINA RESULT:       4.6      2.109      2.943
REMARK  Name = 40780416
REMARK  8 active torsions:
REMARK  status: ('A' for Active; 'I' for Inactive)
REMARK    1  A    between atoms: N_4  and  C_10
REMARK    2  A    between atoms: N_4  and  C_16
REMARK    3  A    between atoms: N_5  and  C_19
REMARK    4  A    between atoms: N_7  and  C_21
REMARK    5  A    between atoms: C_8  and  C_11
REMARK    6  A    between atoms: C_14  and  C_17
REMARK    7  A    between atoms: C_15  and  C_18
REMARK    8  A    between atoms: C_16  and  C_20
REMARK                            x       y       z     vdW  Elec       q    Type
REMARK                         _______ _______ _______ _____ _____    ______ ____
ROOT
ATOM      5  N   UNL     1       1.868   1.286  23.692  0.00  0.00    -0.234 N 
ATOM      6  N   UNL     1       1.732   2.617  23.816  0.00  0.00    -0.171 NA
ATOM     11  C   UNL     1      -0.297   1.569  23.746  0.00  0.00    +0.003 A 
ATOM     14  C   UNL     1       0.683   0.612  23.644  0.00  0.00    +0.046 A 
ATOM     15  C   UNL     1       0.406   2.784  23.850  0.00  0.00    +0.064 A 
ATOM     17  C   UNL     1       0.590  -0.856  23.508  0.00  0.00    +0.066 C 
ATOM     18  C   UNL     1      -0.149   4.142  23.982  0.00  0.00    +0.068 C 
ENDROOT
BRANCH   5  19
ATOM     19  C   UNL     1       3.144   0.724  23.622  0.00  0.00    +0.096 A 
ATOM     21  C   UNL     1       3.630   0.178  22.434  0.00  0.00    +0.151 A 
ATOM     22  C   UNL     1       3.937   0.718  24.770  0.00  0.00    +0.030 A 
ATOM     25  C   UNL     1       4.910  -0.376  22.394  0.00  0.00    +0.035 A 
ATOM     26  C   UNL     1       5.217   0.165  24.729  0.00  0.00    +0.002 A 
ATOM     27  C   UNL     1       5.703  -0.381  23.542  0.00  0.00    +0.002 A 
BRANCH  21   7
ATOM      2  O   UNL     1       3.273   0.774  20.236  0.00  0.00    -0.126 OA
ATOM      3  O   UNL     1       1.755  -0.446  21.248  0.00  0.00    -0.126 OA
ATOM      7  N   UNL     1       2.846   0.168  21.246  0.00  0.00    +0.059 N 
ENDBRANCH  21   7
ENDBRANCH   5  19
BRANCH  11   8
ATOM      8  C   UNL     1      -1.794   1.361  23.747  0.00  0.00    +0.047 C 
ATOM      9  C   UNL     1      -2.503   2.052  24.928  0.00  0.00    +0.035 C 
ATOM     10  C   UNL     1      -3.874   2.505  24.398  0.00  0.00    +0.078 C 
ATOM     12  C   UNL     1      -2.509   1.942  22.563  0.00  0.00    -0.021 C 
ATOM     13  C   UNL     1      -3.643   2.556  22.920  0.00  0.00    -0.012 C 
BRANCH  10   4
ATOM      4  N   UNL     1      -4.932   1.561  24.740  0.00  0.00    -0.306 NA
ATOM     31  H   UNL     1      -5.194   1.032  23.908  0.00  0.00    +0.123 HD
BRANCH   4  16
ATOM     16  C   UNL     1      -4.488   0.630  25.771  0.00  0.00    +0.117 C 
BRANCH  16  20
ATOM      1 CL   UNL     1      -0.615  -2.853  25.590  0.00  0.00    -0.084 Cl
ATOM     20  C   UNL     1      -3.916  -0.630  25.179  0.00  0.00    -0.032 A 
ATOM     23  C   UNL     1      -2.676  -1.103  25.609  0.00  0.00    +0.025 A 
ATOM     24  C   UNL     1      -4.626  -1.326  24.201  0.00  0.00    +0.005 A 
ATOM     28  C   UNL     1      -2.147  -2.271  25.061  0.00  0.00    +0.041 A 
ATOM     29  C   UNL     1      -4.096  -2.494  23.651  0.00  0.00    +0.002 A 
ATOM     30  C   UNL     1      -2.856  -2.967  24.082  0.00  0.00    +0.020 A 
ENDBRANCH  16  20
ENDBRANCH   4  16
ENDBRANCH  10   4
ENDBRANCH  11   8
TORSDOF 6
ENDMDL
