MODEL 1
REMARK VINA RESULT:      -2.9      0.000      0.000
REMARK  Name = 75536080
REMARK  7 active torsions:
REMARK  status: ('A' for Active; 'I' for Inactive)
REMARK    1  A    between atoms: O_1  and  C_10
REMARK    2  A    between atoms: O_2  and  C_12
REMARK    3  A    between atoms: N_4  and  C_9
REMARK    4  A    between atoms: N_7  and  C_23
REMARK    5  A    between atoms: C_8  and  C_13
REMARK    6  A    between atoms: C_16  and  C_17
REMARK    7  A    between atoms: C_21  and  C_22
REMARK                            x       y       z     vdW  Elec       q    Type
REMARK                         _______ _______ _______ _____ _____    ______ ____
ROOT
ATOM      8  C   UNL     1      -2.062  -0.029  25.434  0.00  0.00    +0.046 C 
ATOM      9  C   UNL     1      -1.401  -0.833  24.291  0.00  0.00    +0.112 C 
ATOM     10  C   UNL     1      -1.803  -2.276  24.592  0.00  0.00    +0.164 C 
ATOM     11  C   UNL     1      -3.235  -0.906  25.944  0.00  0.00    +0.044 C 
ATOM     12  C   UNL     1      -3.251  -2.144  25.050  0.00  0.00    +0.145 C 
ENDROOT
BRANCH   8  13
ATOM      5  N   UNL     1      -1.987   3.740  25.017  0.00  0.00    -0.263 NA
ATOM     13  C   UNL     1      -2.463   1.370  25.019  0.00  0.00    -0.024 A 
ATOM     14  C   UNL     1      -3.624   1.595  24.288  0.00  0.00    +0.007 A 
ATOM     15  C   UNL     1      -1.685   2.466  25.355  0.00  0.00    +0.114 A 
ATOM     18  C   UNL     1      -3.968   2.892  23.922  0.00  0.00    +0.020 A 
ATOM     19  C   UNL     1      -3.123   3.920  24.307  0.00  0.00    +0.111 A 
ENDBRANCH   8  13
BRANCH   9   4
ATOM      3  O   UNL     1       0.226  -0.274  21.991  0.00  0.00    -0.268 OA
ATOM      4  N   UNL     1       0.030  -0.667  24.270  0.00  0.00    -0.304 N 
ATOM     16  C   UNL     1       0.734  -0.397  23.103  0.00  0.00    +0.264 C 
ATOM     24  H   UNL     1       0.537  -0.714  25.149  0.00  0.00    +0.149 HD
BRANCH  16  17
ATOM      6  N   UNL     1       2.931  -1.351  23.579  0.00  0.00    -0.167 NA
ATOM      7  N   UNL     1       4.187  -0.874  23.611  0.00  0.00    -0.271 N 
ATOM     17  C   UNL     1       2.208  -0.279  23.245  0.00  0.00    +0.147 A 
ATOM     20  C   UNL     1       2.996   0.873  23.063  0.00  0.00    +0.057 A 
ATOM     21  C   UNL     1       4.280   0.454  23.310  0.00  0.00    +0.037 A 
ATOM     22  C   UNL     1       5.560   1.185  23.284  0.00  0.00    +0.065 C 
ATOM     23  C   UNL     1       5.273  -1.766  23.946  0.00  0.00    +0.172 C 
ENDBRANCH  16  17
ENDBRANCH   9   4
BRANCH  10   1
ATOM      1  O   UNL     1      -1.701  -3.110  23.454  0.00  0.00    -0.387 OA
ATOM     25  H   UNL     1      -2.508  -3.651  23.414  0.00  0.00    +0.210 HD
ENDBRANCH  10   1
BRANCH  12   2
ATOM      2  O   UNL     1      -4.115  -1.897  23.944  0.00  0.00    -0.389 OA
ATOM     26  H   UNL     1      -4.811  -1.289  24.247  0.00  0.00    +0.210 HD
ENDBRANCH  12   2
TORSDOF 5
ENDMDL
MODEL 2
REMARK VINA RESULT:      -2.0      2.013      3.652
REMARK  Name = 75536080
REMARK  7 active torsions:
REMARK  status: ('A' for Active; 'I' for Inactive)
REMARK    1  A    between atoms: O_1  and  C_10
REMARK    2  A    between atoms: O_2  and  C_12
REMARK    3  A    between atoms: N_4  and  C_9
REMARK    4  A    between atoms: N_7  and  C_23
REMARK    5  A    between atoms: C_8  and  C_13
REMARK    6  A    between atoms: C_16  and  C_17
REMARK    7  A    between atoms: C_21  and  C_22
REMARK                            x       y       z     vdW  Elec       q    Type
REMARK                         _______ _______ _______ _____ _____    ______ ____
ROOT
ATOM      8  C   UNL     1      -1.916   1.009  23.562  0.00  0.00    +0.046 C 
ATOM      9  C   UNL     1      -0.998   1.618  24.648  0.00  0.00    +0.112 C 
ATOM     10  C   UNL     1      -1.155   3.123  24.444  0.00  0.00    +0.164 C 
ATOM     11  C   UNL     1      -2.953   2.110  23.222  0.00  0.00    +0.044 C 
ATOM     12  C   UNL     1      -2.643   3.280  24.153  0.00  0.00    +0.145 C 
ENDROOT
BRANCH   8  13
ATOM      5  N   UNL     1      -2.238  -2.490  24.990  0.00  0.00    -0.263 NA
ATOM     13  C   UNL     1      -2.522  -0.315  23.974  0.00  0.00    -0.024 A 
ATOM     14  C   UNL     1      -3.864  -0.592  23.738  0.00  0.00    +0.007 A 
ATOM     15  C   UNL     1      -1.759  -1.288  24.598  0.00  0.00    +0.114 A 
ATOM     18  C   UNL     1      -4.394  -1.819  24.126  0.00  0.00    +0.020 A 
ATOM     19  C   UNL     1      -3.546  -2.724  24.743  0.00  0.00    +0.111 A 
ENDBRANCH   8  13
BRANCH   9   4
ATOM      3  O   UNL     1       0.198   0.489  22.294  0.00  0.00    -0.268 OA
ATOM      4  N   UNL     1       0.371   1.195  24.497  0.00  0.00    -0.304 N 
ATOM     16  C   UNL     1       0.861   0.658  23.314  0.00  0.00    +0.264 C 
ATOM     24  H   UNL     1       1.009   1.329  25.277  0.00  0.00    +0.149 HD
BRANCH  16  17
ATOM      6  N   UNL     1       2.616  -1.007  23.654  0.00  0.00    -0.167 NA
ATOM      7  N   UNL     1       3.957  -1.007  23.559  0.00  0.00    -0.271 N 
ATOM     17  C   UNL     1       2.289   0.246  23.328  0.00  0.00    +0.147 A 
ATOM     20  C   UNL     1       3.412   1.040  23.026  0.00  0.00    +0.057 A 
ATOM     21  C   UNL     1       4.483   0.196  23.187  0.00  0.00    +0.037 A 
ATOM     22  C   UNL     1       5.930   0.424  23.021  0.00  0.00    +0.065 C 
ATOM     23  C   UNL     1       4.684  -2.221  23.848  0.00  0.00    +0.172 C 
ENDBRANCH  16  17
ENDBRANCH   9   4
BRANCH  10   1
ATOM      1  O   UNL     1      -0.778   3.863  25.590  0.00  0.00    -0.387 OA
ATOM     25  H   UNL     1      -1.198   3.443  26.360  0.00  0.00    +0.210 HD
ENDBRANCH  10   1
BRANCH  12   2
ATOM      2  O   UNL     1      -3.414   3.133  25.342  0.00  0.00    -0.389 OA
ATOM     26  H   UNL     1      -2.814   3.267  26.097  0.00  0.00    +0.210 HD
ENDBRANCH  12   2
TORSDOF 5
ENDMDL
MODEL 3
REMARK VINA RESULT:      -0.8      2.335      3.914
REMARK  Name = 75536080
REMARK  7 active torsions:
REMARK  status: ('A' for Active; 'I' for Inactive)
REMARK    1  A    between atoms: O_1  and  C_10
REMARK    2  A    between atoms: O_2  and  C_12
REMARK    3  A    between atoms: N_4  and  C_9
REMARK    4  A    between atoms: N_7  and  C_23
REMARK    5  A    between atoms: C_8  and  C_13
REMARK    6  A    between atoms: C_16  and  C_17
REMARK    7  A    between atoms: C_21  and  C_22
REMARK                            x       y       z     vdW  Elec       q    Type
REMARK                         _______ _______ _______ _____ _____    ______ ____
ROOT
ATOM      8  C   UNL     1      -2.965   1.398  23.743  0.00  0.00    +0.046 C 
ATOM      9  C   UNL     1      -1.915   2.064  24.662  0.00  0.00    +0.112 C 
ATOM     10  C   UNL     1      -2.249   3.551  24.564  0.00  0.00    +0.164 C 
ATOM     11  C   UNL     1      -4.147   2.397  23.660  0.00  0.00    +0.044 C 
ATOM     12  C   UNL     1      -3.773   3.566  24.570  0.00  0.00    +0.145 C 
ENDROOT
BRANCH   8  13
ATOM      5  N   UNL     1      -4.188  -2.191  23.638  0.00  0.00    -0.263 NA
ATOM     13  C   UNL     1      -3.354   0.008  24.198  0.00  0.00    -0.024 A 
ATOM     14  C   UNL     1      -3.252  -0.364  25.534  0.00  0.00    +0.007 A 
ATOM     15  C   UNL     1      -3.823  -0.935  23.297  0.00  0.00    +0.114 A 
ATOM     18  C   UNL     1      -3.618  -1.648  25.923  0.00  0.00    +0.020 A 
ATOM     19  C   UNL     1      -4.075  -2.516  24.945  0.00  0.00    +0.111 A 
ENDBRANCH   8  13
BRANCH   9   4
ATOM      3  O   UNL     1      -0.719  -0.527  24.340  0.00  0.00    -0.268 OA
ATOM      4  N   UNL     1      -0.567   1.786  24.233  0.00  0.00    -0.304 N 
ATOM     16  C   UNL     1      -0.076   0.493  24.106  0.00  0.00    +0.264 C 
ATOM     24  H   UNL     1       0.032   2.566  23.980  0.00  0.00    +0.149 HD
BRANCH  16  17
ATOM      6  N   UNL     1       2.007  -0.765  23.887  0.00  0.00    -0.167 NA
ATOM      7  N   UNL     1       3.225  -0.504  23.382  0.00  0.00    -0.271 N 
ATOM     17  C   UNL     1       1.342   0.375  23.678  0.00  0.00    +0.147 A 
ATOM     20  C   UNL     1       2.129   1.355  23.043  0.00  0.00    +0.057 A 
ATOM     21  C   UNL     1       3.350   0.752  22.865  0.00  0.00    +0.037 A 
ATOM     22  C   UNL     1       4.598   1.252  22.260  0.00  0.00    +0.065 C 
ATOM     23  C   UNL     1       4.242  -1.528  23.432  0.00  0.00    +0.172 C 
ENDBRANCH  16  17
ENDBRANCH   9   4
BRANCH  10   1
ATOM      1  O   UNL     1      -1.727   4.291  25.651  0.00  0.00    -0.387 OA
ATOM     25  H   UNL     1      -1.868   5.233  25.459  0.00  0.00    +0.210 HD
ENDBRANCH  10   1
BRANCH  12   2
ATOM      2  O   UNL     1      -4.280   3.307  25.876  0.00  0.00    -0.389 OA
ATOM     26  H   UNL     1      -3.689   3.746  26.511  0.00  0.00    +0.210 HD
ENDBRANCH  12   2
TORSDOF 5
ENDMDL
MODEL 4
REMARK VINA RESULT:      -0.1      3.752      5.446
REMARK  Name = 75536080
REMARK  7 active torsions:
REMARK  status: ('A' for Active; 'I' for Inactive)
REMARK    1  A    between atoms: O_1  and  C_10
REMARK    2  A    between atoms: O_2  and  C_12
REMARK    3  A    between atoms: N_4  and  C_9
REMARK    4  A    between atoms: N_7  and  C_23
REMARK    5  A    between atoms: C_8  and  C_13
REMARK    6  A    between atoms: C_16  and  C_17
REMARK    7  A    between atoms: C_21  and  C_22
REMARK                            x       y       z     vdW  Elec       q    Type
REMARK                         _______ _______ _______ _____ _____    ______ ____
ROOT
ATOM      8  C   UNL     1      -2.062   1.315  24.076  0.00  0.00    +0.046 C 
ATOM      9  C   UNL     1      -2.589   2.204  25.227  0.00  0.00    +0.112 C 
ATOM     10  C   UNL     1      -2.826   3.554  24.554  0.00  0.00    +0.164 C 
ATOM     11  C   UNL     1      -2.574   1.972  22.768  0.00  0.00    +0.044 C 
ATOM     12  C   UNL     1      -3.418   3.168  23.202  0.00  0.00    +0.145 C 
ENDROOT
BRANCH   8  13
ATOM      5  N   UNL     1      -1.766  -2.410  24.727  0.00  0.00    -0.263 NA
ATOM     13  C   UNL     1      -2.441  -0.142  24.232  0.00  0.00    -0.024 A 
ATOM     14  C   UNL     1      -3.751  -0.566  24.039  0.00  0.00    +0.007 A 
ATOM     15  C   UNL     1      -1.495  -1.095  24.573  0.00  0.00    +0.114 A 
ATOM     18  C   UNL     1      -4.070  -1.912  24.188  0.00  0.00    +0.020 A 
ATOM     19  C   UNL     1      -3.050  -2.785  24.530  0.00  0.00    +0.111 A 
ENDBRANCH   8  13
BRANCH   9   4
ATOM      3  O   UNL     1       0.266   2.412  24.996  0.00  0.00    -0.268 OA
ATOM      4  N   UNL     1      -1.643   2.302  26.310  0.00  0.00    -0.304 N 
ATOM     16  C   UNL     1      -0.274   2.400  26.099  0.00  0.00    +0.264 C 
ATOM     24  H   UNL     1      -1.997   2.337  27.261  0.00  0.00    +0.149 HD
BRANCH  16  17
ATOM      6  N   UNL     1       1.759   3.074  27.274  0.00  0.00    -0.167 NA
ATOM      7  N   UNL     1       2.218   2.940  28.530  0.00  0.00    -0.271 N 
ATOM     17  C   UNL     1       0.570   2.467  27.320  0.00  0.00    +0.147 A 
ATOM     20  C   UNL     1       0.271   1.952  28.596  0.00  0.00    +0.057 A 
ATOM     21  C   UNL     1       1.365   2.275  29.361  0.00  0.00    +0.037 A 
ATOM     22  C   UNL     1       1.665   2.015  30.781  0.00  0.00    +0.065 C 
ATOM     23  C   UNL     1       3.512   3.485  28.870  0.00  0.00    +0.172 C 
ENDBRANCH  16  17
ENDBRANCH   9   4
BRANCH  10   1
ATOM      1  O   UNL     1      -3.719   4.370  25.288  0.00  0.00    -0.387 OA
ATOM     25  H   UNL     1      -3.860   5.184  24.775  0.00  0.00    +0.210 HD
ENDBRANCH  10   1
BRANCH  12   2
ATOM      2  O   UNL     1      -4.771   2.745  23.341  0.00  0.00    -0.389 OA
ATOM     26  H   UNL     1      -4.810   1.805  23.093  0.00  0.00    +0.210 HD
ENDBRANCH  12   2
TORSDOF 5
ENDMDL
MODEL 5
REMARK VINA RESULT:       0.9     12.642     17.539
REMARK  Name = 75536080
REMARK  7 active torsions:
REMARK  status: ('A' for Active; 'I' for Inactive)
REMARK    1  A    between atoms: O_1  and  C_10
REMARK    2  A    between atoms: O_2  and  C_12
REMARK    3  A    between atoms: N_4  and  C_9
REMARK    4  A    between atoms: N_7  and  C_23
REMARK    5  A    between atoms: C_8  and  C_13
REMARK    6  A    between atoms: C_16  and  C_17
REMARK    7  A    between atoms: C_21  and  C_22
REMARK                            x       y       z     vdW  Elec       q    Type
REMARK                         _______ _______ _______ _____ _____    ______ ____
ROOT
ATOM      8  C   UNL     1      14.709   8.448  17.878  0.00  0.00    +0.046 C 
ATOM      9  C   UNL     1      13.257   7.949  17.695  0.00  0.00    +0.112 C 
ATOM     10  C   UNL     1      12.725   8.813  16.554  0.00  0.00    +0.164 C 
ATOM     11  C   UNL     1      15.107   9.092  16.525  0.00  0.00    +0.044 C 
ATOM     12  C   UNL     1      13.910   8.894  15.598  0.00  0.00    +0.145 C 
ENDROOT
BRANCH   8  13
ATOM      5  N   UNL     1      16.734   5.242  17.944  0.00  0.00    -0.263 NA
ATOM     13  C   UNL     1      15.652   7.364  18.354  0.00  0.00    -0.024 A 
ATOM     14  C   UNL     1      16.292   7.461  19.584  0.00  0.00    +0.007 A 
ATOM     15  C   UNL     1      15.905   6.245  17.578  0.00  0.00    +0.114 A 
ATOM     18  C   UNL     1      17.153   6.449  19.996  0.00  0.00    +0.020 A 
ATOM     19  C   UNL     1      17.338   5.370  19.146  0.00  0.00    +0.111 A 
ENDBRANCH   8  13
BRANCH   9   4
ATOM      3  O   UNL     1      13.082   6.092  19.879  0.00  0.00    -0.268 OA
ATOM      4  N   UNL     1      12.476   8.105  18.896  0.00  0.00    -0.304 N 
ATOM     16  C   UNL     1      12.454   7.148  19.903  0.00  0.00    +0.264 C 
ATOM     24  H   UNL     1      11.951   8.965  19.025  0.00  0.00    +0.149 HD
BRANCH  16  17
ATOM      6  N   UNL     1      10.516   6.676  21.311  0.00  0.00    -0.167 NA
ATOM      7  N   UNL     1       9.982   7.235  22.411  0.00  0.00    -0.271 N 
ATOM     17  C   UNL     1      11.579   7.446  21.065  0.00  0.00    +0.147 A 
ATOM     20  C   UNL     1      11.724   8.488  22.001  0.00  0.00    +0.057 A 
ATOM     21  C   UNL     1      10.668   8.324  22.864  0.00  0.00    +0.037 A 
ATOM     22  C   UNL     1      10.261   9.093  24.055  0.00  0.00    +0.065 C 
ATOM     23  C   UNL     1       8.787   6.661  22.985  0.00  0.00    +0.172 C 
ENDBRANCH  16  17
ENDBRANCH   9   4
BRANCH  10   1
ATOM      1  O   UNL     1      11.598   8.235  15.922  0.00  0.00    -0.387 OA
ATOM     25  H   UNL     1      11.065   7.805  16.612  0.00  0.00    +0.210 HD
ENDBRANCH  10   1
BRANCH  12   2
ATOM      2  O   UNL     1      14.079   7.667  14.892  0.00  0.00    -0.389 OA
ATOM     26  H   UNL     1      14.214   6.966  15.553  0.00  0.00    +0.210 HD
ENDBRANCH  12   2
TORSDOF 5
ENDMDL
