MODEL 1
REMARK VINA RESULT:       2.6      0.000      0.000
REMARK  Name = 38028898
REMARK  12 active torsions:
REMARK  status: ('A' for Active; 'I' for Inactive)
REMARK    1  A    between atoms: S_1  and  N_5
REMARK    2  A    between atoms: S_1  and  C_26
REMARK    3  A    between atoms: N_5  and  C_16
REMARK    4  A    between atoms: C_9  and  C_13
REMARK    5  A    between atoms: C_10  and  C_16
REMARK    6  A    between atoms: C_12  and  C_17
REMARK    7  A    between atoms: C_13  and  C_18
REMARK    8  A    between atoms: C_13  and  C_19
REMARK    9  A    between atoms: C_14  and  C_20
REMARK   10  A    between atoms: C_17  and  C_21
REMARK   11  A    between atoms: C_26  and  C_27
REMARK   12  A    between atoms: C_27  and  C_29
REMARK                            x       y       z     vdW  Elec       q    Type
REMARK                         _______ _______ _______ _____ _____    ______ ____
ROOT
ATOM      9  C   UNL     1      -3.512   2.053  23.949  0.00  0.00    +0.000 C 
ATOM     10  C   UNL     1      -4.281   3.273  24.515  0.00  0.00    +0.030 C 
ATOM     11  C   UNL     1      -4.452   0.846  23.803  0.00  0.00    +0.012 C 
ATOM     12  C   UNL     1      -5.092   0.441  25.145  0.00  0.00    +0.023 C 
ATOM     14  C   UNL     1      -5.640   1.640  25.893  0.00  0.00    -0.073 C 
ATOM     15  C   UNL     1      -5.276   2.899  25.588  0.00  0.00    -0.023 C 
ATOM     20  C   UNL     1      -6.652   1.362  26.970  0.00  0.00    +0.039 C 
ENDROOT
BRANCH   9  13
ATOM     13  C   UNL     1      -2.859   2.367  22.599  0.00  0.00    -0.013 C 
ATOM     18  C   UNL     1      -2.504   1.077  21.866  0.00  0.00    +0.007 C 
ATOM     19  C   UNL     1      -3.782   3.235  21.751  0.00  0.00    +0.007 C 
ENDBRANCH   9  13
BRANCH  10  16
ATOM     16  C   UNL     1      -3.314   4.330  25.060  0.00  0.00    +0.113 C 
BRANCH  16   5
ATOM      5  N   UNL     1      -2.102   3.664  25.557  0.00  0.00    -0.194 NA
ATOM     34  H   UNL     1      -2.099   3.509  26.573  0.00  0.00    +0.148 HD
BRANCH   5   1
ATOM      1  S   UNL     1      -0.588   4.062  24.871  0.00  0.00    +0.029 S 
ATOM      3  O   UNL     1      -0.373   5.494  24.957  0.00  0.00    -0.158 OA
ATOM      4  O   UNL     1      -0.457   3.368  23.606  0.00  0.00    -0.158 OA
BRANCH   1  26
ATOM     26  C   UNL     1       0.509   3.274  26.026  0.00  0.00    +0.185 C 
BRANCH  26  27
ATOM     27  C   UNL     1      -0.250   2.723  27.223  0.00  0.00    +0.021 C 
ATOM     29  C   UNL     1       0.689   2.392  28.372  0.00  0.00    +0.005 C 
ENDBRANCH  26  27
ENDBRANCH   1  26
ENDBRANCH   5   1
ENDBRANCH  16   5
ENDBRANCH  10  16
BRANCH  12  17
ATOM     17  C   UNL     1      -4.102  -0.342  26.014  0.00  0.00    +0.103 C 
BRANCH  17  21
ATOM      2  O   UNL     1      -3.988  -2.440  24.908  0.00  0.00    -0.276 OA
ATOM      6  N   UNL     1      -2.106  -1.084  24.770  0.00  0.00    -0.298 N 
ATOM      7  N   UNL     1       0.505  -0.465  23.683  0.00  0.00    -0.312 N 
ATOM      8  N   UNL     1       2.774   0.125  23.966  0.00  0.00    -0.240 NA
ATOM     21  C   UNL     1      -3.403  -1.389  25.181  0.00  0.00    +0.216 C 
ATOM     22  C   UNL     1      -1.361  -2.047  23.963  0.00  0.00    +0.126 C 
ATOM     23  C   UNL     1      -1.419   0.171  25.086  0.00  0.00    +0.126 C 
ATOM     24  C   UNL     1      -0.419  -1.359  22.978  0.00  0.00    +0.125 C 
ATOM     25  C   UNL     1       0.103   0.051  24.993  0.00  0.00    +0.125 C 
ATOM     28  C   UNL     1       1.745  -0.147  23.133  0.00  0.00    +0.121 A 
ATOM     30  C   UNL     1       1.840  -0.131  21.750  0.00  0.00    +0.043 A 
ATOM     31  C   UNL     1       3.071   0.186  21.187  0.00  0.00    +0.005 A 
ATOM     32  C   UNL     1       3.954   0.428  23.383  0.00  0.00    +0.113 A 
ATOM     33  C   UNL     1       4.154   0.472  22.012  0.00  0.00    +0.020 A 
ENDBRANCH  17  21
ENDBRANCH  12  17
TORSDOF 8
ENDMDL
MODEL 2
REMARK VINA RESULT:       4.4      2.147      4.604
REMARK  Name = 38028898
REMARK  12 active torsions:
REMARK  status: ('A' for Active; 'I' for Inactive)
REMARK    1  A    between atoms: S_1  and  N_5
REMARK    2  A    between atoms: S_1  and  C_26
REMARK    3  A    between atoms: N_5  and  C_16
REMARK    4  A    between atoms: C_9  and  C_13
REMARK    5  A    between atoms: C_10  and  C_16
REMARK    6  A    between atoms: C_12  and  C_17
REMARK    7  A    between atoms: C_13  and  C_18
REMARK    8  A    between atoms: C_13  and  C_19
REMARK    9  A    between atoms: C_14  and  C_20
REMARK   10  A    between atoms: C_17  and  C_21
REMARK   11  A    between atoms: C_26  and  C_27
REMARK   12  A    between atoms: C_27  and  C_29
REMARK                            x       y       z     vdW  Elec       q    Type
REMARK                         _______ _______ _______ _____ _____    ______ ____
ROOT
ATOM      9  C   UNL     1      -4.714   2.517  25.263  0.00  0.00    +0.000 C 
ATOM     10  C   UNL     1      -4.399   2.319  23.759  0.00  0.00    +0.030 C 
ATOM     11  C   UNL     1      -5.312   3.910  25.507  0.00  0.00    +0.012 C 
ATOM     12  C   UNL     1      -4.365   5.039  25.054  0.00  0.00    +0.023 C 
ATOM     14  C   UNL     1      -3.799   4.777  23.673  0.00  0.00    -0.073 C 
ATOM     15  C   UNL     1      -3.835   3.558  23.104  0.00  0.00    -0.023 C 
ATOM     20  C   UNL     1      -3.230   5.960  22.939  0.00  0.00    +0.039 C 
ENDROOT
BRANCH   9  13
ATOM     13  C   UNL     1      -5.670   1.442  25.791  0.00  0.00    -0.013 C 
ATOM     18  C   UNL     1      -6.227   1.848  27.151  0.00  0.00    +0.007 C 
ATOM     19  C   UNL     1      -6.798   1.199  24.794  0.00  0.00    +0.007 C 
ENDBRANCH   9  13
BRANCH  10  16
ATOM     16  C   UNL     1      -3.436   1.145  23.545  0.00  0.00    +0.113 C 
BRANCH  16   5
ATOM      5  N   UNL     1      -4.206  -0.106  23.489  0.00  0.00    -0.194 NA
ATOM     34  H   UNL     1      -5.224   0.035  23.446  0.00  0.00    +0.148 HD
BRANCH   5   1
ATOM      1  S   UNL     1      -3.689  -1.448  24.410  0.00  0.00    +0.029 S 
ATOM      3  O   UNL     1      -4.371  -2.646  23.957  0.00  0.00    -0.158 OA
ATOM      4  O   UNL     1      -3.694  -1.077  25.811  0.00  0.00    -0.158 OA
BRANCH   1  26
ATOM     26  C   UNL     1      -1.991  -1.559  23.896  0.00  0.00    +0.185 C 
BRANCH  26  27
ATOM     27  C   UNL     1      -1.254  -2.653  24.653  0.00  0.00    +0.021 C 
ATOM     29  C   UNL     1      -0.267  -2.069  25.651  0.00  0.00    +0.005 C 
ENDBRANCH  26  27
ENDBRANCH   1  26
ENDBRANCH   5   1
ENDBRANCH  16   5
ENDBRANCH  10  16
BRANCH  12  17
ATOM     17  C   UNL     1      -3.242   5.260  26.074  0.00  0.00    +0.103 C 
BRANCH  17  21
ATOM      2  O   UNL     1      -3.271   3.423  27.578  0.00  0.00    -0.276 OA
ATOM      6  N   UNL     1      -1.686   3.357  25.879  0.00  0.00    -0.298 N 
ATOM      7  N   UNL     1       0.357   1.974  24.364  0.00  0.00    -0.312 N 
ATOM      8  N   UNL     1       2.522   1.875  23.427  0.00  0.00    -0.240 NA
ATOM     21  C   UNL     1      -2.743   3.931  26.585  0.00  0.00    +0.216 C 
ATOM     22  C   UNL     1      -1.143   2.072  26.314  0.00  0.00    +0.126 C 
ATOM     23  C   UNL     1      -1.069   3.957  24.694  0.00  0.00    +0.126 C 
ATOM     24  C   UNL     1      -0.645   1.235  25.138  0.00  0.00    +0.125 C 
ATOM     25  C   UNL     1       0.346   3.437  24.436  0.00  0.00    +0.125 C 
ATOM     28  C   UNL     1       1.314   1.297  23.611  0.00  0.00    +0.121 A 
ATOM     30  C   UNL     1       0.957   0.061  23.096  0.00  0.00    +0.043 A 
ATOM     31  C   UNL     1       1.902  -0.625  22.341  0.00  0.00    +0.005 A 
ATOM     32  C   UNL     1       3.414   1.178  22.688  0.00  0.00    +0.113 A 
ATOM     33  C   UNL     1       3.156  -0.063  22.128  0.00  0.00    +0.020 A 
ENDBRANCH  17  21
ENDBRANCH  12  17
TORSDOF 8
ENDMDL
MODEL 3
REMARK VINA RESULT:       5.6      2.018      4.727
REMARK  Name = 38028898
REMARK  12 active torsions:
REMARK  status: ('A' for Active; 'I' for Inactive)
REMARK    1  A    between atoms: S_1  and  N_5
REMARK    2  A    between atoms: S_1  and  C_26
REMARK    3  A    between atoms: N_5  and  C_16
REMARK    4  A    between atoms: C_9  and  C_13
REMARK    5  A    between atoms: C_10  and  C_16
REMARK    6  A    between atoms: C_12  and  C_17
REMARK    7  A    between atoms: C_13  and  C_18
REMARK    8  A    between atoms: C_13  and  C_19
REMARK    9  A    between atoms: C_14  and  C_20
REMARK   10  A    between atoms: C_17  and  C_21
REMARK   11  A    between atoms: C_26  and  C_27
REMARK   12  A    between atoms: C_27  and  C_29
REMARK                            x       y       z     vdW  Elec       q    Type
REMARK                         _______ _______ _______ _____ _____    ______ ____
ROOT
ATOM      9  C   UNL     1      -4.638   2.468  25.434  0.00  0.00    +0.000 C 
ATOM     10  C   UNL     1      -4.327   1.114  24.749  0.00  0.00    +0.030 C 
ATOM     11  C   UNL     1      -5.007   3.528  24.386  0.00  0.00    +0.012 C 
ATOM     12  C   UNL     1      -3.880   3.749  23.359  0.00  0.00    +0.023 C 
ATOM     14  C   UNL     1      -3.333   2.437  22.832  0.00  0.00    -0.073 C 
ATOM     15  C   UNL     1      -3.555   1.268  23.459  0.00  0.00    -0.023 C 
ATOM     20  C   UNL     1      -2.564   2.494  21.542  0.00  0.00    +0.039 C 
ENDROOT
BRANCH   9  13
ATOM     13  C   UNL     1      -5.767   2.340  26.462  0.00  0.00    -0.013 C 
ATOM     18  C   UNL     1      -6.632   3.596  26.463  0.00  0.00    +0.007 C 
ATOM     19  C   UNL     1      -6.611   1.102  26.172  0.00  0.00    +0.007 C 
ENDBRANCH   9  13
BRANCH  10  16
ATOM     16  C   UNL     1      -3.562   0.179  25.694  0.00  0.00    +0.113 C 
BRANCH  16   5
ATOM      5  N   UNL     1      -2.186   0.018  25.202  0.00  0.00    -0.194 NA
ATOM     34  H   UNL     1      -1.915   0.710  24.492  0.00  0.00    +0.148 HD
BRANCH   5   1
ATOM      1  S   UNL     1      -1.561  -1.556  24.970  0.00  0.00    +0.029 S 
ATOM      3  O   UNL     1      -0.503  -1.809  25.928  0.00  0.00    -0.158 OA
ATOM      4  O   UNL     1      -1.342  -1.761  23.552  0.00  0.00    -0.158 OA
BRANCH   1  26
ATOM     26  C   UNL     1      -2.968  -2.536  25.437  0.00  0.00    +0.185 C 
BRANCH  26  27
ATOM     27  C   UNL     1      -3.589  -3.223  24.231  0.00  0.00    +0.021 C 
ATOM     29  C   UNL     1      -4.630  -2.339  23.563  0.00  0.00    +0.005 C 
ENDBRANCH  26  27
ENDBRANCH   1  26
ENDBRANCH   5   1
ENDBRANCH  16   5
ENDBRANCH  10  16
BRANCH  12  17
ATOM     17  C   UNL     1      -2.760   4.614  23.946  0.00  0.00    +0.103 C 
BRANCH  17  21
ATOM      2  O   UNL     1      -2.503   3.841  26.177  0.00  0.00    -0.276 OA
ATOM      6  N   UNL     1      -0.865   3.204  24.656  0.00  0.00    -0.298 N 
ATOM      7  N   UNL     1       1.463   1.640  23.937  0.00  0.00    -0.312 N 
ATOM      8  N   UNL     1       3.645   1.473  23.049  0.00  0.00    -0.240 NA
ATOM     21  C   UNL     1      -2.040   3.854  25.033  0.00  0.00    +0.216 C 
ATOM     22  C   UNL     1      -0.108   2.449  25.652  0.00  0.00    +0.126 C 
ATOM     23  C   UNL     1      -0.324   3.211  23.295  0.00  0.00    +0.126 C 
ATOM     24  C   UNL     1       0.587   1.235  25.041  0.00  0.00    +0.125 C 
ATOM     25  C   UNL     1       1.173   2.902  23.252  0.00  0.00    +0.125 C 
ATOM     28  C   UNL     1       2.561   0.861  23.579  0.00  0.00    +0.121 A 
ATOM     30  C   UNL     1       2.466  -0.505  23.791  0.00  0.00    +0.043 A 
ATOM     31  C   UNL     1       3.554  -1.295  23.437  0.00  0.00    +0.005 A 
ATOM     32  C   UNL     1       4.682   0.672  22.717  0.00  0.00    +0.113 A 
ATOM     33  C   UNL     1       4.687  -0.703  22.889  0.00  0.00    +0.020 A 
ENDBRANCH  17  21
ENDBRANCH  12  17
TORSDOF 8
ENDMDL
