MODEL 1
REMARK VINA RESULT:       4.5      0.000      0.000
REMARK  Name = 11882066
REMARK  12 active torsions:
REMARK  status: ('A' for Active; 'I' for Inactive)
REMARK    1  A    between atoms: S_2  and  C_33
REMARK    2  A    between atoms: S_2  and  C_36
REMARK    3  A    between atoms: N_8  and  C_12
REMARK    4  A    between atoms: N_9  and  C_18
REMARK    5  A    between atoms: N_10  and  C_25
REMARK    6  A    between atoms: C_13  and  C_16
REMARK    7  A    between atoms: C_17  and  C_20
REMARK    8  A    between atoms: C_18  and  C_21
REMARK    9  A    between atoms: C_18  and  C_22
REMARK   10  A    between atoms: C_21  and  C_24
REMARK   11  A    between atoms: C_23  and  C_26
REMARK   12  A    between atoms: C_23  and  C_27
REMARK                            x       y       z     vdW  Elec       q    Type
REMARK                         _______ _______ _______ _____ _____    ______ ____
ROOT
ATOM      4  O   UNL     1      -1.381   3.028  27.400  0.00  0.00    -0.271 OA
ATOM      7  N   UNL     1      -1.498   2.155  25.260  0.00  0.00    -0.285 N 
ATOM     12  C   UNL     1      -0.965   0.966  23.273  0.00  0.00    +0.105 C 
ATOM     13  C   UNL     1      -1.600   2.256  23.802  0.00  0.00    +0.182 C 
ATOM     14  C   UNL     1      -1.198  -0.034  24.407  0.00  0.00    +0.043 C 
ATOM     15  C   UNL     1      -1.086   0.816  25.663  0.00  0.00    +0.111 C 
ATOM     17  C   UNL     1      -1.611   3.167  26.198  0.00  0.00    +0.240 C 
ENDROOT
BRANCH  12   8
ATOM      5  O   UNL     1       1.151  -0.790  24.074  0.00  0.00    -0.252 OA
ATOM      8  N   UNL     1       0.446   1.144  23.021  0.00  0.00    -0.294 N 
ATOM     10  N   UNL     1       2.691   0.667  23.065  0.00  0.00    -0.269 N 
ATOM     19  C   UNL     1       1.420   0.234  23.450  0.00  0.00    +0.304 C 
ATOM     37  H   UNL     1       0.741   1.931  22.452  0.00  0.00    +0.151 HD
ATOM     39  H   UNL     1       2.739   1.543  22.550  0.00  0.00    +0.156 HD
BRANCH  10  25
ATOM     25  C   UNL     1       3.933   0.033  23.304  0.00  0.00    +0.036 A 
ATOM     29  C   UNL     1       5.106   0.787  23.343  0.00  0.00    +0.038 A 
ATOM     30  C   UNL     1       3.984  -1.347  23.501  0.00  0.00    +0.023 A 
ATOM     33  C   UNL     1       6.329   0.162  23.579  0.00  0.00    +0.009 A 
ATOM     34  C   UNL     1       5.209  -1.973  23.738  0.00  0.00    +0.003 A 
ATOM     35  C   UNL     1       6.381  -1.219  23.777  0.00  0.00    +0.015 A 
BRANCH  33   2
ATOM      2  S   UNL     1       7.829   1.125  23.631  0.00  0.00    -0.129 S 
ATOM     36  C   UNL     1       9.069  -0.097  23.119  0.00  0.00    +0.090 C 
ENDBRANCH  33   2
ENDBRANCH  10  25
ENDBRANCH  12   8
BRANCH  13  16
ATOM      3  O   UNL     1      -3.453   2.614  22.337  0.00  0.00    -0.274 OA
ATOM      9  N   UNL     1      -3.863   1.975  24.538  0.00  0.00    -0.302 N 
ATOM     16  C   UNL     1      -3.060   2.299  23.458  0.00  0.00    +0.236 C 
ATOM     38  H   UNL     1      -3.424   1.715  25.417  0.00  0.00    +0.150 HD
BRANCH   9  18
ATOM     18  C   UNL     1      -5.306   1.966  24.475  0.00  0.00    +0.163 C 
BRANCH  18  22
ATOM      6  O   UNL     1      -5.695   4.037  25.686  0.00  0.00    -0.274 OA
ATOM     11  N   UNL     1      -6.457   2.071  26.599  0.00  0.00    -0.328 N 
ATOM     22  C   UNL     1      -5.810   2.815  25.634  0.00  0.00    +0.231 C 
ATOM     40  H   UNL     1      -6.854   2.518  27.419  0.00  0.00    +0.145 HD
ATOM     41  H   UNL     1      -6.555   1.063  26.539  0.00  0.00    +0.145 HD
ENDBRANCH  18  22
BRANCH  18  21
ATOM     21  C   UNL     1      -5.884   0.548  24.562  0.00  0.00    +0.074 C 
BRANCH  21  24
ATOM      1  S   UNL     1      -4.370  -1.651  23.764  0.00  0.00    -0.102 S 
ATOM     24  C   UNL     1      -4.835  -0.478  24.922  0.00  0.00    -0.008 A 
ATOM     28  C   UNL     1      -4.154  -0.626  26.110  0.00  0.00    +0.011 A 
ATOM     31  C   UNL     1      -3.238  -1.717  26.070  0.00  0.00    +0.008 A 
ATOM     32  C   UNL     1      -3.254  -2.361  24.852  0.00  0.00    +0.045 A 
ENDBRANCH  21  24
ENDBRANCH  18  21
ENDBRANCH   9  18
ENDBRANCH  13  16
BRANCH  17  20
ATOM     20  C   UNL     1      -2.036   4.494  25.712  0.00  0.00    +0.066 C 
ATOM     23  C   UNL     1      -1.312   5.280  24.897  0.00  0.00    -0.071 C 
ATOM     26  C   UNL     1      -1.711   6.635  24.381  0.00  0.00    +0.039 C 
ATOM     27  C   UNL     1       0.039   4.816  24.417  0.00  0.00    +0.039 C 
ENDBRANCH  17  20
TORSDOF 9
ENDMDL
MODEL 2
REMARK VINA RESULT:       7.1      1.996      4.566
REMARK  Name = 11882066
REMARK  12 active torsions:
REMARK  status: ('A' for Active; 'I' for Inactive)
REMARK    1  A    between atoms: S_2  and  C_33
REMARK    2  A    between atoms: S_2  and  C_36
REMARK    3  A    between atoms: N_8  and  C_12
REMARK    4  A    between atoms: N_9  and  C_18
REMARK    5  A    between atoms: N_10  and  C_25
REMARK    6  A    between atoms: C_13  and  C_16
REMARK    7  A    between atoms: C_17  and  C_20
REMARK    8  A    between atoms: C_18  and  C_21
REMARK    9  A    between atoms: C_18  and  C_22
REMARK   10  A    between atoms: C_21  and  C_24
REMARK   11  A    between atoms: C_23  and  C_26
REMARK   12  A    between atoms: C_23  and  C_27
REMARK                            x       y       z     vdW  Elec       q    Type
REMARK                         _______ _______ _______ _____ _____    ______ ____
ROOT
ATOM      4  O   UNL     1      -4.617  -2.109  22.538  0.00  0.00    -0.271 OA
ATOM      7  N   UNL     1      -3.461  -0.269  23.334  0.00  0.00    -0.285 N 
ATOM     12  C   UNL     1      -1.952   1.561  23.481  0.00  0.00    +0.105 C 
ATOM     13  C   UNL     1      -2.595   0.429  24.288  0.00  0.00    +0.182 C 
ATOM     14  C   UNL     1      -2.989   1.853  22.394  0.00  0.00    +0.043 C 
ATOM     15  C   UNL     1      -3.588   0.488  22.095  0.00  0.00    +0.111 C 
ATOM     17  C   UNL     1      -4.006  -1.537  23.441  0.00  0.00    +0.240 C 
ENDROOT
BRANCH  12   8
ATOM      5  O   UNL     1       0.305   0.487  24.879  0.00  0.00    -0.252 OA
ATOM      8  N   UNL     1      -0.698   1.142  22.901  0.00  0.00    -0.294 N 
ATOM     10  N   UNL     1       1.440   0.309  22.831  0.00  0.00    -0.269 N 
ATOM     19  C   UNL     1       0.360   0.626  23.659  0.00  0.00    +0.304 C 
ATOM     37  H   UNL     1      -0.600   1.162  21.891  0.00  0.00    +0.151 HD
ATOM     39  H   UNL     1       1.321   0.488  21.838  0.00  0.00    +0.156 HD
BRANCH  10  25
ATOM     25  C   UNL     1       2.691  -0.234  23.207  0.00  0.00    +0.036 A 
ATOM     29  C   UNL     1       3.822   0.581  23.245  0.00  0.00    +0.038 A 
ATOM     30  C   UNL     1       2.793  -1.585  23.539  0.00  0.00    +0.023 A 
ATOM     33  C   UNL     1       5.055   0.046  23.616  0.00  0.00    +0.009 A 
ATOM     34  C   UNL     1       4.027  -2.120  23.910  0.00  0.00    +0.003 A 
ATOM     35  C   UNL     1       5.157  -1.306  23.949  0.00  0.00    +0.015 A 
BRANCH  33   2
ATOM      2  S   UNL     1       6.501   1.088  23.668  0.00  0.00    -0.129 S 
ATOM     36  C   UNL     1       7.821  -0.095  23.274  0.00  0.00    +0.090 C 
ENDBRANCH  33   2
ENDBRANCH  10  25
ENDBRANCH  12   8
BRANCH  13  16
ATOM      3  O   UNL     1      -4.090   0.263  26.143  0.00  0.00    -0.274 OA
ATOM      9  N   UNL     1      -3.520   2.373  25.342  0.00  0.00    -0.302 N 
ATOM     16  C   UNL     1      -3.478   0.989  25.365  0.00  0.00    +0.236 C 
ATOM     38  H   UNL     1      -2.956   2.871  24.658  0.00  0.00    +0.150 HD
BRANCH   9  18
ATOM     18  C   UNL     1      -4.314   3.155  26.261  0.00  0.00    +0.163 C 
BRANCH  18  22
ATOM      6  O   UNL     1      -6.188   4.510  25.512  0.00  0.00    -0.274 OA
ATOM     11  N   UNL     1      -6.194   2.264  25.029  0.00  0.00    -0.328 N 
ATOM     22  C   UNL     1      -5.657   3.404  25.589  0.00  0.00    +0.231 C 
ATOM     40  H   UNL     1      -7.081   2.296  24.537  0.00  0.00    +0.145 HD
ATOM     41  H   UNL     1      -5.741   1.359  25.090  0.00  0.00    +0.145 HD
ENDBRANCH  18  22
BRANCH  18  21
ATOM     21  C   UNL     1      -3.644   4.485  26.624  0.00  0.00    +0.074 C 
BRANCH  21  24
ATOM      1  S   UNL     1      -1.089   3.519  26.073  0.00  0.00    -0.102 S 
ATOM     24  C   UNL     1      -2.333   4.684  25.900  0.00  0.00    -0.008 A 
ATOM     28  C   UNL     1      -1.959   5.720  25.073  0.00  0.00    +0.011 A 
ATOM     31  C   UNL     1      -0.635   5.557  24.574  0.00  0.00    +0.008 A 
ATOM     32  C   UNL     1      -0.047   4.401  25.038  0.00  0.00    +0.045 A 
ENDBRANCH  21  24
ENDBRANCH  18  21
ENDBRANCH   9  18
ENDBRANCH  13  16
BRANCH  17  20
ATOM     20  C   UNL     1      -3.838  -2.238  24.729  0.00  0.00    +0.066 C 
ATOM     23  C   UNL     1      -2.690  -2.792  25.156  0.00  0.00    -0.071 C 
ATOM     26  C   UNL     1      -2.479  -3.513  26.458  0.00  0.00    +0.039 C 
ATOM     27  C   UNL     1      -1.458  -2.720  24.291  0.00  0.00    +0.039 C 
ENDBRANCH  17  20
TORSDOF 9
ENDMDL
