MODEL 1
REMARK VINA RESULT:      -4.5      0.000      0.000
REMARK  Name = 75536535
REMARK  7 active torsions:
REMARK  status: ('A' for Active; 'I' for Inactive)
REMARK    1  A    between atoms: O_2  and  C_9
REMARK    2  A    between atoms: N_5  and  C_8
REMARK    3  A    between atoms: N_5  and  C_10
REMARK    4  A    between atoms: N_7  and  C_18
REMARK    5  A    between atoms: C_11  and  C_18
REMARK    6  A    between atoms: C_12  and  C_21
REMARK    7  A    between atoms: C_22  and  C_23
REMARK                            x       y       z     vdW  Elec       q    Type
REMARK                         _______ _______ _______ _____ _____    ______ ____
ROOT
ATOM      1  O   UNL     1      -4.536   3.425  26.559  0.00  0.00    -0.371 OA
ATOM      8  C   UNL     1      -3.114   4.190  24.817  0.00  0.00    +0.111 C 
ATOM      9  C   UNL     1      -3.958   3.040  24.298  0.00  0.00    +0.164 C 
ATOM     11  C   UNL     1      -5.108   3.047  25.295  0.00  0.00    +0.165 C 
ATOM     15  C   UNL     1      -3.240   4.001  26.320  0.00  0.00    +0.181 C 
ENDROOT
BRANCH   9   2
ATOM      2  O   UNL     1      -4.408   3.248  22.973  0.00  0.00    -0.388 OA
ATOM     26  H   UNL     1      -5.257   2.788  22.863  0.00  0.00    +0.210 HD
ENDBRANCH   9   2
BRANCH   8   5
ATOM      5  N   UNL     1      -1.736   4.157  24.356  0.00  0.00    -0.306 NA
ATOM     24  H   UNL     1      -1.167   4.806  24.900  0.00  0.00    +0.123 HD
BRANCH   5  10
ATOM      4  O   UNL     1       2.769   0.224  22.925  0.00  0.00    -0.276 OA
ATOM      6  N   UNL     1       0.568   0.725  23.476  0.00  0.00    -0.302 N 
ATOM     10  C   UNL     1      -1.187   2.807  24.458  0.00  0.00    +0.057 C 
ATOM     16  C   UNL     1      -1.521   2.005  23.194  0.00  0.00    +0.037 C 
ATOM     17  C   UNL     1       0.331   2.870  24.669  0.00  0.00    +0.037 C 
ATOM     19  C   UNL     1      -0.877   0.620  23.237  0.00  0.00    +0.109 C 
ATOM     20  C   UNL     1       0.937   1.467  24.683  0.00  0.00    +0.109 C 
ATOM     22  C   UNL     1       1.562   0.152  22.683  0.00  0.00    +0.212 C 
ATOM     23  C   UNL     1       1.099  -0.594  21.456  0.00  0.00    +0.109 C 
ENDBRANCH   5  10
ENDBRANCH   8   5
BRANCH  11  18
ATOM     18  C   UNL     1      -5.798   1.700  25.427  0.00  0.00    +0.138 C 
BRANCH  18   7
ATOM      3  O   UNL     1      -3.955  -0.423  26.170  0.00  0.00    -0.276 OA
ATOM      7  N   UNL     1      -5.199   0.722  24.566  0.00  0.00    -0.313 N 
ATOM     21  C   UNL     1      -4.326  -0.260  25.013  0.00  0.00    +0.216 C 
ATOM     25  H   UNL     1      -5.434   0.757  23.578  0.00  0.00    +0.149 HD
BRANCH  21  12
ATOM     12  C   UNL     1      -3.826  -1.174  23.944  0.00  0.00    +0.075 C 
ATOM     13  C   UNL     1      -2.903  -2.282  24.329  0.00  0.00    +0.013 C 
ATOM     14  C   UNL     1      -4.316  -2.584  23.926  0.00  0.00    +0.013 C 
ENDBRANCH  21  12
ENDBRANCH  18   7
ENDBRANCH  11  18
TORSDOF 6
ENDMDL
MODEL 2
REMARK VINA RESULT:      -4.4      2.166      4.451
REMARK  Name = 75536535
REMARK  7 active torsions:
REMARK  status: ('A' for Active; 'I' for Inactive)
REMARK    1  A    between atoms: O_2  and  C_9
REMARK    2  A    between atoms: N_5  and  C_8
REMARK    3  A    between atoms: N_5  and  C_10
REMARK    4  A    between atoms: N_7  and  C_18
REMARK    5  A    between atoms: C_11  and  C_18
REMARK    6  A    between atoms: C_12  and  C_21
REMARK    7  A    between atoms: C_22  and  C_23
REMARK                            x       y       z     vdW  Elec       q    Type
REMARK                         _______ _______ _______ _____ _____    ______ ____
ROOT
ATOM      1  O   UNL     1      -0.884   3.507  26.580  0.00  0.00    -0.371 OA
ATOM      8  C   UNL     1       0.363   2.326  24.940  0.00  0.00    +0.111 C 
ATOM      9  C   UNL     1      -0.597   3.273  24.244  0.00  0.00    +0.164 C 
ATOM     11  C   UNL     1      -0.889   4.267  25.359  0.00  0.00    +0.165 C 
ATOM     15  C   UNL     1      -0.251   2.241  26.328  0.00  0.00    +0.181 C 
ENDROOT
BRANCH   9   2
ATOM      2  O   UNL     1      -0.023   3.900  23.115  0.00  0.00    -0.388 OA
ATOM     26  H   UNL     1      -0.081   3.288  22.362  0.00  0.00    +0.210 HD
ENDBRANCH   9   2
BRANCH   8   5
ATOM      5  N   UNL     1       0.478   1.030  24.292  0.00  0.00    -0.306 NA
ATOM     24  H   UNL     1       1.439   0.692  24.349  0.00  0.00    +0.123 HD
BRANCH   5  10
ATOM      4  O   UNL     1      -3.093  -3.933  23.635  0.00  0.00    -0.276 OA
ATOM      6  N   UNL     1      -2.510  -1.935  24.668  0.00  0.00    -0.302 N 
ATOM     10  C   UNL     1      -0.427   0.061  24.906  0.00  0.00    +0.057 C 
ATOM     16  C   UNL     1      -1.884   0.450  24.625  0.00  0.00    +0.037 C 
ATOM     17  C   UNL     1      -0.134  -1.346  24.371  0.00  0.00    +0.037 C 
ATOM     19  C   UNL     1      -2.848  -0.600  25.177  0.00  0.00    +0.109 C 
ATOM     20  C   UNL     1      -1.133  -2.359  24.929  0.00  0.00    +0.109 C 
ATOM     22  C   UNL     1      -3.392  -2.800  24.021  0.00  0.00    +0.212 C 
ATOM     23  C   UNL     1      -4.791  -2.287  23.788  0.00  0.00    +0.109 C 
ENDBRANCH   5  10
ENDBRANCH   8   5
BRANCH  11  18
ATOM     18  C   UNL     1      -2.224   4.974  25.200  0.00  0.00    +0.138 C 
BRANCH  18   7
ATOM      3  O   UNL     1      -4.028   3.244  23.714  0.00  0.00    -0.276 OA
ATOM      7  N   UNL     1      -3.300   4.180  25.719  0.00  0.00    -0.313 N 
ATOM     21  C   UNL     1      -4.112   3.380  24.929  0.00  0.00    +0.216 C 
ATOM     25  H   UNL     1      -3.466   4.212  26.721  0.00  0.00    +0.149 HD
BRANCH  21  12
ATOM     12  C   UNL     1      -5.168   2.639  25.681  0.00  0.00    +0.075 C 
ATOM     13  C   UNL     1      -6.382   2.184  24.942  0.00  0.00    +0.013 C 
ATOM     14  C   UNL     1      -5.358   1.187  25.397  0.00  0.00    +0.013 C 
ENDBRANCH  21  12
ENDBRANCH  18   7
ENDBRANCH  11  18
TORSDOF 6
ENDMDL
MODEL 3
REMARK VINA RESULT:      -4.4      2.283      4.905
REMARK  Name = 75536535
REMARK  7 active torsions:
REMARK  status: ('A' for Active; 'I' for Inactive)
REMARK    1  A    between atoms: O_2  and  C_9
REMARK    2  A    between atoms: N_5  and  C_8
REMARK    3  A    between atoms: N_5  and  C_10
REMARK    4  A    between atoms: N_7  and  C_18
REMARK    5  A    between atoms: C_11  and  C_18
REMARK    6  A    between atoms: C_12  and  C_21
REMARK    7  A    between atoms: C_22  and  C_23
REMARK                            x       y       z     vdW  Elec       q    Type
REMARK                         _______ _______ _______ _____ _____    ______ ____
ROOT
ATOM      1  O   UNL     1      -1.350   0.811  24.096  0.00  0.00    -0.371 OA
ATOM      8  C   UNL     1      -0.401   2.958  24.456  0.00  0.00    +0.111 C 
ATOM      9  C   UNL     1      -0.308   2.154  25.740  0.00  0.00    +0.164 C 
ATOM     11  C   UNL     1      -0.441   0.734  25.207  0.00  0.00    +0.165 C 
ATOM     15  C   UNL     1      -1.467   2.186  23.695  0.00  0.00    +0.181 C 
ENDROOT
BRANCH   9   2
ATOM      2  O   UNL     1       0.917   2.350  26.418  0.00  0.00    -0.388 OA
ATOM     26  H   UNL     1       1.041   3.303  26.556  0.00  0.00    +0.210 HD
ENDBRANCH   9   2
BRANCH   8   5
ATOM      5  N   UNL     1      -0.753   4.353  24.665  0.00  0.00    -0.306 NA
ATOM     24  H   UNL     1      -0.438   4.917  23.876  0.00  0.00    +0.123 HD
BRANCH   5  10
ATOM      4  O   UNL     1      -5.997   2.130  26.981  0.00  0.00    -0.276 OA
ATOM      6  N   UNL     1      -4.790   3.360  25.423  0.00  0.00    -0.302 N 
ATOM     10  C   UNL     1      -2.195   4.503  24.840  0.00  0.00    +0.057 C 
ATOM     16  C   UNL     1      -2.942   3.642  23.814  0.00  0.00    +0.037 C 
ATOM     17  C   UNL     1      -2.597   4.108  26.266  0.00  0.00    +0.037 C 
ATOM     19  C   UNL     1      -4.453   3.710  24.038  0.00  0.00    +0.109 C 
ATOM     20  C   UNL     1      -4.114   4.168  26.441  0.00  0.00    +0.109 C 
ATOM     22  C   UNL     1      -5.704   2.380  25.809  0.00  0.00    +0.212 C 
ATOM     23  C   UNL     1      -6.355   1.591  24.702  0.00  0.00    +0.109 C 
ENDBRANCH   5  10
ENDBRANCH   8   5
BRANCH  11  18
ATOM     18  C   UNL     1      -0.972  -0.247  26.238  0.00  0.00    +0.138 C 
BRANCH  18   7
ATOM      3  O   UNL     1      -1.423  -2.680  24.710  0.00  0.00    -0.276 OA
ATOM      7  N   UNL     1      -2.230  -0.802  25.830  0.00  0.00    -0.313 N 
ATOM     21  C   UNL     1      -2.348  -1.976  25.099  0.00  0.00    +0.216 C 
ATOM     25  H   UNL     1      -3.073  -0.303  26.097  0.00  0.00    +0.149 HD
BRANCH  21  12
ATOM     12  C   UNL     1      -3.754  -2.369  24.786  0.00  0.00    +0.075 C 
ATOM     13  C   UNL     1      -4.571  -1.466  23.924  0.00  0.00    +0.013 C 
ATOM     14  C   UNL     1      -4.084  -2.781  23.390  0.00  0.00    +0.013 C 
ENDBRANCH  21  12
ENDBRANCH  18   7
ENDBRANCH  11  18
TORSDOF 6
ENDMDL
MODEL 4
REMARK VINA RESULT:      -4.0     16.401     19.089
REMARK  Name = 75536535
REMARK  7 active torsions:
REMARK  status: ('A' for Active; 'I' for Inactive)
REMARK    1  A    between atoms: O_2  and  C_9
REMARK    2  A    between atoms: N_5  and  C_8
REMARK    3  A    between atoms: N_5  and  C_10
REMARK    4  A    between atoms: N_7  and  C_18
REMARK    5  A    between atoms: C_11  and  C_18
REMARK    6  A    between atoms: C_12  and  C_21
REMARK    7  A    between atoms: C_22  and  C_23
REMARK                            x       y       z     vdW  Elec       q    Type
REMARK                         _______ _______ _______ _____ _____    ______ ____
ROOT
ATOM      1  O   UNL     1      11.827  -6.538  31.392  0.00  0.00    -0.371 OA
ATOM      8  C   UNL     1      13.429  -8.246  30.990  0.00  0.00    +0.111 C 
ATOM      9  C   UNL     1      12.338  -8.792  31.892  0.00  0.00    +0.164 C 
ATOM     11  C   UNL     1      11.205  -7.816  31.608  0.00  0.00    +0.165 C 
ATOM     15  C   UNL     1      13.229  -6.747  31.152  0.00  0.00    +0.181 C 
ENDROOT
BRANCH   9   2
ATOM      2  O   UNL     1      11.980 -10.123  31.572  0.00  0.00    -0.388 OA
ATOM     26  H   UNL     1      12.488 -10.722  32.144  0.00  0.00    +0.210 HD
ENDBRANCH   9   2
BRANCH   8   5
ATOM      5  N   UNL     1      14.765  -8.682  31.360  0.00  0.00    -0.306 NA
ATOM     24  H   UNL     1      14.714  -9.399  32.084  0.00  0.00    +0.123 HD
BRANCH   5  10
ATOM      4  O   UNL     1      16.139  -8.124  25.393  0.00  0.00    -0.276 OA
ATOM      6  N   UNL     1      15.828  -9.371  27.328  0.00  0.00    -0.302 N 
ATOM     10  C   UNL     1      15.482  -9.199  30.197  0.00  0.00    +0.057 C 
ATOM     16  C   UNL     1      14.535 -10.030  29.322  0.00  0.00    +0.037 C 
ATOM     17  C   UNL     1      16.082  -8.042  29.389  0.00  0.00    +0.037 C 
ATOM     19  C   UNL     1      15.238 -10.505  28.051  0.00  0.00    +0.109 C 
ATOM     20  C   UNL     1      16.755  -8.556  28.118  0.00  0.00    +0.109 C 
ATOM     22  C   UNL     1      15.603  -9.062  25.987  0.00  0.00    +0.212 C 
ATOM     23  C   UNL     1      14.633  -9.947  25.245  0.00  0.00    +0.109 C 
ENDBRANCH   5  10
ENDBRANCH   8   5
BRANCH  11  18
ATOM     18  C   UNL     1      10.202  -7.713  32.744  0.00  0.00    +0.138 C 
BRANCH  18   7
ATOM      3  O   UNL     1       9.139 -10.410  32.512  0.00  0.00    -0.276 OA
ATOM      7  N   UNL     1       8.889  -8.101  32.317  0.00  0.00    -0.313 N 
ATOM     21  C   UNL     1       8.469  -9.421  32.238  0.00  0.00    +0.216 C 
ATOM     25  H   UNL     1       8.239  -7.362  32.063  0.00  0.00    +0.149 HD
BRANCH  21  12
ATOM     12  C   UNL     1       7.061  -9.593  31.771  0.00  0.00    +0.075 C 
ATOM     13  C   UNL     1       6.442  -8.505  30.958  0.00  0.00    +0.013 C 
ATOM     14  C   UNL     1       6.814  -9.808  30.315  0.00  0.00    +0.013 C 
ENDBRANCH  21  12
ENDBRANCH  18   7
ENDBRANCH  11  18
TORSDOF 6
ENDMDL
MODEL 5
REMARK VINA RESULT:      -3.6     16.382     19.142
REMARK  Name = 75536535
REMARK  7 active torsions:
REMARK  status: ('A' for Active; 'I' for Inactive)
REMARK    1  A    between atoms: O_2  and  C_9
REMARK    2  A    between atoms: N_5  and  C_8
REMARK    3  A    between atoms: N_5  and  C_10
REMARK    4  A    between atoms: N_7  and  C_18
REMARK    5  A    between atoms: C_11  and  C_18
REMARK    6  A    between atoms: C_12  and  C_21
REMARK    7  A    between atoms: C_22  and  C_23
REMARK                            x       y       z     vdW  Elec       q    Type
REMARK                         _______ _______ _______ _____ _____    ______ ____
ROOT
ATOM      1  O   UNL     1      11.791  -7.086  31.001  0.00  0.00    -0.371 OA
ATOM      8  C   UNL     1      14.163  -7.188  30.974  0.00  0.00    +0.111 C 
ATOM      9  C   UNL     1      13.638  -8.159  32.015  0.00  0.00    +0.164 C 
ATOM     11  C   UNL     1      12.206  -8.353  31.539  0.00  0.00    +0.165 C 
ATOM     15  C   UNL     1      12.960  -6.281  30.776  0.00  0.00    +0.181 C 
ENDROOT
BRANCH   9   2
ATOM      2  O   UNL     1      14.356  -9.377  32.036  0.00  0.00    -0.388 OA
ATOM     26  H   UNL     1      15.213  -9.234  31.601  0.00  0.00    +0.210 HD
ENDBRANCH   9   2
BRANCH   8   5
ATOM      5  N   UNL     1      15.352  -6.466  31.397  0.00  0.00    -0.306 NA
ATOM     24  H   UNL     1      15.727  -6.876  32.253  0.00  0.00    +0.123 HD
BRANCH   5  10
ATOM      4  O   UNL     1      16.950  -5.019  25.638  0.00  0.00    -0.276 OA
ATOM      6  N   UNL     1      17.102  -6.327  27.552  0.00  0.00    -0.302 N 
ATOM     10  C   UNL     1      16.370  -6.484  30.349  0.00  0.00    +0.057 C 
ATOM     16  C   UNL     1      16.112  -7.648  29.384  0.00  0.00    +0.037 C 
ATOM     17  C   UNL     1      16.370  -5.150  29.592  0.00  0.00    +0.037 C 
ATOM     19  C   UNL     1      17.108  -7.632  28.225  0.00  0.00    +0.109 C 
ATOM     20  C   UNL     1      17.362  -5.183  28.430  0.00  0.00    +0.109 C 
ATOM     22  C   UNL     1      16.914  -6.124  26.186  0.00  0.00    +0.212 C 
ATOM     23  C   UNL     1      16.650  -7.352  25.351  0.00  0.00    +0.109 C 
ENDBRANCH   5  10
ENDBRANCH   8   5
BRANCH  11  18
ATOM     18  C   UNL     1      11.256  -8.776  32.646  0.00  0.00    +0.138 C 
BRANCH  18   7
ATOM      3  O   UNL     1       8.682  -7.442  32.873  0.00  0.00    -0.276 OA
ATOM      7  N   UNL     1       9.997  -9.211  32.115  0.00  0.00    -0.313 N 
ATOM     21  C   UNL     1       8.813  -8.504  32.275  0.00  0.00    +0.216 C 
ATOM     25  H   UNL     1       9.981 -10.083  31.596  0.00  0.00    +0.149 HD
BRANCH  21  12
ATOM     12  C   UNL     1       7.623  -9.141  31.637  0.00  0.00    +0.075 C 
ATOM     13  C   UNL     1       6.315  -9.084  32.354  0.00  0.00    +0.013 C 
ATOM     14  C   UNL     1       6.535  -8.260  31.120  0.00  0.00    +0.013 C 
ENDBRANCH  21  12
ENDBRANCH  18   7
ENDBRANCH  11  18
TORSDOF 6
ENDMDL
MODEL 6
REMARK VINA RESULT:      -3.5      1.776      4.203
REMARK  Name = 75536535
REMARK  7 active torsions:
REMARK  status: ('A' for Active; 'I' for Inactive)
REMARK    1  A    between atoms: O_2  and  C_9
REMARK    2  A    between atoms: N_5  and  C_8
REMARK    3  A    between atoms: N_5  and  C_10
REMARK    4  A    between atoms: N_7  and  C_18
REMARK    5  A    between atoms: C_11  and  C_18
REMARK    6  A    between atoms: C_12  and  C_21
REMARK    7  A    between atoms: C_22  and  C_23
REMARK                            x       y       z     vdW  Elec       q    Type
REMARK                         _______ _______ _______ _____ _____    ______ ____
ROOT
ATOM      1  O   UNL     1      -3.886   1.954  23.331  0.00  0.00    -0.371 OA
ATOM      8  C   UNL     1      -4.606   0.127  24.667  0.00  0.00    +0.111 C 
ATOM      9  C   UNL     1      -4.979   1.425  25.361  0.00  0.00    +0.164 C 
ATOM     11  C   UNL     1      -4.946   2.401  24.194  0.00  0.00    +0.165 C 
ATOM     15  C   UNL     1      -3.545   0.604  23.688  0.00  0.00    +0.181 C 
ENDROOT
BRANCH   9   2
ATOM      2  O   UNL     1      -6.254   1.372  25.969  0.00  0.00    -0.388 OA
ATOM     26  H   UNL     1      -6.902   1.099  25.297  0.00  0.00    +0.210 HD
ENDBRANCH   9   2
BRANCH   8   5
ATOM      5  N   UNL     1      -4.119  -0.900  25.573  0.00  0.00    -0.306 NA
ATOM     24  H   UNL     1      -4.434  -1.820  25.265  0.00  0.00    +0.123 HD
BRANCH   5  10
ATOM      4  O   UNL     1       1.163   1.706  23.809  0.00  0.00    -0.276 OA
ATOM      6  N   UNL     1      -0.097  -0.099  24.551  0.00  0.00    -0.302 N 
ATOM     10  C   UNL     1      -2.660  -0.874  25.651  0.00  0.00    +0.057 C 
ATOM     16  C   UNL     1      -2.056  -1.593  24.439  0.00  0.00    +0.037 C 
ATOM     17  C   UNL     1      -2.162   0.575  25.719  0.00  0.00    +0.037 C 
ATOM     19  C   UNL     1      -0.531  -1.498  24.449  0.00  0.00    +0.109 C 
ATOM     20  C   UNL     1      -0.635   0.626  25.705  0.00  0.00    +0.109 C 
ATOM     22  C   UNL     1       0.786   0.539  23.681  0.00  0.00    +0.212 C 
ATOM     23  C   UNL     1       1.292  -0.276  22.517  0.00  0.00    +0.109 C 
ENDBRANCH   5  10
ENDBRANCH   8   5
BRANCH  11  18
ATOM     18  C   UNL     1      -4.691   3.837  24.618  0.00  0.00    +0.138 C 
BRANCH  18   7
ATOM      3  O   UNL     1      -2.890   3.856  26.901  0.00  0.00    -0.276 OA
ATOM      7  N   UNL     1      -3.289   4.138  24.622  0.00  0.00    -0.313 N 
ATOM     21  C   UNL     1      -2.506   4.121  25.767  0.00  0.00    +0.216 C 
ATOM     25  H   UNL     1      -2.856   4.374  23.734  0.00  0.00    +0.149 HD
BRANCH  21  12
ATOM     12  C   UNL     1      -1.071   4.465  25.538  0.00  0.00    +0.075 C 
ATOM     13  C   UNL     1      -0.484   4.210  24.190  0.00  0.00    +0.013 C 
ATOM     14  C   UNL     1      -0.749   5.615  24.643  0.00  0.00    +0.013 C 
ENDBRANCH  21  12
ENDBRANCH  18   7
ENDBRANCH  11  18
TORSDOF 6
ENDMDL
MODEL 7
REMARK VINA RESULT:      -3.2     15.042     17.578
REMARK  Name = 75536535
REMARK  7 active torsions:
REMARK  status: ('A' for Active; 'I' for Inactive)
REMARK    1  A    between atoms: O_2  and  C_9
REMARK    2  A    between atoms: N_5  and  C_8
REMARK    3  A    between atoms: N_5  and  C_10
REMARK    4  A    between atoms: N_7  and  C_18
REMARK    5  A    between atoms: C_11  and  C_18
REMARK    6  A    between atoms: C_12  and  C_21
REMARK    7  A    between atoms: C_22  and  C_23
REMARK                            x       y       z     vdW  Elec       q    Type
REMARK                         _______ _______ _______ _____ _____    ______ ____
ROOT
ATOM      1  O   UNL     1      -4.114 -10.420  14.186  0.00  0.00    -0.371 OA
ATOM      8  C   UNL     1      -4.646 -10.123  11.890  0.00  0.00    +0.111 C 
ATOM      9  C   UNL     1      -5.919 -10.426  12.658  0.00  0.00    +0.164 C 
ATOM     11  C   UNL     1      -5.502 -10.060  14.075  0.00  0.00    +0.165 C 
ATOM     15  C   UNL     1      -3.585 -10.612  12.863  0.00  0.00    +0.181 C 
ENDROOT
BRANCH   9   2
ATOM      2  O   UNL     1      -7.019  -9.655  12.216  0.00  0.00    -0.388 OA
ATOM     26  H   UNL     1      -7.038  -8.829  12.728  0.00  0.00    +0.210 HD
ENDBRANCH   9   2
BRANCH   8   5
ATOM      5  N   UNL     1      -4.574 -10.781  10.596  0.00  0.00    -0.306 NA
ATOM     24  H   UNL     1      -4.969 -11.720  10.656  0.00  0.00    +0.123 HD
BRANCH   5  10
ATOM      4  O   UNL     1      -9.158  -6.923   9.218  0.00  0.00    -0.276 OA
ATOM      6  N   UNL     1      -7.652  -8.609   8.683  0.00  0.00    -0.302 N 
ATOM     10  C   UNL     1      -5.281 -10.007   9.580  0.00  0.00    +0.057 C 
ATOM     16  C   UNL     1      -6.533 -10.763   9.119  0.00  0.00    +0.037 C 
ATOM     17  C   UNL     1      -5.661  -8.629  10.137  0.00  0.00    +0.037 C 
ATOM     19  C   UNL     1      -7.342  -9.930   8.124  0.00  0.00    +0.109 C 
ATOM     20  C   UNL     1      -6.486  -7.839   9.122  0.00  0.00    +0.109 C 
ATOM     22  C   UNL     1      -8.927  -8.051   8.777  0.00  0.00    +0.212 C 
ATOM     23  C   UNL     1     -10.075  -8.908   8.307  0.00  0.00    +0.109 C 
ENDBRANCH   5  10
ENDBRANCH   8   5
BRANCH  11  18
ATOM     18  C   UNL     1      -6.306 -10.781  15.143  0.00  0.00    +0.138 C 
BRANCH  18   7
ATOM      3  O   UNL     1      -7.287  -9.449  17.535  0.00  0.00    -0.276 OA
ATOM      7  N   UNL     1      -7.586 -10.165  15.337  0.00  0.00    -0.313 N 
ATOM     21  C   UNL     1      -7.968  -9.549  16.521  0.00  0.00    +0.216 C 
ATOM     25  H   UNL     1      -8.240 -10.184  14.560  0.00  0.00    +0.149 HD
BRANCH  21  12
ATOM     12  C   UNL     1      -9.345  -8.972  16.499  0.00  0.00    +0.075 C 
ATOM     13  C   UNL     1     -10.499  -9.872  16.789  0.00  0.00    +0.013 C 
ATOM     14  C   UNL     1     -10.081  -8.837  17.790  0.00  0.00    +0.013 C 
ENDBRANCH  21  12
ENDBRANCH  18   7
ENDBRANCH  11  18
TORSDOF 6
ENDMDL
MODEL 8
REMARK VINA RESULT:      -3.1     16.726     19.230
REMARK  Name = 75536535
REMARK  7 active torsions:
REMARK  status: ('A' for Active; 'I' for Inactive)
REMARK    1  A    between atoms: O_2  and  C_9
REMARK    2  A    between atoms: N_5  and  C_8
REMARK    3  A    between atoms: N_5  and  C_10
REMARK    4  A    between atoms: N_7  and  C_18
REMARK    5  A    between atoms: C_11  and  C_18
REMARK    6  A    between atoms: C_12  and  C_21
REMARK    7  A    between atoms: C_22  and  C_23
REMARK                            x       y       z     vdW  Elec       q    Type
REMARK                         _______ _______ _______ _____ _____    ______ ____
ROOT
ATOM      1  O   UNL     1      11.395  -8.020  31.095  0.00  0.00    -0.371 OA
ATOM      8  C   UNL     1      13.292  -6.867  31.941  0.00  0.00    +0.111 C 
ATOM      9  C   UNL     1      13.168  -8.204  32.649  0.00  0.00    +0.164 C 
ATOM     11  C   UNL     1      12.302  -8.978  31.666  0.00  0.00    +0.165 C 
ATOM     15  C   UNL     1      11.893  -6.700  31.370  0.00  0.00    +0.181 C 
ENDROOT
BRANCH   9   2
ATOM      2  O   UNL     1      14.420  -8.829  32.856  0.00  0.00    -0.388 OA
ATOM     26  H   UNL     1      14.914  -8.810  32.019  0.00  0.00    +0.210 HD
ENDBRANCH   9   2
BRANCH   8   5
ATOM      5  N   UNL     1      13.680  -5.775  32.818  0.00  0.00    -0.306 NA
ATOM     24  H   UNL     1      13.639  -6.075  33.793  0.00  0.00    +0.123 HD
BRANCH   5  10
ATOM      4  O   UNL     1      17.255  -1.349  30.488  0.00  0.00    -0.276 OA
ATOM      6  N   UNL     1      16.793  -3.566  31.005  0.00  0.00    -0.302 N 
ATOM     10  C   UNL     1      15.026  -5.306  32.498  0.00  0.00    +0.057 C 
ATOM     16  C   UNL     1      15.330  -5.551  31.015  0.00  0.00    +0.037 C 
ATOM     17  C   UNL     1      15.158  -3.815  32.833  0.00  0.00    +0.037 C 
ATOM     19  C   UNL     1      16.697  -4.983  30.634  0.00  0.00    +0.109 C 
ATOM     20  C   UNL     1      16.528  -3.282  32.417  0.00  0.00    +0.109 C 
ATOM     22  C   UNL     1      17.146  -2.528  30.143  0.00  0.00    +0.212 C 
ATOM     23  C   UNL     1      17.400  -2.902  28.704  0.00  0.00    +0.109 C 
ENDBRANCH   5  10
ENDBRANCH   8   5
BRANCH  11  18
ATOM     18  C   UNL     1      11.518 -10.105  32.314  0.00  0.00    +0.138 C 
BRANCH  18   7
ATOM      3  O   UNL     1       8.750  -9.382  32.839  0.00  0.00    -0.276 OA
ATOM      7  N   UNL     1      10.362 -10.450  31.538  0.00  0.00    -0.313 N 
ATOM     21  C   UNL     1       9.073 -10.057  31.868  0.00  0.00    +0.216 C 
ATOM     25  H   UNL     1      10.506 -11.011  30.704  0.00  0.00    +0.149 HD
BRANCH  21  12
ATOM     12  C   UNL     1       8.022 -10.527  30.917  0.00  0.00    +0.075 C 
ATOM     13  C   UNL     1       6.646 -10.772  31.441  0.00  0.00    +0.013 C 
ATOM     14  C   UNL     1       6.917  -9.591  30.558  0.00  0.00    +0.013 C 
ENDBRANCH  21  12
ENDBRANCH  18   7
ENDBRANCH  11  18
TORSDOF 6
ENDMDL
MODEL 9
REMARK VINA RESULT:      -2.9      2.058      4.448
REMARK  Name = 75536535
REMARK  7 active torsions:
REMARK  status: ('A' for Active; 'I' for Inactive)
REMARK    1  A    between atoms: O_2  and  C_9
REMARK    2  A    between atoms: N_5  and  C_8
REMARK    3  A    between atoms: N_5  and  C_10
REMARK    4  A    between atoms: N_7  and  C_18
REMARK    5  A    between atoms: C_11  and  C_18
REMARK    6  A    between atoms: C_12  and  C_21
REMARK    7  A    between atoms: C_22  and  C_23
REMARK                            x       y       z     vdW  Elec       q    Type
REMARK                         _______ _______ _______ _____ _____    ______ ____
ROOT
ATOM      1  O   UNL     1      -3.959   3.963  24.213  0.00  0.00    -0.371 OA
ATOM      8  C   UNL     1      -5.584   2.248  24.453  0.00  0.00    +0.111 C 
ATOM      9  C   UNL     1      -5.073   2.641  25.827  0.00  0.00    +0.164 C 
ATOM     11  C   UNL     1      -4.502   4.023  25.543  0.00  0.00    +0.165 C 
ATOM     15  C   UNL     1      -4.488   2.800  23.555  0.00  0.00    +0.181 C 
ENDROOT
BRANCH   9   2
ATOM      2  O   UNL     1      -6.098   2.684  26.799  0.00  0.00    -0.388 OA
ATOM     26  H   UNL     1      -5.784   3.210  27.553  0.00  0.00    +0.210 HD
ENDBRANCH   9   2
BRANCH   8   5
ATOM      5  N   UNL     1      -5.782   0.817  24.291  0.00  0.00    -0.306 NA
ATOM     24  H   UNL     1      -5.776   0.571  23.301  0.00  0.00    +0.123 HD
BRANCH   5  10
ATOM      4  O   UNL     1       0.056  -1.103  24.501  0.00  0.00    -0.276 OA
ATOM      6  N   UNL     1      -2.204  -1.317  24.999  0.00  0.00    -0.302 N 
ATOM     10  C   UNL     1      -4.746   0.067  24.997  0.00  0.00    +0.057 C 
ATOM     16  C   UNL     1      -4.590  -1.327  24.376  0.00  0.00    +0.037 C 
ATOM     17  C   UNL     1      -3.416   0.829  24.946  0.00  0.00    +0.037 C 
ATOM     19  C   UNL     1      -3.447  -2.097  25.037  0.00  0.00    +0.109 C 
ATOM     20  C   UNL     1      -2.298   0.017  25.597  0.00  0.00    +0.109 C 
ATOM     22  C   UNL     1      -0.985  -1.764  24.489  0.00  0.00    +0.212 C 
ATOM     23  C   UNL     1      -0.972  -3.148  23.888  0.00  0.00    +0.109 C 
ENDBRANCH   5  10
ENDBRANCH   8   5
BRANCH  11  18
ATOM     18  C   UNL     1      -3.417   4.437  26.522  0.00  0.00    +0.138 C 
BRANCH  18   7
ATOM      3  O   UNL     1      -1.279   5.609  24.936  0.00  0.00    -0.276 OA
ATOM      7  N   UNL     1      -2.155   3.846  26.183  0.00  0.00    -0.313 N 
ATOM     21  C   UNL     1      -1.191   4.485  25.417  0.00  0.00    +0.216 C 
ATOM     25  H   UNL     1      -1.967   2.909  26.529  0.00  0.00    +0.149 HD
BRANCH  21  12
ATOM     12  C   UNL     1       0.049   3.683  25.190  0.00  0.00    +0.075 C 
ATOM     13  C   UNL     1       0.178   2.364  25.876  0.00  0.00    +0.013 C 
ATOM     14  C   UNL     1      -0.054   2.424  24.395  0.00  0.00    +0.013 C 
ENDBRANCH  21  12
ENDBRANCH  18   7
ENDBRANCH  11  18
TORSDOF 6
ENDMDL
MODEL 10
REMARK VINA RESULT:      -2.8      2.360      6.705
REMARK  Name = 75536535
REMARK  7 active torsions:
REMARK  status: ('A' for Active; 'I' for Inactive)
REMARK    1  A    between atoms: O_2  and  C_9
REMARK    2  A    between atoms: N_5  and  C_8
REMARK    3  A    between atoms: N_5  and  C_10
REMARK    4  A    between atoms: N_7  and  C_18
REMARK    5  A    between atoms: C_11  and  C_18
REMARK    6  A    between atoms: C_12  and  C_21
REMARK    7  A    between atoms: C_22  and  C_23
REMARK                            x       y       z     vdW  Elec       q    Type
REMARK                         _______ _______ _______ _____ _____    ______ ____
ROOT
ATOM      1  O   UNL     1      -0.145   0.450  25.117  0.00  0.00    -0.371 OA
ATOM      8  C   UNL     1      -1.847  -1.177  25.426  0.00  0.00    +0.111 C 
ATOM      9  C   UNL     1      -1.223  -1.368  24.056  0.00  0.00    +0.164 C 
ATOM     11  C   UNL     1       0.112  -0.660  24.241  0.00  0.00    +0.165 C 
ATOM     15  C   UNL     1      -1.415   0.242  25.758  0.00  0.00    +0.181 C 
ENDROOT
BRANCH   9   2
ATOM      2  O   UNL     1      -1.056  -2.731  23.719  0.00  0.00    -0.388 OA
ATOM     26  H   UNL     1      -1.681  -3.256  24.245  0.00  0.00    +0.210 HD
ENDBRANCH   9   2
BRANCH   8   5
ATOM      5  N   UNL     1      -3.291  -1.346  25.439  0.00  0.00    -0.306 NA
ATOM     24  H   UNL     1      -3.635  -1.362  26.399  0.00  0.00    +0.123 HD
BRANCH   5  10
ATOM      4  O   UNL     1      -3.660   4.657  24.160  0.00  0.00    -0.276 OA
ATOM      6  N   UNL     1      -4.578   2.533  24.360  0.00  0.00    -0.302 N 
ATOM     10  C   UNL     1      -3.945  -0.273  24.694  0.00  0.00    +0.057 C 
ATOM     16  C   UNL     1      -4.980   0.429  25.582  0.00  0.00    +0.037 C 
ATOM     17  C   UNL     1      -2.902   0.732  24.191  0.00  0.00    +0.037 C 
ATOM     19  C   UNL     1      -5.612   1.616  24.856  0.00  0.00    +0.109 C 
ATOM     20  C   UNL     1      -3.574   1.912  23.491  0.00  0.00    +0.109 C 
ATOM     22  C   UNL     1      -4.520   3.901  24.619  0.00  0.00    +0.212 C 
ATOM     23  C   UNL     1      -5.587   4.462  25.524  0.00  0.00    +0.109 C 
ENDBRANCH   5  10
ENDBRANCH   8   5
BRANCH  11  18
ATOM     18  C   UNL     1       0.711  -0.159  22.939  0.00  0.00    +0.138 C 
BRANCH  18   7
ATOM      3  O   UNL     1       2.902   1.744  23.135  0.00  0.00    -0.276 OA
ATOM      7  N   UNL     1       2.117  -0.434  22.871  0.00  0.00    -0.313 N 
ATOM     21  C   UNL     1       3.095   0.544  22.976  0.00  0.00    +0.216 C 
ATOM     25  H   UNL     1       2.401  -1.401  22.740  0.00  0.00    +0.149 HD
BRANCH  21  12
ATOM     12  C   UNL     1       4.494   0.030  22.880  0.00  0.00    +0.075 C 
ATOM     13  C   UNL     1       5.489   0.480  23.897  0.00  0.00    +0.013 C 
ATOM     14  C   UNL     1       4.973  -0.928  23.918  0.00  0.00    +0.013 C 
ENDBRANCH  21  12
ENDBRANCH  18   7
ENDBRANCH  11  18
TORSDOF 6
ENDMDL
