MODEL 1
REMARK VINA RESULT:       5.2      0.000      0.000
REMARK  Name = 51136861
REMARK  6 active torsions:
REMARK  status: ('A' for Active; 'I' for Inactive)
REMARK    1  A    between atoms: N_5  and  C_15
REMARK    2  A    between atoms: N_7  and  C_26
REMARK    3  A    between atoms: C_11  and  C_16
REMARK    4  A    between atoms: C_15  and  C_17
REMARK    5  A    between atoms: C_22  and  C_27
REMARK    6  A    between atoms: C_32  and  C_34
REMARK                            x       y       z     vdW  Elec       q    Type
REMARK                         _______ _______ _______ _____ _____    ______ ____
ROOT
ATOM      4  O   UNL     1      -3.944   2.722  22.388  0.00  0.00    -0.336 OA
ATOM      8  N   UNL     1      -2.834   2.182  24.257  0.00  0.00    -0.190 NA
ATOM      9  N   UNL     1      -2.650   2.371  21.984  0.00  0.00    -0.056 NA
ATOM     16  C   UNL     1      -3.967   2.584  23.739  0.00  0.00    +0.245 A 
ATOM     22  C   UNL     1      -2.056   2.064  23.141  0.00  0.00    +0.204 A 
ENDROOT
BRANCH  22  27
ATOM      6  N   UNL     1       3.226   0.342  23.392  0.00  0.00    -0.313 N 
ATOM      7  N   UNL     1       5.913  -0.620  23.287  0.00  0.00    -0.302 NA
ATOM     10  N   UNL     1       1.003   0.011  22.646  0.00  0.00    -0.240 NA
ATOM     18  C   UNL     1       3.489  -1.102  23.361  0.00  0.00    +0.122 C 
ATOM     19  C   UNL     1       4.289   1.193  22.850  0.00  0.00    +0.122 C 
ATOM     20  C   UNL     1       4.867  -1.407  23.952  0.00  0.00    +0.103 C 
ATOM     21  C   UNL     1       5.643   0.813  23.456  0.00  0.00    +0.103 C 
ATOM     23  C   UNL     1       1.894   0.769  23.325  0.00  0.00    +0.121 A 
ATOM     26  C   UNL     1       7.231  -0.961  23.822  0.00  0.00    +0.105 C 
ATOM     27  C   UNL     1      -0.689   1.640  23.219  0.00  0.00    +0.041 A 
ATOM     28  C   UNL     1       1.575   1.955  23.966  0.00  0.00    +0.044 A 
ATOM     31  C   UNL     1       0.257   2.392  23.908  0.00  0.00    +0.016 A 
ATOM     33  C   UNL     1      -0.269   0.469  22.612  0.00  0.00    +0.124 A 
ENDBRANCH  22  27
BRANCH  16  11
ATOM      5  N   UNL     1      -5.389   2.279  25.759  0.00  0.00    -0.287 NA
ATOM     11  C   UNL     1      -5.276   2.909  24.429  0.00  0.00    +0.146 C 
ATOM     12  C   UNL     1      -5.451   4.415  24.692  0.00  0.00    +0.030 C 
ATOM     13  C   UNL     1      -5.717   4.529  26.187  0.00  0.00    +0.017 C 
ATOM     14  C   UNL     1      -6.240   3.158  26.562  0.00  0.00    +0.085 C 
BRANCH   5  15
ATOM     15  C   UNL     1      -5.899   0.915  25.710  0.00  0.00    +0.120 C 
BRANCH  15  17
ATOM     17  C   UNL     1      -4.828  -0.071  25.329  0.00  0.00    -0.033 A 
ATOM     24  C   UNL     1      -4.953  -0.818  24.157  0.00  0.00    +0.005 A 
ATOM     25  C   UNL     1      -3.712  -0.238  26.148  0.00  0.00    +0.005 A 
ATOM     29  C   UNL     1      -3.959  -1.732  23.805  0.00  0.00    +0.012 A 
ATOM     30  C   UNL     1      -2.719  -1.153  25.794  0.00  0.00    +0.012 A 
ATOM     32  C   UNL     1      -2.843  -1.899  24.623  0.00  0.00    +0.055 A 
BRANCH  32  34
ATOM      1  F   UNL     1      -2.246  -3.941  23.529  0.00  0.00    -0.166 F 
ATOM      2  F   UNL     1      -1.147  -3.409  25.327  0.00  0.00    -0.166 F 
ATOM      3  F   UNL     1      -0.791  -2.333  23.472  0.00  0.00    -0.166 F 
ATOM     34  C   UNL     1      -1.780  -2.874  24.244  0.00  0.00    +0.417 C 
ENDBRANCH  32  34
ENDBRANCH  15  17
ENDBRANCH   5  15
ENDBRANCH  16  11
TORSDOF 5
ENDMDL
MODEL 2
REMARK VINA RESULT:       6.0      0.530      1.358
REMARK  Name = 51136861
REMARK  6 active torsions:
REMARK  status: ('A' for Active; 'I' for Inactive)
REMARK    1  A    between atoms: N_5  and  C_15
REMARK    2  A    between atoms: N_7  and  C_26
REMARK    3  A    between atoms: C_11  and  C_16
REMARK    4  A    between atoms: C_15  and  C_17
REMARK    5  A    between atoms: C_22  and  C_27
REMARK    6  A    between atoms: C_32  and  C_34
REMARK                            x       y       z     vdW  Elec       q    Type
REMARK                         _______ _______ _______ _____ _____    ______ ____
ROOT
ATOM      4  O   UNL     1      -3.806   2.728  22.346  0.00  0.00    -0.336 OA
ATOM      8  N   UNL     1      -2.686   2.132  24.192  0.00  0.00    -0.190 NA
ATOM      9  N   UNL     1      -2.538   2.320  21.917  0.00  0.00    -0.056 NA
ATOM     16  C   UNL     1      -3.810   2.586  23.698  0.00  0.00    +0.245 A 
ATOM     22  C   UNL     1      -1.936   1.983  23.061  0.00  0.00    +0.204 A 
ENDROOT
BRANCH  22  27
ATOM      6  N   UNL     1       3.318   0.174  23.302  0.00  0.00    -0.313 N 
ATOM      7  N   UNL     1       6.026  -0.662  23.655  0.00  0.00    -0.302 NA
ATOM     10  N   UNL     1       1.697   1.819  23.829  0.00  0.00    -0.240 NA
ATOM     18  C   UNL     1       4.395   1.170  23.346  0.00  0.00    +0.122 C 
ATOM     19  C   UNL     1       3.611  -1.108  23.950  0.00  0.00    +0.122 C 
ATOM     20  C   UNL     1       5.717   0.550  22.887  0.00  0.00    +0.103 C 
ATOM     21  C   UNL     1       4.960  -1.654  23.472  0.00  0.00    +0.103 C 
ATOM     23  C   UNL     1       1.998   0.637  23.245  0.00  0.00    +0.121 A 
ATOM     26  C   UNL     1       7.317  -1.214  23.245  0.00  0.00    +0.105 C 
ATOM     27  C   UNL     1      -0.589   1.497  23.111  0.00  0.00    +0.041 A 
ATOM     28  C   UNL     1       1.075  -0.160  22.586  0.00  0.00    +0.044 A 
ATOM     31  C   UNL     1      -0.241   0.285  22.522  0.00  0.00    +0.016 A 
ATOM     33  C   UNL     1       0.409   2.218  23.746  0.00  0.00    +0.124 A 
ENDBRANCH  22  27
BRANCH  16  11
ATOM      5  N   UNL     1      -5.202   2.343  25.746  0.00  0.00    -0.287 NA
ATOM     11  C   UNL     1      -5.089   2.968  24.413  0.00  0.00    +0.146 C 
ATOM     12  C   UNL     1      -5.193   4.480  24.679  0.00  0.00    +0.030 C 
ATOM     13  C   UNL     1      -5.424   4.605  26.178  0.00  0.00    +0.017 C 
ATOM     14  C   UNL     1      -5.998   3.258  26.565  0.00  0.00    +0.085 C 
BRANCH   5  15
ATOM     15  C   UNL     1      -5.773   1.003  25.707  0.00  0.00    +0.120 C 
BRANCH  15  17
ATOM     17  C   UNL     1      -4.750  -0.031  25.317  0.00  0.00    -0.033 A 
ATOM     24  C   UNL     1      -4.904  -0.750  24.131  0.00  0.00    +0.005 A 
ATOM     25  C   UNL     1      -3.651  -0.270  26.140  0.00  0.00    +0.005 A 
ATOM     29  C   UNL     1      -3.956  -1.707  23.770  0.00  0.00    +0.012 A 
ATOM     30  C   UNL     1      -2.703  -1.228  25.778  0.00  0.00    +0.012 A 
ATOM     32  C   UNL     1      -2.856  -1.946  24.593  0.00  0.00    +0.055 A 
BRANCH  32  34
ATOM      1  F   UNL     1      -0.934  -2.517  23.289  0.00  0.00    -0.166 F 
ATOM      2  F   UNL     1      -2.403  -4.079  23.644  0.00  0.00    -0.166 F 
ATOM      3  F   UNL     1      -1.095  -3.424  25.253  0.00  0.00    -0.166 F 
ATOM     34  C   UNL     1      -1.842  -2.968  24.204  0.00  0.00    +0.417 C 
ENDBRANCH  32  34
ENDBRANCH  15  17
ENDBRANCH   5  15
ENDBRANCH  16  11
TORSDOF 5
ENDMDL
