MODEL 1
REMARK VINA RESULT:      13.9      0.000      0.000
REMARK  Name = 25389825
REMARK  5 active torsions:
REMARK  status: ('A' for Active; 'I' for Inactive)
REMARK    1  A    between atoms: O_2  and  C_20
REMARK    2  A    between atoms: O_2  and  C_33
REMARK    3  A    between atoms: N_5  and  C_8
REMARK    4  A    between atoms: C_9  and  C_16
REMARK    5  A    between atoms: C_12  and  C_20
REMARK                            x       y       z     vdW  Elec       q    Type
REMARK                         _______ _______ _______ _____ _____    ______ ____
ROOT
ATOM      4  N   UNL     1      -0.816   1.176  24.290  0.00  0.00    -0.274 NA
ATOM      6  N   UNL     1      -4.241   2.029  25.576  0.00  0.00    -0.356 N 
ATOM      7  C   UNL     1      -1.965   0.913  25.210  0.00  0.00    +0.106 C 
ATOM      8  C   UNL     1      -1.591  -1.569  25.013  0.00  0.00    +0.060 C 
ATOM      9  C   UNL     1       0.215   0.111  24.370  0.00  0.00    +0.090 C 
ATOM     10  C   UNL     1      -2.615  -0.443  24.892  0.00  0.00    +0.044 C 
ATOM     11  C   UNL     1      -0.402  -1.282  24.097  0.00  0.00    +0.042 C 
ATOM     12  C   UNL     1      -0.289   2.564  24.403  0.00  0.00    +0.172 C 
ATOM     13  C   UNL     1      -2.954   2.037  25.115  0.00  0.00    +0.038 A 
ATOM     14  C   UNL     1      -1.353   3.634  24.047  0.00  0.00    +0.068 C 
ATOM     15  C   UNL     1      -2.689   3.290  24.605  0.00  0.00    -0.016 A 
ATOM     17  C   UNL     1      -3.871   4.068  24.728  0.00  0.00    +0.003 A 
ATOM     21  C   UNL     1      -4.830   3.253  25.338  0.00  0.00    +0.047 A 
ATOM     26  C   UNL     1      -4.225   5.388  24.385  0.00  0.00    +0.010 A 
ATOM     27  C   UNL     1      -6.127   3.696  25.621  0.00  0.00    +0.026 A 
ATOM     30  C   UNL     1      -5.520   5.843  24.659  0.00  0.00    +0.001 A 
ATOM     31  C   UNL     1      -6.454   5.008  25.268  0.00  0.00    +0.002 A 
ATOM     34  H   UNL     1      -4.701   1.248  26.022  0.00  0.00    +0.166 HD
ENDROOT
BRANCH   8   5
ATOM      1  O   UNL     1      -3.776  -4.534  23.000  0.00  0.00    -0.377 OA
ATOM      5  N   UNL     1      -2.209  -2.850  24.678  0.00  0.00    -0.295 NA
ATOM     18  C   UNL     1      -1.690  -3.362  23.402  0.00  0.00    +0.113 C 
ATOM     19  C   UNL     1      -3.671  -2.721  24.609  0.00  0.00    +0.113 C 
ATOM     22  C   UNL     1      -2.358  -4.693  23.066  0.00  0.00    +0.175 C 
ATOM     23  C   UNL     1      -4.293  -4.066  24.246  0.00  0.00    +0.175 C 
ENDBRANCH   8   5
BRANCH   9  16
ATOM     16  C   UNL     1       1.382   0.297  23.404  0.00  0.00    -0.030 A 
ATOM     24  C   UNL     1       2.440   1.140  23.743  0.00  0.00    +0.005 A 
ATOM     25  C   UNL     1       1.390  -0.376  22.182  0.00  0.00    +0.005 A 
ATOM     28  C   UNL     1       3.507   1.310  22.860  0.00  0.00    +0.000 A 
ATOM     29  C   UNL     1       2.456  -0.206  21.299  0.00  0.00    +0.000 A 
ATOM     32  C   UNL     1       3.515   0.637  21.638  0.00  0.00    +0.000 A 
ENDBRANCH   9  16
BRANCH  12  20
ATOM      3  O   UNL     1       0.949   3.776  26.081  0.00  0.00    -0.249 OA
ATOM     20  C   UNL     1       0.273   2.803  25.776  0.00  0.00    +0.325 C 
BRANCH  20   2
ATOM      2  O   UNL     1      -0.089   1.778  26.601  0.00  0.00    -0.467 OA
ATOM     33  C   UNL     1       0.250   1.950  27.980  0.00  0.00    +0.280 C 
ENDBRANCH  20   2
ENDBRANCH  12  20
TORSDOF 4
ENDMDL
MODEL 2
REMARK VINA RESULT:      14.8      2.094      6.558
REMARK  Name = 25389825
REMARK  5 active torsions:
REMARK  status: ('A' for Active; 'I' for Inactive)
REMARK    1  A    between atoms: O_2  and  C_20
REMARK    2  A    between atoms: O_2  and  C_33
REMARK    3  A    between atoms: N_5  and  C_8
REMARK    4  A    between atoms: C_9  and  C_16
REMARK    5  A    between atoms: C_12  and  C_20
REMARK                            x       y       z     vdW  Elec       q    Type
REMARK                         _______ _______ _______ _____ _____    ______ ____
ROOT
ATOM      4  N   UNL     1      -1.217   1.310  25.690  0.00  0.00    -0.274 NA
ATOM      6  N   UNL     1      -3.783  -0.461  23.596  0.00  0.00    -0.356 N 
ATOM      7  C   UNL     1      -2.211   1.308  24.573  0.00  0.00    +0.106 C 
ATOM      8  C   UNL     1      -2.865   3.679  25.113  0.00  0.00    +0.060 C 
ATOM      9  C   UNL     1      -0.681   2.669  25.955  0.00  0.00    +0.090 C 
ATOM     10  C   UNL     1      -3.378   2.258  24.883  0.00  0.00    +0.044 C 
ATOM     11  C   UNL     1      -1.825   3.674  26.232  0.00  0.00    +0.042 C 
ATOM     12  C   UNL     1      -0.182   0.249  25.548  0.00  0.00    +0.172 C 
ATOM     13  C   UNL     1      -2.688  -0.093  24.326  0.00  0.00    +0.038 A 
ATOM     14  C   UNL     1      -0.792  -1.177  25.543  0.00  0.00    +0.068 C 
ATOM     15  C   UNL     1      -2.045  -1.238  24.744  0.00  0.00    -0.016 A 
ATOM     17  C   UNL     1      -2.797  -2.351  24.281  0.00  0.00    +0.003 A 
ATOM     21  C   UNL     1      -3.883  -1.837  23.565  0.00  0.00    +0.047 A 
ATOM     26  C   UNL     1      -2.662  -3.750  24.394  0.00  0.00    +0.010 A 
ATOM     27  C   UNL     1      -4.842  -2.655  22.957  0.00  0.00    +0.026 A 
ATOM     30  C   UNL     1      -3.616  -4.579  23.793  0.00  0.00    +0.001 A 
ATOM     31  C   UNL     1      -4.687  -4.038  23.086  0.00  0.00    +0.002 A 
ATOM     34  H   UNL     1      -4.430   0.170  23.146  0.00  0.00    +0.166 HD
ENDROOT
BRANCH   8   5
ATOM      1  O   UNL     1      -6.703   5.373  25.261  0.00  0.00    -0.377 OA
ATOM      5  N   UNL     1      -3.977   4.568  25.439  0.00  0.00    -0.295 NA
ATOM     18  C   UNL     1      -5.042   3.837  26.140  0.00  0.00    +0.113 C 
ATOM     19  C   UNL     1      -4.516   5.198  24.226  0.00  0.00    +0.113 C 
ATOM     22  C   UNL     1      -6.197   4.783  26.460  0.00  0.00    +0.175 C 
ATOM     23  C   UNL     1      -5.682   6.112  24.590  0.00  0.00    +0.175 C 
ENDBRANCH   8   5
BRANCH   9  16
ATOM     16  C   UNL     1       0.291   2.740  27.129  0.00  0.00    -0.030 A 
ATOM     24  C   UNL     1      -0.139   2.402  28.412  0.00  0.00    +0.005 A 
ATOM     25  C   UNL     1       1.611   3.139  26.918  0.00  0.00    +0.005 A 
ATOM     28  C   UNL     1       0.750   2.466  29.485  0.00  0.00    +0.000 A 
ATOM     29  C   UNL     1       2.500   3.203  27.991  0.00  0.00    +0.000 A 
ATOM     32  C   UNL     1       2.070   2.866  29.274  0.00  0.00    +0.000 A 
ENDBRANCH   9  16
BRANCH  12  20
ATOM      3  O   UNL     1       1.241   1.524  24.077  0.00  0.00    -0.249 OA
ATOM     20  C   UNL     1       0.645   0.483  24.315  0.00  0.00    +0.325 C 
BRANCH  20   2
ATOM      2  O   UNL     1       0.618  -0.632  23.530  0.00  0.00    -0.467 OA
ATOM     33  C   UNL     1       1.295  -0.517  22.275  0.00  0.00    +0.280 C 
ENDBRANCH  20   2
ENDBRANCH  12  20
TORSDOF 4
ENDMDL
MODEL 3
REMARK VINA RESULT:      16.6      2.522      5.543
REMARK  Name = 25389825
REMARK  5 active torsions:
REMARK  status: ('A' for Active; 'I' for Inactive)
REMARK    1  A    between atoms: O_2  and  C_20
REMARK    2  A    between atoms: O_2  and  C_33
REMARK    3  A    between atoms: N_5  and  C_8
REMARK    4  A    between atoms: C_9  and  C_16
REMARK    5  A    between atoms: C_12  and  C_20
REMARK                            x       y       z     vdW  Elec       q    Type
REMARK                         _______ _______ _______ _____ _____    ______ ____
ROOT
ATOM      4  N   UNL     1      -1.183   0.431  24.153  0.00  0.00    -0.274 NA
ATOM      6  N   UNL     1      -0.190   4.031  23.740  0.00  0.00    -0.356 N 
ATOM      7  C   UNL     1      -0.483   1.511  23.391  0.00  0.00    +0.106 C 
ATOM      8  C   UNL     1       1.364  -0.084  22.773  0.00  0.00    +0.060 C 
ATOM      9  C   UNL     1      -0.900  -0.916  23.596  0.00  0.00    +0.090 C 
ATOM     10  C   UNL     1       1.035   1.276  23.386  0.00  0.00    +0.044 C 
ATOM     11  C   UNL     1       0.623  -1.182  23.532  0.00  0.00    +0.042 C 
ATOM     12  C   UNL     1      -2.626   0.723  24.379  0.00  0.00    +0.172 C 
ATOM     13  C   UNL     1      -0.835   2.848  23.973  0.00  0.00    +0.038 A 
ATOM     14  C   UNL     1      -2.848   2.017  25.202  0.00  0.00    +0.068 C 
ATOM     15  C   UNL     1      -1.919   3.102  24.785  0.00  0.00    -0.016 A 
ATOM     17  C   UNL     1      -1.917   4.490  25.090  0.00  0.00    +0.003 A 
ATOM     21  C   UNL     1      -0.821   5.049  24.423  0.00  0.00    +0.047 A 
ATOM     26  C   UNL     1      -2.739   5.332  25.864  0.00  0.00    +0.010 A 
ATOM     27  C   UNL     1      -0.509   6.411  24.495  0.00  0.00    +0.026 A 
ATOM     30  C   UNL     1      -2.437   6.696  25.947  0.00  0.00    +0.001 A 
ATOM     31  C   UNL     1      -1.339   7.225  25.272  0.00  0.00    +0.002 A 
ATOM     34  H   UNL     1       0.627   4.151  23.159  0.00  0.00    +0.166 HD
ENDROOT
BRANCH   8   5
ATOM      1  O   UNL     1       5.341  -0.287  24.101  0.00  0.00    -0.377 OA
ATOM      5  N   UNL     1       2.807  -0.313  22.803  0.00  0.00    -0.295 NA
ATOM     18  C   UNL     1       3.157  -1.308  23.827  0.00  0.00    +0.113 C 
ATOM     19  C   UNL     1       3.530   0.941  23.054  0.00  0.00    +0.113 C 
ATOM     22  C   UNL     1       4.668  -1.522  23.848  0.00  0.00    +0.175 C 
ATOM     23  C   UNL     1       5.032   0.675  23.093  0.00  0.00    +0.175 C 
ENDBRANCH   8   5
BRANCH   9  16
ATOM     16  C   UNL     1      -1.539  -2.061  24.376  0.00  0.00    -0.030 A 
ATOM     24  C   UNL     1      -0.889  -2.594  25.489  0.00  0.00    +0.005 A 
ATOM     25  C   UNL     1      -2.774  -2.573  23.978  0.00  0.00    +0.005 A 
ATOM     28  C   UNL     1      -1.474  -3.640  26.203  0.00  0.00    +0.000 A 
ATOM     29  C   UNL     1      -3.358  -3.619  24.690  0.00  0.00    +0.000 A 
ATOM     32  C   UNL     1      -2.708  -4.153  25.804  0.00  0.00    +0.000 A 
ENDBRANCH   9  16
BRANCH  12  20
ATOM      3  O   UNL     1      -3.080   1.560  22.163  0.00  0.00    -0.249 OA
ATOM     20  C   UNL     1      -3.360   0.787  23.069  0.00  0.00    +0.325 C 
BRANCH  20   2
ATOM      2  O   UNL     1      -4.363  -0.137  23.064  0.00  0.00    -0.467 OA
ATOM     33  C   UNL     1      -5.005  -0.355  24.324  0.00  0.00    +0.280 C 
ENDBRANCH  20   2
ENDBRANCH  12  20
TORSDOF 4
ENDMDL
MODEL 4
REMARK VINA RESULT:      16.7      3.214      6.704
REMARK  Name = 25389825
REMARK  5 active torsions:
REMARK  status: ('A' for Active; 'I' for Inactive)
REMARK    1  A    between atoms: O_2  and  C_20
REMARK    2  A    between atoms: O_2  and  C_33
REMARK    3  A    between atoms: N_5  and  C_8
REMARK    4  A    between atoms: C_9  and  C_16
REMARK    5  A    between atoms: C_12  and  C_20
REMARK                            x       y       z     vdW  Elec       q    Type
REMARK                         _______ _______ _______ _____ _____    ______ ____
ROOT
ATOM      4  N   UNL     1      -1.975   2.345  25.139  0.00  0.00    -0.274 NA
ATOM      6  N   UNL     1      -2.618  -1.241  26.053  0.00  0.00    -0.356 N 
ATOM      7  C   UNL     1      -2.116   1.267  26.166  0.00  0.00    +0.106 C 
ATOM      8  C   UNL     1      -0.291   2.312  27.552  0.00  0.00    +0.060 C 
ATOM      9  C   UNL     1      -1.506   3.622  25.734  0.00  0.00    +0.090 C 
ATOM     10  C   UNL     1      -0.779   1.026  26.886  0.00  0.00    +0.044 C 
ATOM     11  C   UNL     1      -0.181   3.421  26.508  0.00  0.00    +0.042 C 
ATOM     12  C   UNL     1      -3.172   2.469  24.262  0.00  0.00    +0.172 C 
ATOM     13  C   UNL     1      -2.628   0.016  25.516  0.00  0.00    +0.038 A 
ATOM     14  C   UNL     1      -3.457   1.173  23.460  0.00  0.00    +0.068 C 
ATOM     15  C   UNL     1      -3.258  -0.045  24.292  0.00  0.00    -0.016 A 
ATOM     17  C   UNL     1      -3.618  -1.399  24.056  0.00  0.00    +0.003 A 
ATOM     21  C   UNL     1      -3.203  -2.129  25.175  0.00  0.00    +0.047 A 
ATOM     26  C   UNL     1      -4.258  -2.081  23.002  0.00  0.00    +0.010 A 
ATOM     27  C   UNL     1      -3.399  -3.510  25.289  0.00  0.00    +0.026 A 
ATOM     30  C   UNL     1      -4.458  -3.463  23.103  0.00  0.00    +0.001 A 
ATOM     31  C   UNL     1      -4.035  -4.164  24.230  0.00  0.00    +0.002 A 
ATOM     34  H   UNL     1      -2.239  -1.493  26.955  0.00  0.00    +0.166 HD
ENDROOT
BRANCH   8   5
ATOM      1  O   UNL     1       3.161   2.888  29.869  0.00  0.00    -0.377 OA
ATOM      5  N   UNL     1       0.995   2.082  28.206  0.00  0.00    -0.295 NA
ATOM     18  C   UNL     1       0.857   2.152  29.668  0.00  0.00    +0.113 C 
ATOM     19  C   UNL     1       1.995   3.057  27.748  0.00  0.00    +0.113 C 
ATOM     22  C   UNL     1       2.214   1.922  30.328  0.00  0.00    +0.175 C 
ATOM     23  C   UNL     1       3.324   2.804  28.453  0.00  0.00    +0.175 C 
ENDBRANCH   8   5
BRANCH   9  16
ATOM     16  C   UNL     1      -1.285   4.740  24.719  0.00  0.00    -0.030 A 
ATOM     24  C   UNL     1      -0.236   4.653  23.804  0.00  0.00    +0.005 A 
ATOM     25  C   UNL     1      -2.133   5.847  24.705  0.00  0.00    +0.005 A 
ATOM     28  C   UNL     1      -0.034   5.674  22.876  0.00  0.00    +0.000 A 
ATOM     29  C   UNL     1      -1.931   6.869  23.778  0.00  0.00    +0.000 A 
ATOM     32  C   UNL     1      -0.882   6.782  22.862  0.00  0.00    +0.000 A 
ENDBRANCH   9  16
BRANCH  12  20
ATOM      3  O   UNL     1      -4.348   3.706  25.965  0.00  0.00    -0.249 OA
ATOM     20  C   UNL     1      -4.374   2.877  25.066  0.00  0.00    +0.325 C 
BRANCH  20   2
ATOM      2  O   UNL     1      -5.467   2.184  24.635  0.00  0.00    -0.467 OA
ATOM     33  C   UNL     1      -6.298   1.642  25.667  0.00  0.00    +0.280 C 
ENDBRANCH  20   2
ENDBRANCH  12  20
TORSDOF 4
ENDMDL
MODEL 5
REMARK VINA RESULT:      16.9      1.978      7.119
REMARK  Name = 25389825
REMARK  5 active torsions:
REMARK  status: ('A' for Active; 'I' for Inactive)
REMARK    1  A    between atoms: O_2  and  C_20
REMARK    2  A    between atoms: O_2  and  C_33
REMARK    3  A    between atoms: N_5  and  C_8
REMARK    4  A    between atoms: C_9  and  C_16
REMARK    5  A    between atoms: C_12  and  C_20
REMARK                            x       y       z     vdW  Elec       q    Type
REMARK                         _______ _______ _______ _____ _____    ______ ____
ROOT
ATOM      4  N   UNL     1      -1.714  -0.572  24.192  0.00  0.00    -0.274 NA
ATOM      6  N   UNL     1       1.124   1.876  23.938  0.00  0.00    -0.356 N 
ATOM      7  C   UNL     1      -1.021   0.671  24.650  0.00  0.00    +0.106 C 
ATOM      8  C   UNL     1      -3.239   1.792  25.054  0.00  0.00    +0.060 C 
ATOM      9  C   UNL     1      -3.040  -0.740  24.838  0.00  0.00    +0.090 C 
ATOM     10  C   UNL     1      -1.882   1.911  24.362  0.00  0.00    +0.044 C 
ATOM     11  C   UNL     1      -3.931   0.505  24.610  0.00  0.00    +0.042 C 
ATOM     12  C   UNL     1      -0.839  -1.776  24.242  0.00  0.00    +0.172 C 
ATOM     13  C   UNL     1       0.325   0.767  23.995  0.00  0.00    +0.038 A 
ATOM     14  C   UNL     1       0.408  -1.642  23.331  0.00  0.00    +0.068 C 
ATOM     15  C   UNL     1       1.001  -0.279  23.405  0.00  0.00    -0.016 A 
ATOM     17  C   UNL     1       2.248   0.217  22.938  0.00  0.00    +0.003 A 
ATOM     21  C   UNL     1       2.299   1.572  23.284  0.00  0.00    +0.047 A 
ATOM     26  C   UNL     1       3.344  -0.350  22.258  0.00  0.00    +0.010 A 
ATOM     27  C   UNL     1       3.395   2.386  22.980  0.00  0.00    +0.026 A 
ATOM     30  C   UNL     1       4.445   0.455  21.946  0.00  0.00    +0.001 A 
ATOM     31  C   UNL     1       4.469   1.801  22.302  0.00  0.00    +0.002 A 
ATOM     34  H   UNL     1       0.896   2.785  24.314  0.00  0.00    +0.166 HD
ENDROOT
BRANCH   8   5
ATOM      1  O   UNL     1      -5.288   5.435  25.438  0.00  0.00    -0.377 OA
ATOM      5  N   UNL     1      -4.063   2.959  24.748  0.00  0.00    -0.295 NA
ATOM     18  C   UNL     1      -3.280   4.197  24.869  0.00  0.00    +0.113 C 
ATOM     19  C   UNL     1      -5.235   3.017  25.633  0.00  0.00    +0.113 C 
ATOM     22  C   UNL     1      -4.164   5.402  24.558  0.00  0.00    +0.175 C 
ATOM     23  C   UNL     1      -6.072   4.249  25.303  0.00  0.00    +0.175 C 
ENDBRANCH   8   5
BRANCH   9  16
ATOM     16  C   UNL     1      -3.819  -1.961  24.358  0.00  0.00    -0.030 A 
ATOM     24  C   UNL     1      -3.424  -3.239  24.753  0.00  0.00    +0.005 A 
ATOM     25  C   UNL     1      -4.927  -1.799  23.526  0.00  0.00    +0.005 A 
ATOM     28  C   UNL     1      -4.137  -4.356  24.314  0.00  0.00    +0.000 A 
ATOM     29  C   UNL     1      -5.639  -2.914  23.086  0.00  0.00    +0.000 A 
ATOM     32  C   UNL     1      -5.244  -4.193  23.481  0.00  0.00    +0.000 A 
ENDBRANCH   9  16
BRANCH  12  20
ATOM      3  O   UNL     1       0.490  -2.809  25.969  0.00  0.00    -0.249 OA
ATOM     20  C   UNL     1      -0.439  -2.076  25.659  0.00  0.00    +0.325 C 
BRANCH  20   2
ATOM      2  O   UNL     1      -1.265  -1.410  26.516  0.00  0.00    -0.467 OA
ATOM     33  C   UNL     1      -0.609  -0.636  27.525  0.00  0.00    +0.280 C 
ENDBRANCH  20   2
ENDBRANCH  12  20
TORSDOF 4
ENDMDL
