MODEL 1
REMARK VINA RESULT:      -3.9      0.000      0.000
REMARK  Name = 40567551
REMARK  12 active torsions:
REMARK  status: ('A' for Active; 'I' for Inactive)
REMARK    1  A    between atoms: O_1  and  C_10
REMARK    2  A    between atoms: O_2  and  C_11
REMARK    3  A    between atoms: N_6  and  C_9
REMARK    4  A    between atoms: N_7  and  C_22
REMARK    5  A    between atoms: C_14  and  C_21
REMARK    6  A    between atoms: C_15  and  C_16
REMARK    7  A    between atoms: C_15  and  C_18
REMARK    8  A    between atoms: C_15  and  C_19
REMARK    9  A    between atoms: C_15  and  C_20
REMARK   10  A    between atoms: C_16  and  C_17
REMARK   11  A    between atoms: C_22  and  C_23
REMARK   12  A    between atoms: C_22  and  C_24
REMARK                            x       y       z     vdW  Elec       q    Type
REMARK                         _______ _______ _______ _____ _____    ______ ____
ROOT
ATOM      9  C   UNL     1       0.115  -0.574  23.510  0.00  0.00    +0.127 C 
ATOM     10  C   UNL     1      -0.175  -1.550  24.666  0.00  0.00    +0.167 C 
ATOM     11  C   UNL     1      -1.653  -1.957  24.700  0.00  0.00    +0.149 C 
ATOM     12  C   UNL     1      -2.588  -0.739  24.785  0.00  0.00    +0.074 C 
ATOM     13  C   UNL     1      -0.921   0.509  23.371  0.00  0.00    +0.006 C 
ATOM     14  C   UNL     1      -2.125   0.426  23.956  0.00  0.00    +0.015 C 
ENDROOT
BRANCH   9   6
ATOM      3  O   UNL     1       2.124  -0.258  21.451  0.00  0.00    -0.276 OA
ATOM      6  N   UNL     1       1.414   0.038  23.644  0.00  0.00    -0.306 N 
ATOM     17  C   UNL     1       2.314   0.145  22.597  0.00  0.00    +0.214 C 
ATOM     25  H   UNL     1       1.692   0.370  24.563  0.00  0.00    +0.149 HD
BRANCH  17  16
ATOM     16  C   UNL     1       3.614   0.823  22.996  0.00  0.00    +0.102 C 
BRANCH  16  15
ATOM     15  C   UNL     1       4.741  -0.145  23.430  0.00  0.00    -0.029 C 
ATOM     18  C   UNL     1       5.791  -0.307  22.317  0.00  0.00    +0.011 C 
ATOM     19  C   UNL     1       5.434   0.454  24.669  0.00  0.00    +0.011 C 
ATOM     20  C   UNL     1       4.183  -1.527  23.806  0.00  0.00    +0.011 C 
ENDBRANCH  16  15
ENDBRANCH  17  16
ENDBRANCH   9   6
BRANCH  14  21
ATOM      4  O   UNL     1      -3.097   2.139  22.675  0.00  0.00    -0.271 OA
ATOM      7  N   UNL     1      -3.832   1.807  24.863  0.00  0.00    -0.301 N 
ATOM     21  C   UNL     1      -3.056   1.539  23.750  0.00  0.00    +0.240 C 
ATOM     28  H   UNL     1      -3.708   1.246  25.702  0.00  0.00    +0.150 HD
BRANCH   7  22
ATOM     22  C   UNL     1      -4.822   2.859  24.908  0.00  0.00    +0.156 C 
ATOM     23  C   UNL     1      -4.370   4.001  25.804  0.00  0.00    +0.038 C 
BRANCH  22  24
ATOM      5  O   UNL     1      -6.938   1.690  24.677  0.00  0.00    -0.274 OA
ATOM      8  N   UNL     1      -6.294   2.390  26.768  0.00  0.00    -0.328 N 
ATOM     24  C   UNL     1      -6.130   2.262  25.405  0.00  0.00    +0.231 C 
ATOM     29  H   UNL     1      -5.609   2.848  27.359  0.00  0.00    +0.145 HD
ATOM     30  H   UNL     1      -7.121   2.023  27.229  0.00  0.00    +0.145 HD
ENDBRANCH  22  24
ENDBRANCH   7  22
ENDBRANCH  14  21
BRANCH  10   1
ATOM      1  O   UNL     1       0.160  -0.933  25.911  0.00  0.00    -0.387 OA
ATOM     26  H   UNL     1      -0.180  -1.502  26.620  0.00  0.00    +0.210 HD
ENDBRANCH  10   1
BRANCH  11   2
ATOM      2  O   UNL     1      -1.973  -2.741  23.552  0.00  0.00    -0.389 OA
ATOM     27  H   UNL     1      -2.935  -2.683  23.415  0.00  0.00    +0.210 HD
ENDBRANCH  11   2
TORSDOF 8
ENDMDL
MODEL 2
REMARK VINA RESULT:      -3.2      1.750      7.532
REMARK  Name = 40567551
REMARK  12 active torsions:
REMARK  status: ('A' for Active; 'I' for Inactive)
REMARK    1  A    between atoms: O_1  and  C_10
REMARK    2  A    between atoms: O_2  and  C_11
REMARK    3  A    between atoms: N_6  and  C_9
REMARK    4  A    between atoms: N_7  and  C_22
REMARK    5  A    between atoms: C_14  and  C_21
REMARK    6  A    between atoms: C_15  and  C_16
REMARK    7  A    between atoms: C_15  and  C_18
REMARK    8  A    between atoms: C_15  and  C_19
REMARK    9  A    between atoms: C_15  and  C_20
REMARK   10  A    between atoms: C_16  and  C_17
REMARK   11  A    between atoms: C_22  and  C_23
REMARK   12  A    between atoms: C_22  and  C_24
REMARK                            x       y       z     vdW  Elec       q    Type
REMARK                         _______ _______ _______ _____ _____    ______ ____
ROOT
ATOM      9  C   UNL     1      -2.601  -0.439  25.504  0.00  0.00    +0.127 C 
ATOM     10  C   UNL     1      -2.949  -1.647  24.615  0.00  0.00    +0.167 C 
ATOM     11  C   UNL     1      -1.704  -2.478  24.282  0.00  0.00    +0.149 C 
ATOM     12  C   UNL     1      -0.602  -1.632  23.622  0.00  0.00    +0.074 C 
ATOM     13  C   UNL     1      -1.362   0.290  25.058  0.00  0.00    +0.006 C 
ATOM     14  C   UNL     1      -0.479  -0.254  24.207  0.00  0.00    +0.015 C 
ENDROOT
BRANCH   9   6
ATOM      3  O   UNL     1      -3.367   1.515  23.512  0.00  0.00    -0.276 OA
ATOM      6  N   UNL     1      -3.692   0.501  25.577  0.00  0.00    -0.306 N 
ATOM     17  C   UNL     1      -3.985   1.404  24.569  0.00  0.00    +0.214 C 
ATOM     25  H   UNL     1      -4.246   0.523  26.429  0.00  0.00    +0.149 HD
BRANCH  17  16
ATOM     16  C   UNL     1      -5.177   2.290  24.890  0.00  0.00    +0.102 C 
BRANCH  16  15
ATOM     15  C   UNL     1      -4.824   3.767  25.183  0.00  0.00    -0.029 C 
ATOM     18  C   UNL     1      -3.750   3.874  26.279  0.00  0.00    +0.011 C 
ATOM     19  C   UNL     1      -4.262   4.388  23.889  0.00  0.00    +0.011 C 
ATOM     20  C   UNL     1      -6.064   4.570  25.608  0.00  0.00    +0.011 C 
ENDBRANCH  16  15
ENDBRANCH  17  16
ENDBRANCH   9   6
BRANCH  14  21
ATOM      4  O   UNL     1       0.713   1.763  24.039  0.00  0.00    -0.271 OA
ATOM      7  N   UNL     1       1.711  -0.206  23.286  0.00  0.00    -0.301 N 
ATOM     21  C   UNL     1       0.694   0.547  23.844  0.00  0.00    +0.240 C 
ATOM     28  H   UNL     1       1.581  -1.207  23.170  0.00  0.00    +0.150 HD
BRANCH   7  22
ATOM     22  C   UNL     1       2.968   0.356  22.846  0.00  0.00    +0.156 C 
ATOM     23  C   UNL     1       3.141   0.204  21.343  0.00  0.00    +0.038 C 
BRANCH  22  24
ATOM      5  O   UNL     1       4.136  -1.556  23.783  0.00  0.00    -0.274 OA
ATOM      8  N   UNL     1       5.079   0.526  24.011  0.00  0.00    -0.328 N 
ATOM     24  C   UNL     1       4.091  -0.342  23.597  0.00  0.00    +0.231 C 
ATOM     29  H   UNL     1       5.038   1.524  23.833  0.00  0.00    +0.145 HD
ATOM     30  H   UNL     1       5.893   0.187  24.514  0.00  0.00    +0.145 HD
ENDBRANCH  22  24
ENDBRANCH   7  22
ENDBRANCH  14  21
BRANCH  10   1
ATOM      1  O   UNL     1      -3.537  -1.192  23.395  0.00  0.00    -0.387 OA
ATOM     26  H   UNL     1      -4.269  -1.794  23.180  0.00  0.00    +0.210 HD
ENDBRANCH  10   1
BRANCH  11   2
ATOM      2  O   UNL     1      -1.201  -3.103  25.462  0.00  0.00    -0.389 OA
ATOM     27  H   UNL     1      -1.949  -3.538  25.906  0.00  0.00    +0.210 HD
ENDBRANCH  11   2
TORSDOF 8
ENDMDL
MODEL 3
REMARK VINA RESULT:      -2.4     17.656     18.990
REMARK  Name = 40567551
REMARK  12 active torsions:
REMARK  status: ('A' for Active; 'I' for Inactive)
REMARK    1  A    between atoms: O_1  and  C_10
REMARK    2  A    between atoms: O_2  and  C_11
REMARK    3  A    between atoms: N_6  and  C_9
REMARK    4  A    between atoms: N_7  and  C_22
REMARK    5  A    between atoms: C_14  and  C_21
REMARK    6  A    between atoms: C_15  and  C_16
REMARK    7  A    between atoms: C_15  and  C_18
REMARK    8  A    between atoms: C_15  and  C_19
REMARK    9  A    between atoms: C_15  and  C_20
REMARK   10  A    between atoms: C_16  and  C_17
REMARK   11  A    between atoms: C_22  and  C_23
REMARK   12  A    between atoms: C_22  and  C_24
REMARK                            x       y       z     vdW  Elec       q    Type
REMARK                         _______ _______ _______ _____ _____    ______ ____
ROOT
ATOM      9  C   UNL     1      14.041  -7.416  29.844  0.00  0.00    +0.127 C 
ATOM     10  C   UNL     1      13.347  -8.171  30.994  0.00  0.00    +0.167 C 
ATOM     11  C   UNL     1      12.564  -7.215  31.902  0.00  0.00    +0.149 C 
ATOM     12  C   UNL     1      13.452  -6.091  32.463  0.00  0.00    +0.074 C 
ATOM     13  C   UNL     1      14.719  -6.148  30.289  0.00  0.00    +0.006 C 
ATOM     14  C   UNL     1      14.451  -5.570  31.469  0.00  0.00    +0.015 C 
ENDROOT
BRANCH   9   6
ATOM      3  O   UNL     1      15.720  -6.683  27.604  0.00  0.00    -0.276 OA
ATOM      6  N   UNL     1      15.006  -8.247  29.168  0.00  0.00    -0.306 N 
ATOM     17  C   UNL     1      15.769  -7.808  28.098  0.00  0.00    +0.214 C 
ATOM     25  H   UNL     1      15.099  -9.213  29.470  0.00  0.00    +0.149 HD
BRANCH  17  16
ATOM     16  C   UNL     1      16.705  -8.875  27.556  0.00  0.00    +0.102 C 
BRANCH  16  15
ATOM     15  C   UNL     1      16.044  -9.882  26.585  0.00  0.00    -0.029 C 
ATOM     18  C   UNL     1      15.341  -9.154  25.426  0.00  0.00    +0.011 C 
ATOM     19  C   UNL     1      17.153 -10.775  25.996  0.00  0.00    +0.011 C 
ATOM     20  C   UNL     1      15.029 -10.781  27.308  0.00  0.00    +0.011 C 
ENDBRANCH  16  15
ENDBRANCH  17  16
ENDBRANCH   9   6
BRANCH  14  21
ATOM      4  O   UNL     1      14.651  -3.469  32.500  0.00  0.00    -0.271 OA
ATOM      7  N   UNL     1      16.435  -4.283  31.238  0.00  0.00    -0.301 N 
ATOM     21  C   UNL     1      15.170  -4.335  31.796  0.00  0.00    +0.240 C 
ATOM     28  H   UNL     1      16.759  -5.059  30.668  0.00  0.00    +0.150 HD
BRANCH   7  22
ATOM     22  C   UNL     1      17.337  -3.167  31.415  0.00  0.00    +0.156 C 
ATOM     23  C   UNL     1      17.405  -2.742  32.873  0.00  0.00    +0.038 C 
BRANCH  22  24
ATOM      5  O   UNL     1      16.657  -2.129  29.328  0.00  0.00    -0.274 OA
ATOM      8  N   UNL     1      16.627  -0.862  31.245  0.00  0.00    -0.328 N 
ATOM     24  C   UNL     1      16.857  -2.022  30.536  0.00  0.00    +0.231 C 
ATOM     29  H   UNL     1      16.778  -0.796  32.246  0.00  0.00    +0.145 HD
ATOM     30  H   UNL     1      16.292  -0.025  30.778  0.00  0.00    +0.145 HD
ENDBRANCH  22  24
ENDBRANCH   7  22
ENDBRANCH  14  21
BRANCH  10   1
ATOM      1  O   UNL     1      14.326  -8.853  31.780  0.00  0.00    -0.387 OA
ATOM     26  H   UNL     1      14.776  -8.189  32.329  0.00  0.00    +0.210 HD
ENDBRANCH  10   1
BRANCH  11   2
ATOM      2  O   UNL     1      11.459  -6.659  31.193  0.00  0.00    -0.389 OA
ATOM     27  H   UNL     1      10.830  -6.315  31.850  0.00  0.00    +0.210 HD
ENDBRANCH  11   2
TORSDOF 8
ENDMDL
MODEL 4
REMARK VINA RESULT:      -2.0     17.322     18.704
REMARK  Name = 40567551
REMARK  12 active torsions:
REMARK  status: ('A' for Active; 'I' for Inactive)
REMARK    1  A    between atoms: O_1  and  C_10
REMARK    2  A    between atoms: O_2  and  C_11
REMARK    3  A    between atoms: N_6  and  C_9
REMARK    4  A    between atoms: N_7  and  C_22
REMARK    5  A    between atoms: C_14  and  C_21
REMARK    6  A    between atoms: C_15  and  C_16
REMARK    7  A    between atoms: C_15  and  C_18
REMARK    8  A    between atoms: C_15  and  C_19
REMARK    9  A    between atoms: C_15  and  C_20
REMARK   10  A    between atoms: C_16  and  C_17
REMARK   11  A    between atoms: C_22  and  C_23
REMARK   12  A    between atoms: C_22  and  C_24
REMARK                            x       y       z     vdW  Elec       q    Type
REMARK                         _______ _______ _______ _____ _____    ______ ____
ROOT
ATOM      9  C   UNL     1      15.313  -6.862  26.379  0.00  0.00    +0.127 C 
ATOM     10  C   UNL     1      16.018  -8.048  25.694  0.00  0.00    +0.167 C 
ATOM     11  C   UNL     1      15.408  -9.388  26.123  0.00  0.00    +0.149 C 
ATOM     12  C   UNL     1      15.425  -9.569  27.650  0.00  0.00    +0.074 C 
ATOM     13  C   UNL     1      15.060  -7.087  27.846  0.00  0.00    +0.006 C 
ATOM     14  C   UNL     1      15.122  -8.306  28.403  0.00  0.00    +0.015 C 
ENDROOT
BRANCH   9   6
ATOM      3  O   UNL     1      16.683  -5.942  24.001  0.00  0.00    -0.276 OA
ATOM      6  N   UNL     1      16.056  -5.636  26.218  0.00  0.00    -0.306 N 
ATOM     17  C   UNL     1      16.682  -5.278  25.036  0.00  0.00    +0.214 C 
ATOM     25  H   UNL     1      16.155  -5.029  27.027  0.00  0.00    +0.149 HD
BRANCH  17  16
ATOM     16  C   UNL     1      17.405  -3.944  25.125  0.00  0.00    +0.102 C 
BRANCH  16  15
ATOM     15  C   UNL     1      16.746  -2.797  24.324  0.00  0.00    -0.029 C 
ATOM     18  C   UNL     1      15.231  -3.023  24.176  0.00  0.00    +0.011 C 
ATOM     19  C   UNL     1      16.968  -1.484  25.099  0.00  0.00    +0.011 C 
ATOM     20  C   UNL     1      17.375  -2.649  22.929  0.00  0.00    +0.011 C 
ENDBRANCH  16  15
ENDBRANCH  17  16
ENDBRANCH   9   6
BRANCH  14  21
ATOM      4  O   UNL     1      15.031  -9.465  30.444  0.00  0.00    -0.271 OA
ATOM      7  N   UNL     1      14.404  -7.219  30.391  0.00  0.00    -0.301 N 
ATOM     21  C   UNL     1      14.855  -8.406  29.841  0.00  0.00    +0.240 C 
ATOM     28  H   UNL     1      14.292  -6.406  29.792  0.00  0.00    +0.150 HD
BRANCH   7  22
ATOM     22  C   UNL     1      14.071  -7.066  31.789  0.00  0.00    +0.156 C 
ATOM     23  C   UNL     1      12.645  -6.567  31.962  0.00  0.00    +0.038 C 
BRANCH  22  24
ATOM      5  O   UNL     1      14.859  -4.896  32.540  0.00  0.00    -0.274 OA
ATOM      8  N   UNL     1      16.210  -6.726  32.862  0.00  0.00    -0.328 N 
ATOM     24  C   UNL     1      15.066  -6.100  32.413  0.00  0.00    +0.231 C 
ATOM     29  H   UNL     1      16.358  -7.725  32.768  0.00  0.00    +0.145 HD
ATOM     30  H   UNL     1      16.951  -6.196  33.310  0.00  0.00    +0.145 HD
ENDBRANCH  22  24
ENDBRANCH   7  22
ENDBRANCH  14  21
BRANCH  10   1
ATOM      1  O   UNL     1      17.405  -8.044  26.035  0.00  0.00    -0.387 OA
ATOM     26  H   UNL     1      17.758  -7.166  25.817  0.00  0.00    +0.210 HD
ENDBRANCH  10   1
BRANCH  11   2
ATOM      2  O   UNL     1      14.074  -9.500  25.631  0.00  0.00    -0.389 OA
ATOM     27  H   UNL     1      13.685  -8.608  25.627  0.00  0.00    +0.210 HD
ENDBRANCH  11   2
TORSDOF 8
ENDMDL
MODEL 5
REMARK VINA RESULT:      -1.9      2.104      7.200
REMARK  Name = 40567551
REMARK  12 active torsions:
REMARK  status: ('A' for Active; 'I' for Inactive)
REMARK    1  A    between atoms: O_1  and  C_10
REMARK    2  A    between atoms: O_2  and  C_11
REMARK    3  A    between atoms: N_6  and  C_9
REMARK    4  A    between atoms: N_7  and  C_22
REMARK    5  A    between atoms: C_14  and  C_21
REMARK    6  A    between atoms: C_15  and  C_16
REMARK    7  A    between atoms: C_15  and  C_18
REMARK    8  A    between atoms: C_15  and  C_19
REMARK    9  A    between atoms: C_15  and  C_20
REMARK   10  A    between atoms: C_16  and  C_17
REMARK   11  A    between atoms: C_22  and  C_23
REMARK   12  A    between atoms: C_22  and  C_24
REMARK                            x       y       z     vdW  Elec       q    Type
REMARK                         _______ _______ _______ _____ _____    ______ ____
ROOT
ATOM      9  C   UNL     1      -3.789  -0.679  25.341  0.00  0.00    +0.127 C 
ATOM     10  C   UNL     1      -4.325  -1.796  24.426  0.00  0.00    +0.167 C 
ATOM     11  C   UNL     1      -3.411  -3.027  24.446  0.00  0.00    +0.149 C 
ATOM     12  C   UNL     1      -1.961  -2.679  24.068  0.00  0.00    +0.074 C 
ATOM     13  C   UNL     1      -2.305  -0.462  25.208  0.00  0.00    +0.006 C 
ATOM     14  C   UNL     1      -1.499  -1.363  24.626  0.00  0.00    +0.015 C 
ENDROOT
BRANCH   9   6
ATOM      3  O   UNL     1      -2.972   1.446  23.555  0.00  0.00    -0.276 OA
ATOM      6  N   UNL     1      -4.466   0.572  25.106  0.00  0.00    -0.306 N 
ATOM     17  C   UNL     1      -3.997   1.535  24.228  0.00  0.00    +0.214 C 
ATOM     25  H   UNL     1      -5.305   0.768  25.644  0.00  0.00    +0.149 HD
BRANCH  17  16
ATOM     16  C   UNL     1      -4.885   2.767  24.166  0.00  0.00    +0.102 C 
BRANCH  16  15
ATOM     15  C   UNL     1      -5.071   3.498  25.516  0.00  0.00    -0.029 C 
ATOM     18  C   UNL     1      -5.881   4.794  25.336  0.00  0.00    +0.011 C 
ATOM     19  C   UNL     1      -5.852   2.565  26.461  0.00  0.00    +0.011 C 
ATOM     20  C   UNL     1      -3.720   3.831  26.169  0.00  0.00    +0.011 C 
ENDBRANCH  16  15
ENDBRANCH  17  16
ENDBRANCH   9   6
BRANCH  14  21
ATOM      4  O   UNL     1       0.770  -1.798  25.049  0.00  0.00    -0.271 OA
ATOM      7  N   UNL     1       0.186   0.143  23.895  0.00  0.00    -0.301 N 
ATOM     21  C   UNL     1      -0.070  -1.046  24.554  0.00  0.00    +0.240 C 
ATOM     28  H   UNL     1      -0.591   0.686  23.530  0.00  0.00    +0.150 HD
BRANCH   7  22
ATOM     22  C   UNL     1       1.517   0.671  23.697  0.00  0.00    +0.156 C 
ATOM     23  C   UNL     1       1.512   2.192  23.715  0.00  0.00    +0.038 C 
BRANCH  22  24
ATOM      5  O   UNL     1       1.371  -0.510  21.580  0.00  0.00    -0.274 OA
ATOM      8  N   UNL     1       3.353   0.513  22.132  0.00  0.00    -0.328 N 
ATOM     24  C   UNL     1       2.047   0.143  22.372  0.00  0.00    +0.231 C 
ATOM     29  H   UNL     1       3.892   1.069  22.787  0.00  0.00    +0.145 HD
ATOM     30  H   UNL     1       3.824   0.235  21.277  0.00  0.00    +0.145 HD
ENDBRANCH  22  24
ENDBRANCH   7  22
ENDBRANCH  14  21
BRANCH  10   1
ATOM      1  O   UNL     1      -4.416  -1.314  23.084  0.00  0.00    -0.387 OA
ATOM     26  H   UNL     1      -4.954  -0.506  23.099  0.00  0.00    +0.210 HD
ENDBRANCH  10   1
BRANCH  11   2
ATOM      2  O   UNL     1      -3.446  -3.644  25.732  0.00  0.00    -0.389 OA
ATOM     27  H   UNL     1      -3.149  -4.564  25.625  0.00  0.00    +0.210 HD
ENDBRANCH  11   2
TORSDOF 8
ENDMDL
MODEL 6
REMARK VINA RESULT:      -1.9     17.739     19.183
REMARK  Name = 40567551
REMARK  12 active torsions:
REMARK  status: ('A' for Active; 'I' for Inactive)
REMARK    1  A    between atoms: O_1  and  C_10
REMARK    2  A    between atoms: O_2  and  C_11
REMARK    3  A    between atoms: N_6  and  C_9
REMARK    4  A    between atoms: N_7  and  C_22
REMARK    5  A    between atoms: C_14  and  C_21
REMARK    6  A    between atoms: C_15  and  C_16
REMARK    7  A    between atoms: C_15  and  C_18
REMARK    8  A    between atoms: C_15  and  C_19
REMARK    9  A    between atoms: C_15  and  C_20
REMARK   10  A    between atoms: C_16  and  C_17
REMARK   11  A    between atoms: C_22  and  C_23
REMARK   12  A    between atoms: C_22  and  C_24
REMARK                            x       y       z     vdW  Elec       q    Type
REMARK                         _______ _______ _______ _____ _____    ______ ____
ROOT
ATOM      9  C   UNL     1      15.460  -7.944  26.009  0.00  0.00    +0.127 C 
ATOM     10  C   UNL     1      15.976  -9.387  25.853  0.00  0.00    +0.167 C 
ATOM     11  C   UNL     1      15.494 -10.283  27.000  0.00  0.00    +0.149 C 
ATOM     12  C   UNL     1      15.889  -9.723  28.377  0.00  0.00    +0.074 C 
ATOM     13  C   UNL     1      15.578  -7.419  27.414  0.00  0.00    +0.006 C 
ATOM     14  C   UNL     1      15.779  -8.228  28.466  0.00  0.00    +0.015 C 
ENDROOT
BRANCH   9   6
ATOM      3  O   UNL     1      16.824  -5.489  26.706  0.00  0.00    -0.276 OA
ATOM      6  N   UNL     1      16.137  -7.037  25.115  0.00  0.00    -0.306 N 
ATOM     17  C   UNL     1      16.765  -5.879  25.541  0.00  0.00    +0.214 C 
ATOM     25  H   UNL     1      16.114  -7.243  24.120  0.00  0.00    +0.149 HD
BRANCH  17  16
ATOM     16  C   UNL     1      17.397  -5.092  24.406  0.00  0.00    +0.102 C 
BRANCH  16  15
ATOM     15  C   UNL     1      16.860  -3.650  24.241  0.00  0.00    -0.029 C 
ATOM     18  C   UNL     1      17.400  -2.728  25.349  0.00  0.00    +0.011 C 
ATOM     19  C   UNL     1      17.345  -3.112  22.882  0.00  0.00    +0.011 C 
ATOM     20  C   UNL     1      15.323  -3.615  24.258  0.00  0.00    +0.011 C 
ENDBRANCH  16  15
ENDBRANCH  17  16
ENDBRANCH   9   6
BRANCH  14  21
ATOM      4  O   UNL     1      15.797  -8.283  30.814  0.00  0.00    -0.271 OA
ATOM      7  N   UNL     1      16.057  -6.235  29.729  0.00  0.00    -0.301 N 
ATOM     21  C   UNL     1      15.876  -7.606  29.789  0.00  0.00    +0.240 C 
ATOM     28  H   UNL     1      16.104  -5.780  28.822  0.00  0.00    +0.150 HD
BRANCH   7  22
ATOM     22  C   UNL     1      16.179  -5.398  30.901  0.00  0.00    +0.156 C 
ATOM     23  C   UNL     1      14.839  -5.234  31.601  0.00  0.00    +0.038 C 
BRANCH  22  24
ATOM      5  O   UNL     1      17.284  -3.855  29.385  0.00  0.00    -0.274 OA
ATOM      8  N   UNL     1      16.521  -3.056  31.399  0.00  0.00    -0.328 N 
ATOM     24  C   UNL     1      16.736  -4.050  30.467  0.00  0.00    +0.231 C 
ATOM     29  H   UNL     1      16.049  -3.228  32.280  0.00  0.00    +0.145 HD
ATOM     30  H   UNL     1      16.833  -2.106  31.227  0.00  0.00    +0.145 HD
ENDBRANCH  22  24
ENDBRANCH   7  22
ENDBRANCH  14  21
BRANCH  10   1
ATOM      1  O   UNL     1      17.404  -9.388  25.838  0.00  0.00    -0.387 OA
ATOM     26  H   UNL     1      17.688  -9.767  24.990  0.00  0.00    +0.210 HD
ENDBRANCH  10   1
BRANCH  11   2
ATOM      2  O   UNL     1      14.080 -10.456  26.928  0.00  0.00    -0.389 OA
ATOM     27  H   UNL     1      13.668  -9.689  27.361  0.00  0.00    +0.210 HD
ENDBRANCH  11   2
TORSDOF 8
ENDMDL
MODEL 7
REMARK VINA RESULT:      -1.7      1.959      7.020
REMARK  Name = 40567551
REMARK  12 active torsions:
REMARK  status: ('A' for Active; 'I' for Inactive)
REMARK    1  A    between atoms: O_1  and  C_10
REMARK    2  A    between atoms: O_2  and  C_11
REMARK    3  A    between atoms: N_6  and  C_9
REMARK    4  A    between atoms: N_7  and  C_22
REMARK    5  A    between atoms: C_14  and  C_21
REMARK    6  A    between atoms: C_15  and  C_16
REMARK    7  A    between atoms: C_15  and  C_18
REMARK    8  A    between atoms: C_15  and  C_19
REMARK    9  A    between atoms: C_15  and  C_20
REMARK   10  A    between atoms: C_16  and  C_17
REMARK   11  A    between atoms: C_22  and  C_23
REMARK   12  A    between atoms: C_22  and  C_24
REMARK                            x       y       z     vdW  Elec       q    Type
REMARK                         _______ _______ _______ _____ _____    ______ ____
ROOT
ATOM      9  C   UNL     1      -1.697   0.159  25.176  0.00  0.00    +0.127 C 
ATOM     10  C   UNL     1      -2.702  -0.901  24.688  0.00  0.00    +0.167 C 
ATOM     11  C   UNL     1      -2.005  -2.228  24.361  0.00  0.00    +0.149 C 
ATOM     12  C   UNL     1      -0.877  -2.051  23.331  0.00  0.00    +0.074 C 
ATOM     13  C   UNL     1      -0.436   0.206  24.355  0.00  0.00    +0.006 C 
ATOM     14  C   UNL     1      -0.086  -0.789  23.525  0.00  0.00    +0.015 C 
ENDROOT
BRANCH   9   6
ATOM      3  O   UNL     1      -2.082   1.951  22.936  0.00  0.00    -0.276 OA
ATOM      6  N   UNL     1      -2.283   1.476  25.203  0.00  0.00    -0.306 N 
ATOM     17  C   UNL     1      -2.427   2.266  24.074  0.00  0.00    +0.214 C 
ATOM     25  H   UNL     1      -2.567   1.854  26.103  0.00  0.00    +0.149 HD
BRANCH  17  16
ATOM     16  C   UNL     1      -3.066   3.613  24.367  0.00  0.00    +0.102 C 
BRANCH  16  15
ATOM     15  C   UNL     1      -2.339   4.452  25.445  0.00  0.00    -0.029 C 
ATOM     18  C   UNL     1      -2.165   5.911  24.987  0.00  0.00    +0.011 C 
ATOM     19  C   UNL     1      -3.204   4.444  26.720  0.00  0.00    +0.011 C 
ATOM     20  C   UNL     1      -0.963   3.861  25.787  0.00  0.00    +0.011 C 
ENDBRANCH  16  15
ENDBRANCH  17  16
ENDBRANCH   9   6
BRANCH  14  21
ATOM      4  O   UNL     1       1.155  -0.386  21.572  0.00  0.00    -0.271 OA
ATOM      7  N   UNL     1       2.290  -0.804  23.566  0.00  0.00    -0.301 N 
ATOM     21  C   UNL     1       1.165  -0.636  22.777  0.00  0.00    +0.240 C 
ATOM     28  H   UNL     1       2.177  -1.013  24.554  0.00  0.00    +0.150 HD
BRANCH   7  22
ATOM     22  C   UNL     1       3.639  -0.703  23.058  0.00  0.00    +0.156 C 
ATOM     23  C   UNL     1       4.568  -1.674  23.771  0.00  0.00    +0.038 C 
BRANCH  22  24
ATOM      5  O   UNL     1       3.489   1.710  22.826  0.00  0.00    -0.274 OA
ATOM      8  N   UNL     1       5.287   0.825  23.950  0.00  0.00    -0.328 N 
ATOM     24  C   UNL     1       4.110   0.732  23.238  0.00  0.00    +0.231 C 
ATOM     29  H   UNL     1       5.778   0.009  24.300  0.00  0.00    +0.145 HD
ATOM     30  H   UNL     1       5.704   1.728  24.150  0.00  0.00    +0.145 HD
ENDBRANCH  22  24
ENDBRANCH   7  22
ENDBRANCH  14  21
BRANCH  10   1
ATOM      1  O   UNL     1      -3.366  -0.429  23.515  0.00  0.00    -0.387 OA
ATOM     26  H   UNL     1      -3.589  -1.204  22.973  0.00  0.00    +0.210 HD
ENDBRANCH  10   1
BRANCH  11   2
ATOM      2  O   UNL     1      -1.492  -2.820  25.553  0.00  0.00    -0.389 OA
ATOM     27  H   UNL     1      -1.137  -2.104  26.108  0.00  0.00    +0.210 HD
ENDBRANCH  11   2
TORSDOF 8
ENDMDL
MODEL 8
REMARK VINA RESULT:      -0.3      2.483      4.444
REMARK  Name = 40567551
REMARK  12 active torsions:
REMARK  status: ('A' for Active; 'I' for Inactive)
REMARK    1  A    between atoms: O_1  and  C_10
REMARK    2  A    between atoms: O_2  and  C_11
REMARK    3  A    between atoms: N_6  and  C_9
REMARK    4  A    between atoms: N_7  and  C_22
REMARK    5  A    between atoms: C_14  and  C_21
REMARK    6  A    between atoms: C_15  and  C_16
REMARK    7  A    between atoms: C_15  and  C_18
REMARK    8  A    between atoms: C_15  and  C_19
REMARK    9  A    between atoms: C_15  and  C_20
REMARK   10  A    between atoms: C_16  and  C_17
REMARK   11  A    between atoms: C_22  and  C_23
REMARK   12  A    between atoms: C_22  and  C_24
REMARK                            x       y       z     vdW  Elec       q    Type
REMARK                         _______ _______ _______ _____ _____    ______ ____
ROOT
ATOM      9  C   UNL     1      -0.586   2.722  25.604  0.00  0.00    +0.127 C 
ATOM     10  C   UNL     1      -1.090   4.020  24.945  0.00  0.00    +0.167 C 
ATOM     11  C   UNL     1      -2.577   4.256  25.234  0.00  0.00    +0.149 C 
ATOM     12  C   UNL     1      -3.448   3.065  24.798  0.00  0.00    +0.074 C 
ATOM     13  C   UNL     1      -1.532   1.563  25.436  0.00  0.00    +0.006 C 
ATOM     14  C   UNL     1      -2.811   1.731  25.065  0.00  0.00    +0.015 C 
ENDROOT
BRANCH   9   6
ATOM      3  O   UNL     1      -0.015   1.050  23.312  0.00  0.00    -0.276 OA
ATOM      6  N   UNL     1       0.711   2.339  25.104  0.00  0.00    -0.306 N 
ATOM     17  C   UNL     1       0.888   1.530  23.994  0.00  0.00    +0.214 C 
ATOM     25  H   UNL     1       1.531   2.649  25.619  0.00  0.00    +0.149 HD
BRANCH  17  16
ATOM     16  C   UNL     1       2.351   1.267  23.676  0.00  0.00    +0.102 C 
BRANCH  16  15
ATOM     15  C   UNL     1       2.603   0.050  22.754  0.00  0.00    -0.029 C 
ATOM     18  C   UNL     1       1.300  -0.412  22.079  0.00  0.00    +0.011 C 
ATOM     19  C   UNL     1       3.593   0.481  21.656  0.00  0.00    +0.011 C 
ATOM     20  C   UNL     1       3.218  -1.126  23.529  0.00  0.00    +0.011 C 
ENDBRANCH  16  15
ENDBRANCH  17  16
ENDBRANCH   9   6
BRANCH  14  21
ATOM      4  O   UNL     1      -4.759   0.587  24.423  0.00  0.00    -0.271 OA
ATOM      7  N   UNL     1      -3.031  -0.604  25.439  0.00  0.00    -0.301 N 
ATOM     21  C   UNL     1      -3.641   0.531  24.936  0.00  0.00    +0.240 C 
ATOM     28  H   UNL     1      -2.103  -0.531  25.845  0.00  0.00    +0.150 HD
BRANCH   7  22
ATOM     22  C   UNL     1      -3.650  -1.911  25.428  0.00  0.00    +0.156 C 
ATOM     23  C   UNL     1      -3.063  -2.805  26.509  0.00  0.00    +0.038 C 
BRANCH  22  24
ATOM      5  O   UNL     1      -4.340  -2.605  23.205  0.00  0.00    -0.274 OA
ATOM      8  N   UNL     1      -2.152  -2.929  23.826  0.00  0.00    -0.328 N 
ATOM     24  C   UNL     1      -3.450  -2.520  24.048  0.00  0.00    +0.231 C 
ATOM     29  H   UNL     1      -1.423  -2.835  24.526  0.00  0.00    +0.145 HD
ATOM     30  H   UNL     1      -1.881  -3.343  22.940  0.00  0.00    +0.145 HD
ENDBRANCH  22  24
ENDBRANCH   7  22
ENDBRANCH  14  21
BRANCH  10   1
ATOM      1  O   UNL     1      -0.902   3.944  23.531  0.00  0.00    -0.387 OA
ATOM     26  H   UNL     1      -0.798   3.006  23.299  0.00  0.00    +0.210 HD
ENDBRANCH  10   1
BRANCH  11   2
ATOM      2  O   UNL     1      -2.772   4.523  26.621  0.00  0.00    -0.389 OA
ATOM     27  H   UNL     1      -2.314   3.827  27.122  0.00  0.00    +0.210 HD
ENDBRANCH  11   2
TORSDOF 8
ENDMDL
MODEL 9
REMARK VINA RESULT:      -0.2      2.375      5.330
REMARK  Name = 40567551
REMARK  12 active torsions:
REMARK  status: ('A' for Active; 'I' for Inactive)
REMARK    1  A    between atoms: O_1  and  C_10
REMARK    2  A    between atoms: O_2  and  C_11
REMARK    3  A    between atoms: N_6  and  C_9
REMARK    4  A    between atoms: N_7  and  C_22
REMARK    5  A    between atoms: C_14  and  C_21
REMARK    6  A    between atoms: C_15  and  C_16
REMARK    7  A    between atoms: C_15  and  C_18
REMARK    8  A    between atoms: C_15  and  C_19
REMARK    9  A    between atoms: C_15  and  C_20
REMARK   10  A    between atoms: C_16  and  C_17
REMARK   11  A    between atoms: C_22  and  C_23
REMARK   12  A    between atoms: C_22  and  C_24
REMARK                            x       y       z     vdW  Elec       q    Type
REMARK                         _______ _______ _______ _____ _____    ______ ____
ROOT
ATOM      9  C   UNL     1       0.679  -0.288  24.018  0.00  0.00    +0.127 C 
ATOM     10  C   UNL     1       1.575  -0.132  22.774  0.00  0.00    +0.167 C 
ATOM     11  C   UNL     1       2.418   1.147  22.845  0.00  0.00    +0.149 C 
ATOM     12  C   UNL     1       1.550   2.402  23.035  0.00  0.00    +0.074 C 
ATOM     13  C   UNL     1      -0.006   0.991  24.420  0.00  0.00    +0.006 C 
ATOM     14  C   UNL     1       0.390   2.189  23.964  0.00  0.00    +0.015 C 
ENDROOT
BRANCH   9   6
ATOM      3  O   UNL     1      -1.036  -1.451  26.037  0.00  0.00    -0.276 OA
ATOM      6  N   UNL     1      -0.318  -1.312  23.831  0.00  0.00    -0.306 N 
ATOM     17  C   UNL     1      -1.096  -1.810  24.863  0.00  0.00    +0.214 C 
ATOM     25  H   UNL     1      -0.423  -1.712  22.902  0.00  0.00    +0.149 HD
BRANCH  17  16
ATOM     16  C   UNL     1      -2.067  -2.888  24.409  0.00  0.00    +0.102 C 
BRANCH  16  15
ATOM     15  C   UNL     1      -3.548  -2.443  24.354  0.00  0.00    -0.029 C 
ATOM     18  C   UNL     1      -4.462  -3.612  23.947  0.00  0.00    +0.011 C 
ATOM     19  C   UNL     1      -3.957  -1.975  25.764  0.00  0.00    +0.011 C 
ATOM     20  C   UNL     1      -3.750  -1.275  23.376  0.00  0.00    +0.011 C 
ENDBRANCH  16  15
ENDBRANCH  17  16
ENDBRANCH   9   6
BRANCH  14  21
ATOM      4  O   UNL     1       0.217   4.447  24.589  0.00  0.00    -0.271 OA
ATOM      7  N   UNL     1      -1.694   3.110  24.637  0.00  0.00    -0.301 N 
ATOM     21  C   UNL     1      -0.351   3.366  24.425  0.00  0.00    +0.240 C 
ATOM     28  H   UNL     1      -2.053   2.174  24.472  0.00  0.00    +0.150 HD
BRANCH   7  22
ATOM     22  C   UNL     1      -2.632   4.111  25.095  0.00  0.00    +0.156 C 
ATOM     23  C   UNL     1      -2.572   4.269  26.606  0.00  0.00    +0.038 C 
BRANCH  22  24
ATOM      5  O   UNL     1      -5.051   3.978  25.261  0.00  0.00    -0.274 OA
ATOM      8  N   UNL     1      -4.021   3.017  23.446  0.00  0.00    -0.328 N 
ATOM     24  C   UNL     1      -4.025   3.699  24.644  0.00  0.00    +0.231 C 
ATOM     29  H   UNL     1      -3.168   2.811  22.938  0.00  0.00    +0.145 HD
ATOM     30  H   UNL     1      -4.889   2.695  23.028  0.00  0.00    +0.145 HD
ENDBRANCH  22  24
ENDBRANCH   7  22
ENDBRANCH  14  21
BRANCH  10   1
ATOM      1  O   UNL     1       0.763  -0.084  21.600  0.00  0.00    -0.387 OA
ATOM     26  H   UNL     1       1.333   0.184  20.861  0.00  0.00    +0.210 HD
ENDBRANCH  10   1
BRANCH  11   2
ATOM      2  O   UNL     1       3.374   1.048  23.898  0.00  0.00    -0.389 OA
ATOM     27  H   UNL     1       3.606   0.108  23.998  0.00  0.00    +0.210 HD
ENDBRANCH  11   2
TORSDOF 8
ENDMDL
MODEL 10
REMARK VINA RESULT:      -0.0      2.921      5.064
REMARK  Name = 40567551
REMARK  12 active torsions:
REMARK  status: ('A' for Active; 'I' for Inactive)
REMARK    1  A    between atoms: O_1  and  C_10
REMARK    2  A    between atoms: O_2  and  C_11
REMARK    3  A    between atoms: N_6  and  C_9
REMARK    4  A    between atoms: N_7  and  C_22
REMARK    5  A    between atoms: C_14  and  C_21
REMARK    6  A    between atoms: C_15  and  C_16
REMARK    7  A    between atoms: C_15  and  C_18
REMARK    8  A    between atoms: C_15  and  C_19
REMARK    9  A    between atoms: C_15  and  C_20
REMARK   10  A    between atoms: C_16  and  C_17
REMARK   11  A    between atoms: C_22  and  C_23
REMARK   12  A    between atoms: C_22  and  C_24
REMARK                            x       y       z     vdW  Elec       q    Type
REMARK                         _______ _______ _______ _____ _____    ______ ____
ROOT
ATOM      9  C   UNL     1      -0.599   0.932  25.882  0.00  0.00    +0.127 C 
ATOM     10  C   UNL     1       0.561   1.587  25.108  0.00  0.00    +0.167 C 
ATOM     11  C   UNL     1       0.667   3.085  25.415  0.00  0.00    +0.149 C 
ATOM     12  C   UNL     1      -0.649   3.829  25.130  0.00  0.00    +0.074 C 
ATOM     13  C   UNL     1      -1.863   1.750  25.863  0.00  0.00    +0.006 C 
ATOM     14  C   UNL     1      -1.871   3.046  25.515  0.00  0.00    +0.015 C 
ENDROOT
BRANCH   9   6
ATOM      3  O   UNL     1      -2.217   0.243  23.583  0.00  0.00    -0.276 OA
ATOM      6  N   UNL     1      -0.892  -0.389  25.385  0.00  0.00    -0.306 N 
ATOM     17  C   UNL     1      -1.681  -0.623  24.271  0.00  0.00    +0.214 C 
ATOM     25  H   UNL     1      -0.533  -1.185  25.905  0.00  0.00    +0.149 HD
BRANCH  17  16
ATOM     16  C   UNL     1      -1.846  -2.101  23.958  0.00  0.00    +0.102 C 
BRANCH  16  15
ATOM     15  C   UNL     1      -3.235  -2.686  24.308  0.00  0.00    -0.029 C 
ATOM     18  C   UNL     1      -3.432  -4.069  23.663  0.00  0.00    +0.011 C 
ATOM     19  C   UNL     1      -3.313  -2.848  25.838  0.00  0.00    +0.011 C 
ATOM     20  C   UNL     1      -4.369  -1.751  23.859  0.00  0.00    +0.011 C 
ENDBRANCH  16  15
ENDBRANCH  17  16
ENDBRANCH   9   6
BRANCH  14  21
ATOM      4  O   UNL     1      -3.245   4.905  25.931  0.00  0.00    -0.271 OA
ATOM      7  N   UNL     1      -4.204   2.961  25.073  0.00  0.00    -0.301 N 
ATOM     21  C   UNL     1      -3.160   3.743  25.534  0.00  0.00    +0.240 C 
ATOM     28  H   UNL     1      -4.016   2.008  24.773  0.00  0.00    +0.150 HD
BRANCH   7  22
ATOM     22  C   UNL     1      -5.572   3.424  24.997  0.00  0.00    +0.156 C 
ATOM     23  C   UNL     1      -5.787   4.644  25.878  0.00  0.00    +0.038 C 
BRANCH  22  24
ATOM      5  O   UNL     1      -7.142   1.609  24.624  0.00  0.00    -0.274 OA
ATOM      8  N   UNL     1      -6.466   2.050  26.775  0.00  0.00    -0.328 N 
ATOM     24  C   UNL     1      -6.485   2.282  25.416  0.00  0.00    +0.231 C 
ATOM     29  H   UNL     1      -5.903   2.602  27.414  0.00  0.00    +0.145 HD
ATOM     30  H   UNL     1      -7.023   1.307  27.184  0.00  0.00    +0.145 HD
ENDBRANCH  22  24
ENDBRANCH   7  22
ENDBRANCH  14  21
BRANCH  10   1
ATOM      1  O   UNL     1       0.357   1.418  23.704  0.00  0.00    -0.387 OA
ATOM     26  H   UNL     1       0.467   0.474  23.504  0.00  0.00    +0.210 HD
ENDBRANCH  10   1
BRANCH  11   2
ATOM      2  O   UNL     1       1.057   3.282  26.772  0.00  0.00    -0.389 OA
ATOM     27  H   UNL     1       1.500   2.470  27.072  0.00  0.00    +0.210 HD
ENDBRANCH  11   2
TORSDOF 8
ENDMDL
