MODEL 1
REMARK VINA RESULT:      -2.4      0.000      0.000
REMARK  Name = 44716030
REMARK  6 active torsions:
REMARK  status: ('A' for Active; 'I' for Inactive)
REMARK    1  A    between atoms: O_3  and  C_22
REMARK    2  A    between atoms: O_3  and  C_25
REMARK    3  A    between atoms: N_5  and  C_17
REMARK    4  A    between atoms: C_11  and  C_17
REMARK    5  A    between atoms: C_12  and  C_18
REMARK    6  A    between atoms: C_21  and  C_22
REMARK                            x       y       z     vdW  Elec       q    Type
REMARK                         _______ _______ _______ _____ _____    ______ ____
ROOT
ATOM      4  N   UNL     1      -2.984  -1.755  24.620  0.00  0.00    -0.297 NA
ATOM     10  C   UNL     1      -1.347   0.264  24.496  0.00  0.00    +0.005 C 
ATOM     11  C   UNL     1      -3.612  -0.629  23.878  0.00  0.00    +0.078 C 
ATOM     12  C   UNL     1      -0.827  -0.931  23.671  0.00  0.00    +0.092 C 
ATOM     13  C   UNL     1      -2.730   0.640  23.933  0.00  0.00    +0.025 C 
ATOM     14  C   UNL     1      -1.575  -0.181  25.952  0.00  0.00    +0.020 C 
ATOM     15  C   UNL     1      -1.741  -2.149  23.906  0.00  0.00    +0.097 C 
ATOM     16  C   UNL     1      -2.596  -1.328  25.984  0.00  0.00    +0.085 C 
ENDROOT
BRANCH  12  18
ATOM      1  S   UNL     1       3.668   0.775  22.401  0.00  0.00    -0.061 S 
ATOM      2  O   UNL     1       0.879  -2.151  24.784  0.00  0.00    -0.275 OA
ATOM      6  N   UNL     1       1.470  -0.408  23.318  0.00  0.00    -0.264 N 
ATOM      9  N   UNL     1       3.665  -1.188  24.082  0.00  0.00    -0.233 NA
ATOM     18  C   UNL     1       0.601  -1.249  24.000  0.00  0.00    +0.223 C 
ATOM     20  C   UNL     1       2.884  -0.402  23.375  0.00  0.00    +0.164 A 
ATOM     23  C   UNL     1       5.181   0.197  22.963  0.00  0.00    +0.068 A 
ATOM     24  C   UNL     1       4.981  -0.843  23.845  0.00  0.00    +0.120 A 
ATOM     31  H   UNL     1       1.084   0.306  22.705  0.00  0.00    +0.157 HD
ENDBRANCH  12  18
BRANCH  11  17
ATOM     17  C   UNL     1      -5.039  -0.349  24.354  0.00  0.00    +0.164 C 
BRANCH  17   5
ATOM      5  N   UNL     1      -5.161   1.024  24.953  0.00  0.00    -0.250 N 
ATOM      7  N   UNL     1      -5.939   1.238  26.026  0.00  0.00    -0.065 NA
ATOM      8  N   UNL     1      -5.855   2.530  26.324  0.00  0.00    -0.131 NA
ATOM     19  C   UNL     1      -4.556   2.170  24.535  0.00  0.00    +0.137 A 
ATOM     21  C   UNL     1      -5.011   3.115  25.420  0.00  0.00    +0.120 A 
BRANCH  21  22
ATOM     22  C   UNL     1      -4.707   4.551  25.478  0.00  0.00    +0.287 C 
BRANCH  22   3
ATOM      3  O   UNL     1      -3.594   4.787  26.344  0.00  0.00    -0.486 OA
BRANCH   3  25
ATOM     25  C   UNL     1      -2.364   4.427  25.866  0.00  0.00    +0.121 A 
ATOM     26  C   UNL     1      -1.685   3.349  26.434  0.00  0.00    +0.045 A 
ATOM     27  C   UNL     1      -1.790   5.139  24.814  0.00  0.00    +0.045 A 
ATOM     28  C   UNL     1      -0.430   2.982  25.947  0.00  0.00    +0.004 A 
ATOM     29  C   UNL     1      -0.535   4.772  24.327  0.00  0.00    +0.004 A 
ATOM     30  C   UNL     1       0.145   3.693  24.894  0.00  0.00    +0.000 A 
ENDBRANCH   3  25
ENDBRANCH  22   3
ENDBRANCH  21  22
ENDBRANCH  17   5
ENDBRANCH  11  17
TORSDOF 6
ENDMDL
MODEL 2
REMARK VINA RESULT:      -1.9      1.628      2.123
REMARK  Name = 44716030
REMARK  6 active torsions:
REMARK  status: ('A' for Active; 'I' for Inactive)
REMARK    1  A    between atoms: O_3  and  C_22
REMARK    2  A    between atoms: O_3  and  C_25
REMARK    3  A    between atoms: N_5  and  C_17
REMARK    4  A    between atoms: C_11  and  C_17
REMARK    5  A    between atoms: C_12  and  C_18
REMARK    6  A    between atoms: C_21  and  C_22
REMARK                            x       y       z     vdW  Elec       q    Type
REMARK                         _______ _______ _______ _____ _____    ______ ____
ROOT
ATOM      4  N   UNL     1      -1.215  -1.483  24.983  0.00  0.00    -0.297 NA
ATOM     10  C   UNL     1      -1.019   0.911  23.980  0.00  0.00    +0.005 C 
ATOM     11  C   UNL     1      -2.417  -1.168  24.163  0.00  0.00    +0.078 C 
ATOM     12  C   UNL     1       0.030  -0.041  23.370  0.00  0.00    +0.092 C 
ATOM     13  C   UNL     1      -2.406   0.306  23.695  0.00  0.00    +0.025 C 
ATOM     14  C   UNL     1      -0.859   0.933  25.511  0.00  0.00    +0.020 C 
ATOM     15  C   UNL     1      -0.018  -1.393  24.107  0.00  0.00    +0.097 C 
ATOM     16  C   UNL     1      -1.049  -0.487  26.066  0.00  0.00    +0.085 C 
ENDROOT
BRANCH  12  18
ATOM      1  S   UNL     1       4.711  -1.701  23.617  0.00  0.00    -0.061 S 
ATOM      2  O   UNL     1       1.565   1.771  23.379  0.00  0.00    -0.275 OA
ATOM      6  N   UNL     1       2.377  -0.434  23.482  0.00  0.00    -0.264 N 
ATOM      9  N   UNL     1       4.453   0.869  23.523  0.00  0.00    -0.233 NA
ATOM     18  C   UNL     1       1.406   0.555  23.411  0.00  0.00    +0.223 C 
ATOM     20  C   UNL     1       3.781  -0.261  23.532  0.00  0.00    +0.164 A 
ATOM     23  C   UNL     1       6.137  -0.750  23.643  0.00  0.00    +0.068 A 
ATOM     24  C   UNL     1       5.803   0.586  23.586  0.00  0.00    +0.120 A 
ATOM     31  H   UNL     1       2.087  -1.409  23.490  0.00  0.00    +0.157 HD
ENDBRANCH  12  18
BRANCH  11  17
ATOM     17  C   UNL     1      -3.718  -1.521  24.888  0.00  0.00    +0.164 C 
BRANCH  17   5
ATOM      5  N   UNL     1      -4.606  -0.320  25.044  0.00  0.00    -0.250 N 
ATOM      7  N   UNL     1      -5.558  -0.047  24.137  0.00  0.00    -0.065 NA
ATOM      8  N   UNL     1      -6.173   1.063  24.530  0.00  0.00    -0.131 NA
ATOM     19  C   UNL     1      -4.585   0.605  26.042  0.00  0.00    +0.137 A 
ATOM     21  C   UNL     1      -5.590   1.475  25.696  0.00  0.00    +0.120 A 
BRANCH  21  22
ATOM     22  C   UNL     1      -6.046   2.686  26.391  0.00  0.00    +0.287 C 
BRANCH  22   3
ATOM      3  O   UNL     1      -5.656   3.852  25.662  0.00  0.00    -0.486 OA
BRANCH   3  25
ATOM     25  C   UNL     1      -4.322   3.981  25.389  0.00  0.00    +0.121 A 
ATOM     26  C   UNL     1      -3.867   3.882  24.074  0.00  0.00    +0.045 A 
ATOM     27  C   UNL     1      -3.417   4.209  26.425  0.00  0.00    +0.045 A 
ATOM     28  C   UNL     1      -2.506   4.011  23.796  0.00  0.00    +0.004 A 
ATOM     29  C   UNL     1      -2.057   4.339  26.147  0.00  0.00    +0.004 A 
ATOM     30  C   UNL     1      -1.601   4.240  24.832  0.00  0.00    +0.000 A 
ENDBRANCH   3  25
ENDBRANCH  22   3
ENDBRANCH  21  22
ENDBRANCH  17   5
ENDBRANCH  11  17
TORSDOF 6
ENDMDL
MODEL 3
REMARK VINA RESULT:      -1.2      1.979      3.954
REMARK  Name = 44716030
REMARK  6 active torsions:
REMARK  status: ('A' for Active; 'I' for Inactive)
REMARK    1  A    between atoms: O_3  and  C_22
REMARK    2  A    between atoms: O_3  and  C_25
REMARK    3  A    between atoms: N_5  and  C_17
REMARK    4  A    between atoms: C_11  and  C_17
REMARK    5  A    between atoms: C_12  and  C_18
REMARK    6  A    between atoms: C_21  and  C_22
REMARK                            x       y       z     vdW  Elec       q    Type
REMARK                         _______ _______ _______ _____ _____    ______ ____
ROOT
ATOM      4  N   UNL     1      -1.949   2.246  24.118  0.00  0.00    -0.297 NA
ATOM     10  C   UNL     1       0.520   2.665  24.826  0.00  0.00    +0.005 C 
ATOM     11  C   UNL     1      -1.640   3.701  24.069  0.00  0.00    +0.078 C 
ATOM     12  C   UNL     1       0.442   1.909  23.485  0.00  0.00    +0.092 C 
ATOM     13  C   UNL     1      -0.235   3.995  24.645  0.00  0.00    +0.025 C 
ATOM     14  C   UNL     1      -0.243   1.874  25.904  0.00  0.00    +0.020 C 
ATOM     15  C   UNL     1      -1.025   1.542  23.190  0.00  0.00    +0.097 C 
ATOM     16  C   UNL     1      -1.709   1.708  25.476  0.00  0.00    +0.085 C 
ENDROOT
BRANCH  12  18
ATOM      1  S   UNL     1       5.319   0.935  23.529  0.00  0.00    -0.061 S 
ATOM      2  O   UNL     1       0.831  -0.434  23.476  0.00  0.00    -0.275 OA
ATOM      6  N   UNL     1       2.662   1.043  23.501  0.00  0.00    -0.264 N 
ATOM      9  N   UNL     1       3.777  -1.140  23.506  0.00  0.00    -0.233 NA
ATOM     18  C   UNL     1       1.319   0.692  23.486  0.00  0.00    +0.223 C 
ATOM     20  C   UNL     1       3.779   0.174  23.511  0.00  0.00    +0.164 A 
ATOM     23  C   UNL     1       6.056  -0.614  23.532  0.00  0.00    +0.068 A 
ATOM     24  C   UNL     1       5.082  -1.590  23.519  0.00  0.00    +0.120 A 
ATOM     31  H   UNL     1       2.913   2.029  23.519  0.00  0.00    +0.157 HD
ENDBRANCH  12  18
BRANCH  11  17
ATOM     17  C   UNL     1      -2.719   4.543  24.753  0.00  0.00    +0.164 C 
BRANCH  17   5
ATOM      5  N   UNL     1      -3.897   3.704  25.161  0.00  0.00    -0.250 N 
ATOM      7  N   UNL     1      -4.599   3.999  26.267  0.00  0.00    -0.065 NA
ATOM      8  N   UNL     1      -5.565   3.093  26.375  0.00  0.00    -0.131 NA
ATOM     19  C   UNL     1      -4.392   2.604  24.531  0.00  0.00    +0.137 A 
ATOM     21  C   UNL     1      -5.452   2.231  25.319  0.00  0.00    +0.120 A 
BRANCH  21  22
ATOM     22  C   UNL     1      -6.380   1.105  25.151  0.00  0.00    +0.287 C 
BRANCH  22   3
ATOM      3  O   UNL     1      -5.886   0.200  24.161  0.00  0.00    -0.486 OA
BRANCH   3  25
ATOM     25  C   UNL     1      -4.884  -0.644  24.554  0.00  0.00    +0.121 A 
ATOM     26  C   UNL     1      -4.232  -0.433  25.769  0.00  0.00    +0.045 A 
ATOM     27  C   UNL     1      -4.514  -1.713  23.738  0.00  0.00    +0.045 A 
ATOM     28  C   UNL     1      -3.209  -1.293  26.168  0.00  0.00    +0.004 A 
ATOM     29  C   UNL     1      -3.490  -2.573  24.138  0.00  0.00    +0.004 A 
ATOM     30  C   UNL     1      -2.838  -2.363  25.354  0.00  0.00    +0.000 A 
ENDBRANCH   3  25
ENDBRANCH  22   3
ENDBRANCH  21  22
ENDBRANCH  17   5
ENDBRANCH  11  17
TORSDOF 6
ENDMDL
