MODEL 1
REMARK VINA RESULT:       9.6      0.000      0.000
REMARK  Name = 45361323
REMARK  11 active torsions:
REMARK  status: ('A' for Active; 'I' for Inactive)
REMARK    1  A    between atoms: O_2  and  C_10
REMARK    2  A    between atoms: O_4  and  C_28
REMARK    3  A    between atoms: O_4  and  C_29
REMARK    4  A    between atoms: O_5  and  C_34
REMARK    5  A    between atoms: O_5  and  C_35
REMARK    6  A    between atoms: C_8  and  C_16
REMARK    7  A    between atoms: C_11  and  C_17
REMARK    8  A    between atoms: C_13  and  C_20
REMARK    9  A    between atoms: C_17  and  C_21
REMARK   10  A    between atoms: C_17  and  C_22
REMARK   11  A    between atoms: C_23  and  C_28
REMARK                            x       y       z     vdW  Elec       q    Type
REMARK                         _______ _______ _______ _____ _____    ______ ____
ROOT
ATOM      1  S   UNL     1      -4.975   0.178  26.244  0.00  0.00    -0.073 S 
ATOM      6  N   UNL     1      -4.370   1.430  24.065  0.00  0.00    -0.245 NA
ATOM      8  C   UNL     1      -1.368  -1.409  25.065  0.00  0.00    -0.022 C 
ATOM      9  C   UNL     1      -0.852  -0.111  24.328  0.00  0.00    +0.033 C 
ATOM     10  C   UNL     1       0.369  -0.424  23.417  0.00  0.00    +0.123 C 
ATOM     11  C   UNL     1       1.490  -1.180  24.161  0.00  0.00    +0.029 C 
ATOM     12  C   UNL     1      -0.192  -2.093  25.801  0.00  0.00    +0.008 C 
ATOM     13  C   UNL     1      -2.022   0.647  23.576  0.00  0.00    +0.042 C 
ATOM     14  C   UNL     1       0.976  -2.424  24.884  0.00  0.00    +0.007 C 
ATOM     15  C   UNL     1      -2.429  -1.019  26.141  0.00  0.00    +0.051 C 
ATOM     16  C   UNL     1      -2.003  -2.424  24.079  0.00  0.00    +0.012 C 
ATOM     18  C   UNL     1      -3.270   0.672  24.425  0.00  0.00    +0.055 A 
ATOM     19  C   UNL     1      -3.437  -0.089  25.565  0.00  0.00    +0.014 A 
ATOM     20  C   UNL     1      -1.646   2.077  23.158  0.00  0.00    +0.014 C 
ATOM     23  C   UNL     1      -5.322   1.258  24.955  0.00  0.00    +0.116 A 
ENDROOT
BRANCH  10   2
ATOM      2  O   UNL     1       0.927   0.799  22.937  0.00  0.00    -0.391 OA
ATOM     36  H   UNL     1       0.935   0.765  21.966  0.00  0.00    +0.210 HD
ENDBRANCH  10   2
BRANCH  11  17
ATOM     17  C   UNL     1       2.637  -1.570  23.219  0.00  0.00    +0.078 C 
ATOM     21  C   UNL     1       3.647  -2.454  23.927  0.00  0.00    +0.017 C 
BRANCH  17  22
ATOM      3  O   UNL     1       2.768   0.380  21.858  0.00  0.00    -0.275 OA
ATOM      7  N   UNL     1       4.526  -0.020  23.304  0.00  0.00    -0.301 N 
ATOM     22  C   UNL     1       3.304  -0.312  22.725  0.00  0.00    +0.219 C 
ATOM     24  C   UNL     1       5.300   1.155  22.931  0.00  0.00    +0.108 C 
ATOM     25  C   UNL     1       5.212  -0.793  24.334  0.00  0.00    +0.108 C 
ATOM     26  C   UNL     1       6.369   1.264  24.007  0.00  0.00    +0.020 C 
ATOM     27  C   UNL     1       6.608  -0.190  24.396  0.00  0.00    +0.020 C 
ENDBRANCH  17  22
ENDBRANCH  11  17
BRANCH  23  28
ATOM     28  C   UNL     1      -6.642   1.921  24.908  0.00  0.00    +0.291 C 
BRANCH  28   4
ATOM      4  O   UNL     1      -6.510   3.294  25.271  0.00  0.00    -0.485 OA
BRANCH   4  29
ATOM     29  C   UNL     1      -5.240   3.802  25.299  0.00  0.00    +0.121 A 
ATOM     30  C   UNL     1      -4.487   3.735  26.472  0.00  0.00    +0.049 A 
ATOM     31  C   UNL     1      -4.698   4.388  24.155  0.00  0.00    +0.049 A 
ATOM     32  C   UNL     1      -3.193   4.252  26.499  0.00  0.00    +0.049 A 
ATOM     33  C   UNL     1      -3.404   4.905  24.183  0.00  0.00    +0.049 A 
ATOM     34  C   UNL     1      -2.651   4.838  25.354  0.00  0.00    +0.120 A 
BRANCH  34   5
ATOM      5  O   UNL     1      -1.387   5.344  25.381  0.00  0.00    -0.495 OA
ATOM     35  C   UNL     1      -0.371   4.587  24.724  0.00  0.00    +0.277 C 
ENDBRANCH  34   5
ENDBRANCH   4  29
ENDBRANCH  28   4
ENDBRANCH  23  28
TORSDOF 7
ENDMDL
MODEL 2
REMARK VINA RESULT:      12.8      2.057      3.680
REMARK  Name = 45361323
REMARK  11 active torsions:
REMARK  status: ('A' for Active; 'I' for Inactive)
REMARK    1  A    between atoms: O_2  and  C_10
REMARK    2  A    between atoms: O_4  and  C_28
REMARK    3  A    between atoms: O_4  and  C_29
REMARK    4  A    between atoms: O_5  and  C_34
REMARK    5  A    between atoms: O_5  and  C_35
REMARK    6  A    between atoms: C_8  and  C_16
REMARK    7  A    between atoms: C_11  and  C_17
REMARK    8  A    between atoms: C_13  and  C_20
REMARK    9  A    between atoms: C_17  and  C_21
REMARK   10  A    between atoms: C_17  and  C_22
REMARK   11  A    between atoms: C_23  and  C_28
REMARK                            x       y       z     vdW  Elec       q    Type
REMARK                         _______ _______ _______ _____ _____    ______ ____
ROOT
ATOM      1  S   UNL     1      -3.185   4.875  26.188  0.00  0.00    -0.073 S 
ATOM      6  N   UNL     1      -4.310   3.264  24.508  0.00  0.00    -0.245 NA
ATOM      8  C   UNL     1      -0.153   2.441  24.845  0.00  0.00    -0.022 C 
ATOM      9  C   UNL     1      -0.784   2.165  23.423  0.00  0.00    +0.033 C 
ATOM     10  C   UNL     1      -0.087   0.966  22.718  0.00  0.00    +0.123 C 
ATOM     11  C   UNL     1       1.449   1.108  22.677  0.00  0.00    +0.029 C 
ATOM     12  C   UNL     1       1.381   2.592  24.713  0.00  0.00    +0.008 C 
ATOM     13  C   UNL     1      -2.360   2.026  23.492  0.00  0.00    +0.042 C 
ATOM     14  C   UNL     1       2.046   1.393  24.054  0.00  0.00    +0.007 C 
ATOM     15  C   UNL     1      -0.707   3.784  25.416  0.00  0.00    +0.051 C 
ATOM     16  C   UNL     1      -0.462   1.302  25.850  0.00  0.00    +0.012 C 
ATOM     18  C   UNL     1      -2.943   3.065  24.420  0.00  0.00    +0.055 A 
ATOM     19  C   UNL     1      -2.188   3.834  25.281  0.00  0.00    +0.014 A 
ATOM     20  C   UNL     1      -3.037   2.117  22.116  0.00  0.00    +0.014 C 
ATOM     23  C   UNL     1      -4.552   4.201  25.397  0.00  0.00    +0.116 A 
ENDROOT
BRANCH  10   2
ATOM      2  O   UNL     1      -0.542   0.883  21.367  0.00  0.00    -0.391 OA
ATOM     36  H   UNL     1      -0.198   1.654  20.887  0.00  0.00    +0.210 HD
ENDBRANCH  10   2
BRANCH  11  17
ATOM     17  C   UNL     1       2.121  -0.131  22.072  0.00  0.00    +0.078 C 
ATOM     21  C   UNL     1       1.105  -1.015  21.371  0.00  0.00    +0.017 C 
BRANCH  17  22
ATOM      3  O   UNL     1       2.176  -1.738  23.829  0.00  0.00    -0.275 OA
ATOM      7  N   UNL     1       4.130  -0.586  23.389  0.00  0.00    -0.301 N 
ATOM     22  C   UNL     1       2.800  -0.899  23.177  0.00  0.00    +0.219 C 
ATOM     24  C   UNL     1       4.925  -1.234  24.423  0.00  0.00    +0.108 C 
ATOM     25  C   UNL     1       4.925   0.391  22.653  0.00  0.00    +0.108 C 
ATOM     26  C   UNL     1       6.359  -0.848  24.098  0.00  0.00    +0.020 C 
ATOM     27  C   UNL     1       6.204   0.531  23.466  0.00  0.00    +0.020 C 
ENDBRANCH  17  22
ENDBRANCH  11  17
BRANCH  23  28
ATOM     28  C   UNL     1      -5.901   4.693  25.750  0.00  0.00    +0.291 C 
BRANCH  28   4
ATOM      4  O   UNL     1      -6.784   3.590  25.946  0.00  0.00    -0.485 OA
BRANCH   4  29
ATOM     29  C   UNL     1      -6.311   2.355  25.596  0.00  0.00    +0.121 A 
ATOM     30  C   UNL     1      -6.748   1.749  24.417  0.00  0.00    +0.049 A 
ATOM     31  C   UNL     1      -5.392   1.701  26.417  0.00  0.00    +0.049 A 
ATOM     32  C   UNL     1      -6.265   0.490  24.060  0.00  0.00    +0.049 A 
ATOM     33  C   UNL     1      -4.910   0.443  26.060  0.00  0.00    +0.049 A 
ATOM     34  C   UNL     1      -5.345  -0.163  24.882  0.00  0.00    +0.120 A 
BRANCH  34   5
ATOM      5  O   UNL     1      -4.875  -1.392  24.534  0.00  0.00    -0.495 OA
ATOM     35  C   UNL     1      -3.581  -1.753  25.018  0.00  0.00    +0.277 C 
ENDBRANCH  34   5
ENDBRANCH   4  29
ENDBRANCH  28   4
ENDBRANCH  23  28
TORSDOF 7
ENDMDL
