MODEL 1
REMARK VINA RESULT:       1.3      0.000      0.000
REMARK  Name = 11911995
REMARK  7 active torsions:
REMARK  status: ('A' for Active; 'I' for Inactive)
REMARK    1  A    between atoms: O_3  and  C_13
REMARK    2  A    between atoms: O_3  and  C_17
REMARK    3  A    between atoms: O_5  and  C_29
REMARK    4  A    between atoms: O_5  and  C_33
REMARK    5  A    between atoms: N_6  and  C_12
REMARK    6  A    between atoms: N_9  and  C_21
REMARK    7  A    between atoms: C_18  and  C_22
REMARK                            x       y       z     vdW  Elec       q    Type
REMARK                         _______ _______ _______ _____ _____    ______ ____
ROOT
ATOM      1  O   UNL     1      -5.478  -9.864  11.825  0.00  0.00    -0.368 OA
ATOM      2  O   UNL     1      -4.726  -8.153   9.391  0.00  0.00    -0.368 OA
ATOM     10  C   UNL     1      -5.814  -9.076   9.614  0.00  0.00    +0.173 C 
ATOM     11  C   UNL     1      -5.259 -10.214  10.448  0.00  0.00    +0.192 C 
ATOM     12  C   UNL     1      -6.856  -8.443  10.505  0.00  0.00    +0.130 C 
ATOM     13  C   UNL     1      -3.793 -10.197  10.093  0.00  0.00    +0.235 C 
ATOM     14  C   UNL     1      -6.281  -8.676  11.891  0.00  0.00    +0.185 C 
ATOM     15  C   UNL     1      -3.522  -8.718   9.929  0.00  0.00    +0.207 C 
ENDROOT
BRANCH  12   6
ATOM      6  N   UNL     1      -8.122  -9.130  10.364  0.00  0.00    -0.306 N 
ATOM      7  N   UNL     1      -8.274  -9.519  12.648  0.00  0.00    -0.214 NA
ATOM      8  N   UNL     1      -9.991 -10.272  11.135  0.00  0.00    -0.223 NA
ATOM     16  C   UNL     1      -8.826  -9.664  11.429  0.00  0.00    +0.216 A 
ATOM     18  C   UNL     1      -8.986 -10.052  13.662  0.00  0.00    +0.076 A 
ATOM     19  C   UNL     1     -10.651 -10.781  12.196  0.00  0.00    +0.116 A 
ATOM     20  C   UNL     1     -10.194 -10.699  13.495  0.00  0.00    +0.048 A 
ATOM     39  H   UNL     1      -8.558  -9.189   9.450  0.00  0.00    +0.149 HD
BRANCH  18  22
ATOM     22  C   UNL     1      -8.398  -9.898  14.971  0.00  0.00    +0.001 A 
ATOM     25  C   UNL     1      -7.197 -10.538  15.275  0.00  0.00    +0.010 A 
ATOM     26  C   UNL     1      -9.030  -9.109  15.933  0.00  0.00    +0.010 A 
ATOM     30  C   UNL     1      -6.627 -10.389  16.539  0.00  0.00    +0.001 A 
ATOM     31  C   UNL     1      -8.460  -8.960  17.197  0.00  0.00    +0.001 A 
ATOM     32  C   UNL     1      -7.259  -9.600  17.501  0.00  0.00    +0.000 A 
ENDBRANCH  18  22
ENDBRANCH  12   6
BRANCH  13   3
ATOM      3  O   UNL     1      -2.968 -10.781  11.075  0.00  0.00    -0.442 OA
BRANCH   3  17
ATOM      4  O   UNL     1      -2.383  -9.701  13.004  0.00  0.00    -0.226 OA
ATOM      9  N   UNL     1      -1.181  -9.405  11.017  0.00  0.00    -0.251 N 
ATOM     17  C   UNL     1      -2.180  -9.926  11.817  0.00  0.00    +0.405 C 
ATOM     40  H   UNL     1      -1.176  -9.714  10.048  0.00  0.00    +0.158 HD
BRANCH   9  21
ATOM     21  C   UNL     1      -0.163  -8.494  11.377  0.00  0.00    +0.037 A 
ATOM     23  C   UNL     1      -0.431  -7.476  12.292  0.00  0.00    +0.027 A 
ATOM     24  C   UNL     1       1.110  -8.614  10.820  0.00  0.00    +0.027 A 
ATOM     27  C   UNL     1       0.575  -6.577  12.649  0.00  0.00    +0.048 A 
ATOM     28  C   UNL     1       2.114  -7.715  11.176  0.00  0.00    +0.048 A 
ATOM     29  C   UNL     1       1.848  -6.697  12.091  0.00  0.00    +0.129 A 
BRANCH  29   5
ATOM      5  O   UNL     1       2.828  -5.820  12.439  0.00  0.00    -0.456 OA
BRANCH   5  33
ATOM     33  C   UNL     1       4.099  -6.328  12.655  0.00  0.00    +0.128 A 
ATOM     34  C   UNL     1       4.987  -5.652  13.493  0.00  0.00    +0.046 A 
ATOM     35  C   UNL     1       4.491  -7.514  12.035  0.00  0.00    +0.046 A 
ATOM     36  C   UNL     1       6.266  -6.162  13.710  0.00  0.00    +0.004 A 
ATOM     37  C   UNL     1       5.772  -8.024  12.251  0.00  0.00    +0.004 A 
ATOM     38  C   UNL     1       6.659  -7.348  13.089  0.00  0.00    +0.000 A 
ENDBRANCH   5  33
ENDBRANCH  29   5
ENDBRANCH   9  21
ENDBRANCH   3  17
ENDBRANCH  13   3
TORSDOF 7
ENDMDL
