MODEL 1
REMARK VINA RESULT:      -1.7      0.000      0.000
REMARK  Name = 44716866
REMARK  13 active torsions:
REMARK  status: ('A' for Active; 'I' for Inactive)
REMARK    1  A    between atoms: O_2  and  C_15
REMARK    2  A    between atoms: O_2  and  C_24
REMARK    3  A    between atoms: O_3  and  C_16
REMARK    4  A    between atoms: O_4  and  C_20
REMARK    5  A    between atoms: N_7  and  C_25
REMARK    6  A    between atoms: N_8  and  C_26
REMARK    7  A    between atoms: C_9  and  C_19
REMARK    8  A    between atoms: C_11  and  C_20
REMARK    9  A    between atoms: C_11  and  C_21
REMARK   10  A    between atoms: C_12  and  C_22
REMARK   11  A    between atoms: C_22  and  C_23
REMARK   12  A    between atoms: C_25  and  C_27
REMARK   13  A    between atoms: C_26  and  C_28
REMARK                            x       y       z     vdW  Elec       q    Type
REMARK                         _______ _______ _______ _____ _____    ______ ____
ROOT
ATOM      9  C   UNL     1      -3.353   2.906  24.572  0.00  0.00    -0.023 C 
ATOM     10  C   UNL     1      -2.186   3.247  25.577  0.00  0.00    +0.007 C 
ATOM     11  C   UNL     1      -0.727   3.283  24.980  0.00  0.00    +0.031 C 
ATOM     12  C   UNL     1      -4.644   2.614  25.444  0.00  0.00    +0.032 C 
ATOM     13  C   UNL     1      -2.968   1.624  23.786  0.00  0.00    +0.011 C 
ATOM     14  C   UNL     1      -2.552   4.462  26.457  0.00  0.00    +0.007 C 
ATOM     15  C   UNL     1      -0.488   1.984  24.151  0.00  0.00    +0.186 C 
ATOM     16  C   UNL     1      -5.007   3.766  26.411  0.00  0.00    +0.119 C 
ATOM     17  C   UNL     1      -1.590   1.691  23.138  0.00  0.00    +0.046 C 
ATOM     18  C   UNL     1      -3.821   4.197  27.269  0.00  0.00    +0.032 C 
ATOM     19  C   UNL     1      -3.634   4.031  23.544  0.00  0.00    +0.012 C 
ATOM     21  C   UNL     1       0.302   3.283  26.150  0.00  0.00    +0.017 C 
ENDROOT
BRANCH  16   3
ATOM      3  O   UNL     1      -5.516   4.888  25.697  0.00  0.00    -0.391 OA
ATOM     34  H   UNL     1      -5.404   5.673  26.260  0.00  0.00    +0.210 HD
ENDBRANCH  16   3
BRANCH  15   2
ATOM      2  O   UNL     1       0.743   2.033  23.431  0.00  0.00    -0.446 OA
BRANCH   2  24
ATOM      6  O   UNL     1       0.837  -0.254  23.260  0.00  0.00    -0.226 OA
ATOM      8  N   UNL     1       2.744   1.059  23.121  0.00  0.00    -0.281 N 
ATOM     24  C   UNL     1       1.392   0.840  23.269  0.00  0.00    +0.401 C 
ATOM     37  H   UNL     1       3.079   2.017  23.142  0.00  0.00    +0.152 HD
BRANCH   8  26
ATOM     26  C   UNL     1       3.713   0.002  22.931  0.00  0.00    +0.104 C 
ATOM     28  C   UNL     1       5.061   0.377  23.508  0.00  0.00    +0.024 C 
ENDBRANCH   8  26
ENDBRANCH   2  24
ENDBRANCH  15   2
BRANCH  11  20
ATOM     20  C   UNL     1      -0.417   4.545  24.151  0.00  0.00    +0.166 C 
BRANCH  20   4
ATOM      4  O   UNL     1      -0.826   5.668  24.902  0.00  0.00    -0.394 OA
ATOM     35  H   UNL     1      -0.157   5.813  25.593  0.00  0.00    +0.209 HD
ENDBRANCH  20   4
ENDBRANCH  11  20
BRANCH  12  22
ATOM     22  C   UNL     1      -5.887   2.198  24.641  0.00  0.00    +0.102 C 
BRANCH  22  23
ATOM      5  O   UNL     1      -6.921   0.111  23.987  0.00  0.00    -0.276 OA
ATOM      7  N   UNL     1      -4.717   0.118  24.722  0.00  0.00    -0.311 N 
ATOM     23  C   UNL     1      -5.932   0.706  24.404  0.00  0.00    +0.214 C 
ATOM     36  H   UNL     1      -3.965   0.692  25.094  0.00  0.00    +0.149 HD
BRANCH   7  25
ATOM     25  C   UNL     1      -4.469  -1.299  24.597  0.00  0.00    +0.139 C 
BRANCH  25  27
ATOM      1  F   UNL     1       0.898  -2.604  25.693  0.00  0.00    -0.205 F 
ATOM     27  C   UNL     1      -3.038  -1.648  24.889  0.00  0.00    -0.030 A 
ATOM     29  C   UNL     1      -2.309  -0.890  25.807  0.00  0.00    +0.008 A 
ATOM     30  C   UNL     1      -2.437  -2.728  24.244  0.00  0.00    +0.008 A 
ATOM     31  C   UNL     1      -0.980  -1.212  26.078  0.00  0.00    +0.038 A 
ATOM     32  C   UNL     1      -1.107  -3.051  24.516  0.00  0.00    +0.038 A 
ATOM     33  C   UNL     1      -0.379  -2.293  25.432  0.00  0.00    +0.123 A 
ENDBRANCH  25  27
ENDBRANCH   7  25
ENDBRANCH  22  23
ENDBRANCH  12  22
TORSDOF 10
ENDMDL
MODEL 2
REMARK VINA RESULT:       1.1      2.259      6.108
REMARK  Name = 44716866
REMARK  13 active torsions:
REMARK  status: ('A' for Active; 'I' for Inactive)
REMARK    1  A    between atoms: O_2  and  C_15
REMARK    2  A    between atoms: O_2  and  C_24
REMARK    3  A    between atoms: O_3  and  C_16
REMARK    4  A    between atoms: O_4  and  C_20
REMARK    5  A    between atoms: N_7  and  C_25
REMARK    6  A    between atoms: N_8  and  C_26
REMARK    7  A    between atoms: C_9  and  C_19
REMARK    8  A    between atoms: C_11  and  C_20
REMARK    9  A    between atoms: C_11  and  C_21
REMARK   10  A    between atoms: C_12  and  C_22
REMARK   11  A    between atoms: C_22  and  C_23
REMARK   12  A    between atoms: C_25  and  C_27
REMARK   13  A    between atoms: C_26  and  C_28
REMARK                            x       y       z     vdW  Elec       q    Type
REMARK                         _______ _______ _______ _____ _____    ______ ____
ROOT
ATOM      9  C   UNL     1      -2.548   0.224  24.944  0.00  0.00    -0.023 C 
ATOM     10  C   UNL     1      -4.126   0.228  24.965  0.00  0.00    +0.007 C 
ATOM     11  C   UNL     1      -4.832   1.623  24.762  0.00  0.00    +0.031 C 
ATOM     12  C   UNL     1      -2.082  -1.194  25.481  0.00  0.00    +0.032 C 
ATOM     13  C   UNL     1      -2.040   1.327  25.911  0.00  0.00    +0.011 C 
ATOM     14  C   UNL     1      -4.692  -0.914  24.093  0.00  0.00    +0.007 C 
ATOM     15  C   UNL     1      -4.184   2.662  25.727  0.00  0.00    +0.186 C 
ATOM     16  C   UNL     1      -2.693  -2.380  24.697  0.00  0.00    +0.119 C 
ATOM     17  C   UNL     1      -2.661   2.696  25.660  0.00  0.00    +0.046 C 
ATOM     18  C   UNL     1      -4.211  -2.280  24.586  0.00  0.00    +0.032 C 
ATOM     19  C   UNL     1      -1.946   0.499  23.544  0.00  0.00    +0.012 C 
ATOM     21  C   UNL     1      -6.333   1.496  25.156  0.00  0.00    +0.017 C 
ENDROOT
BRANCH  16   3
ATOM      3  O   UNL     1      -2.120  -2.478  23.397  0.00  0.00    -0.391 OA
ATOM     34  H   UNL     1      -2.605  -1.869  22.814  0.00  0.00    +0.210 HD
ENDBRANCH  16   3
BRANCH  15   2
ATOM      2  O   UNL     1      -4.646   3.987  25.468  0.00  0.00    -0.446 OA
BRANCH   2  24
ATOM      6  O   UNL     1      -4.040   5.339  23.714  0.00  0.00    -0.226 OA
ATOM      8  N   UNL     1      -2.600   4.918  25.483  0.00  0.00    -0.281 N 
ATOM     24  C   UNL     1      -3.784   4.801  24.786  0.00  0.00    +0.401 C 
ATOM     37  H   UNL     1      -2.515   4.424  26.366  0.00  0.00    +0.152 HD
BRANCH   8  26
ATOM     26  C   UNL     1      -1.477   5.709  25.032  0.00  0.00    +0.104 C 
ATOM     28  C   UNL     1      -0.339   4.832  24.555  0.00  0.00    +0.024 C 
ENDBRANCH   8  26
ENDBRANCH   2  24
ENDBRANCH  15   2
BRANCH  11  20
ATOM     20  C   UNL     1      -4.823   2.126  23.305  0.00  0.00    +0.166 C 
BRANCH  20   4
ATOM      4  O   UNL     1      -3.572   2.735  23.064  0.00  0.00    -0.394 OA
ATOM     35  H   UNL     1      -2.966   2.039  22.759  0.00  0.00    +0.209 HD
ENDBRANCH  20   4
ENDBRANCH  11  20
BRANCH  12  22
ATOM     22  C   UNL     1      -0.560  -1.373  25.595  0.00  0.00    +0.102 C 
BRANCH  22  23
ATOM      5  O   UNL     1       0.358   0.786  25.004  0.00  0.00    -0.276 OA
ATOM      7  N   UNL     1       0.654  -1.018  23.570  0.00  0.00    -0.311 N 
ATOM     23  C   UNL     1       0.191  -0.396  24.721  0.00  0.00    +0.214 C 
ATOM     36  H   UNL     1       0.435  -1.997  23.407  0.00  0.00    +0.149 HD
BRANCH   7  25
ATOM     25  C   UNL     1       1.404  -0.327  22.547  0.00  0.00    +0.139 C 
BRANCH  25  27
ATOM      1  F   UNL     1       6.857   0.119  23.878  0.00  0.00    -0.205 F 
ATOM     27  C   UNL     1       2.859  -0.208  22.901  0.00  0.00    -0.030 A 
ATOM     29  C   UNL     1       3.522  -1.282  23.497  0.00  0.00    +0.008 A 
ATOM     30  C   UNL     1       3.547   0.976  22.637  0.00  0.00    +0.008 A 
ATOM     31  C   UNL     1       4.872  -1.172  23.827  0.00  0.00    +0.038 A 
ATOM     32  C   UNL     1       4.898   1.086  22.967  0.00  0.00    +0.038 A 
ATOM     33  C   UNL     1       5.560   0.013  23.562  0.00  0.00    +0.123 A 
ENDBRANCH  25  27
ENDBRANCH   7  25
ENDBRANCH  22  23
ENDBRANCH  12  22
TORSDOF 10
ENDMDL
MODEL 3
REMARK VINA RESULT:       1.5      2.264      5.177
REMARK  Name = 44716866
REMARK  13 active torsions:
REMARK  status: ('A' for Active; 'I' for Inactive)
REMARK    1  A    between atoms: O_2  and  C_15
REMARK    2  A    between atoms: O_2  and  C_24
REMARK    3  A    between atoms: O_3  and  C_16
REMARK    4  A    between atoms: O_4  and  C_20
REMARK    5  A    between atoms: N_7  and  C_25
REMARK    6  A    between atoms: N_8  and  C_26
REMARK    7  A    between atoms: C_9  and  C_19
REMARK    8  A    between atoms: C_11  and  C_20
REMARK    9  A    between atoms: C_11  and  C_21
REMARK   10  A    between atoms: C_12  and  C_22
REMARK   11  A    between atoms: C_22  and  C_23
REMARK   12  A    between atoms: C_25  and  C_27
REMARK   13  A    between atoms: C_26  and  C_28
REMARK                            x       y       z     vdW  Elec       q    Type
REMARK                         _______ _______ _______ _____ _____    ______ ____
ROOT
ATOM      9  C   UNL     1      -2.303  -0.410  24.549  0.00  0.00    -0.023 C 
ATOM     10  C   UNL     1      -1.241  -1.233  23.720  0.00  0.00    +0.007 C 
ATOM     11  C   UNL     1       0.243  -0.700  23.746  0.00  0.00    +0.031 C 
ATOM     12  C   UNL     1      -3.735  -0.934  24.115  0.00  0.00    +0.032 C 
ATOM     13  C   UNL     1      -2.171   1.089  24.167  0.00  0.00    +0.011 C 
ATOM     14  C   UNL     1      -1.387  -2.747  23.986  0.00  0.00    +0.007 C 
ATOM     15  C   UNL     1       0.236   0.826  23.427  0.00  0.00    +0.186 C 
ATOM     16  C   UNL     1      -3.906  -2.463  24.277  0.00  0.00    +0.119 C 
ATOM     17  C   UNL     1      -0.749   1.626  24.273  0.00  0.00    +0.046 C 
ATOM     18  C   UNL     1      -2.781  -3.246  23.605  0.00  0.00    +0.032 C 
ATOM     19  C   UNL     1      -2.122  -0.532  26.082  0.00  0.00    +0.012 C 
ATOM     21  C   UNL     1       1.057  -1.406  22.622  0.00  0.00    +0.017 C 
ENDROOT
BRANCH  16   3
ATOM      3  O   UNL     1      -3.987  -2.823  25.652  0.00  0.00    -0.391 OA
ATOM     34  H   UNL     1      -4.205  -2.019  26.155  0.00  0.00    +0.210 HD
ENDBRANCH  16   3
BRANCH  15   2
ATOM      2  O   UNL     1       1.524   1.413  23.615  0.00  0.00    -0.446 OA
BRANCH   2  24
ATOM      6  O   UNL     1       2.428   0.322  21.808  0.00  0.00    -0.226 OA
ATOM      8  N   UNL     1       3.724   0.951  23.626  0.00  0.00    -0.281 N 
ATOM     24  C   UNL     1       2.550   0.845  22.911  0.00  0.00    +0.401 C 
ATOM     37  H   UNL     1       3.693   1.414  24.529  0.00  0.00    +0.152 HD
BRANCH   8  26
ATOM     26  C   UNL     1       4.997   0.449  23.159  0.00  0.00    +0.104 C 
ATOM     28  C   UNL     1       5.464  -0.729  23.988  0.00  0.00    +0.024 C 
ENDBRANCH   8  26
ENDBRANCH   2  24
ENDBRANCH  15   2
BRANCH  11  20
ATOM     20  C   UNL     1       0.996  -0.998  25.059  0.00  0.00    +0.166 C 
BRANCH  20   4
ATOM      4  O   UNL     1       0.526  -2.232  25.557  0.00  0.00    -0.394 OA
ATOM     35  H   UNL     1      -0.078  -2.035  26.294  0.00  0.00    +0.209 HD
ENDBRANCH  20   4
ENDBRANCH  11  20
BRANCH  12  22
ATOM     22  C   UNL     1      -4.917  -0.205  24.773  0.00  0.00    +0.102 C 
BRANCH  22  23
ATOM      5  O   UNL     1      -4.548   1.795  23.463  0.00  0.00    -0.276 OA
ATOM      7  N   UNL     1      -5.217   1.983  25.681  0.00  0.00    -0.311 N 
ATOM     23  C   UNL     1      -4.864   1.286  24.534  0.00  0.00    +0.214 C 
ATOM     36  H   UNL     1      -5.431   1.471  26.532  0.00  0.00    +0.149 HD
BRANCH   7  25
ATOM     25  C   UNL     1      -5.252   3.425  25.747  0.00  0.00    +0.139 C 
BRANCH  25  27
ATOM      1  F   UNL     1      -0.189   5.704  24.811  0.00  0.00    -0.205 F 
ATOM     27  C   UNL     1      -3.902   4.033  25.498  0.00  0.00    -0.030 A 
ATOM     29  C   UNL     1      -3.700   4.851  24.386  0.00  0.00    +0.008 A 
ATOM     30  C   UNL     1      -2.849   3.779  26.377  0.00  0.00    +0.008 A 
ATOM     31  C   UNL     1      -2.446   5.415  24.154  0.00  0.00    +0.038 A 
ATOM     32  C   UNL     1      -1.595   4.344  26.145  0.00  0.00    +0.038 A 
ATOM     33  C   UNL     1      -1.394   5.161  25.033  0.00  0.00    +0.123 A 
ENDBRANCH  25  27
ENDBRANCH   7  25
ENDBRANCH  22  23
ENDBRANCH  12  22
TORSDOF 10
ENDMDL
