MODEL 1
REMARK VINA RESULT:       0.6      0.000      0.000
REMARK  Name = 45361159
REMARK  9 active torsions:
REMARK  status: ('A' for Active; 'I' for Inactive)
REMARK    1  A    between atoms: O_4  and  C_30
REMARK    2  A    between atoms: O_4  and  C_34
REMARK    3  A    between atoms: N_6  and  C_19
REMARK    4  A    between atoms: N_7  and  C_18
REMARK    5  A    between atoms: C_13  and  C_17
REMARK    6  A    between atoms: C_17  and  C_20
REMARK    7  A    between atoms: C_18  and  C_21
REMARK    8  A    between atoms: C_20  and  C_22
REMARK    9  A    between atoms: C_23  and  C_30
REMARK                            x       y       z     vdW  Elec       q    Type
REMARK                         _______ _______ _______ _____ _____    ______ ____
ROOT
ATOM      2  O   UNL     1      -0.001   2.119  23.793  0.00  0.00    -0.274 OA
ATOM      6  N   UNL     1      -2.906  -0.087  25.092  0.00  0.00    -0.296 NA
ATOM      7  N   UNL     1       0.465  -0.540  23.741  0.00  0.00    -0.286 NA
ATOM      8  N   UNL     1      -2.198   1.951  23.176  0.00  0.00    -0.312 N 
ATOM     10  C   UNL     1      -1.849  -0.859  24.402  0.00  0.00    +0.084 C 
ATOM     11  C   UNL     1      -0.907  -0.108  23.415  0.00  0.00    +0.161 C 
ATOM     12  C   UNL     1      -0.844  -1.532  25.354  0.00  0.00    +0.036 C 
ATOM     13  C   UNL     1      -3.932   0.499  24.186  0.00  0.00    +0.074 C 
ATOM     14  C   UNL     1       0.356  -1.799  24.470  0.00  0.00    +0.087 C 
ATOM     15  C   UNL     1      -3.373   1.147  22.903  0.00  0.00    +0.123 C 
ATOM     16  C   UNL     1      -0.965   1.415  23.498  0.00  0.00    +0.232 C 
ATOM     19  C   UNL     1      -3.551  -0.900  26.136  0.00  0.00    +0.105 C 
ATOM     35  H   UNL     1      -2.281   2.962  23.136  0.00  0.00    +0.149 HD
ENDROOT
BRANCH  13  17
ATOM     17  C   UNL     1      -4.756   1.574  24.927  0.00  0.00    +0.029 C 
BRANCH  17  20
ATOM     20  C   UNL     1      -5.146   2.719  24.013  0.00  0.00    +0.097 C 
BRANCH  20  22
ATOM      3  O   UNL     1      -3.922   4.434  22.929  0.00  0.00    -0.276 OA
ATOM      9  N   UNL     1      -3.269   3.907  25.095  0.00  0.00    -0.301 N 
ATOM     22  C   UNL     1      -4.061   3.765  23.956  0.00  0.00    +0.216 C 
ATOM     23  C   UNL     1      -0.960   3.509  26.790  0.00  0.00    +0.101 C 
ATOM     24  C   UNL     1      -2.222   4.930  25.133  0.00  0.00    +0.108 C 
ATOM     25  C   UNL     1      -3.411   3.126  26.331  0.00  0.00    +0.108 C 
ATOM     26  C   UNL     1      -0.872   4.314  25.490  0.00  0.00    +0.033 C 
ATOM     27  C   UNL     1      -2.085   2.474  26.714  0.00  0.00    +0.033 C 
BRANCH  23  30
ATOM      5  O   UNL     1       1.138   2.509  26.162  0.00  0.00    -0.251 OA
ATOM     30  C   UNL     1       0.350   2.828  27.043  0.00  0.00    +0.310 C 
BRANCH  30   4
ATOM      4  O   UNL     1       0.510   2.630  28.383  0.00  0.00    -0.468 OA
ATOM     34  C   UNL     1       1.862   2.648  28.849  0.00  0.00    +0.280 C 
ENDBRANCH  30   4
ENDBRANCH  23  30
ENDBRANCH  20  22
ENDBRANCH  17  20
ENDBRANCH  13  17
BRANCH   7  18
ATOM     18  C   UNL     1       1.328  -0.656  22.573  0.00  0.00    +0.120 C 
BRANCH  18  21
ATOM      1  F   UNL     1       6.738   0.253  23.861  0.00  0.00    -0.205 F 
ATOM     21  C   UNL     1       2.773  -0.413  22.917  0.00  0.00    -0.033 A 
ATOM     28  C   UNL     1       3.514  -1.406  23.557  0.00  0.00    +0.008 A 
ATOM     29  C   UNL     1       3.371   0.806  22.597  0.00  0.00    +0.008 A 
ATOM     31  C   UNL     1       4.853  -1.182  23.876  0.00  0.00    +0.038 A 
ATOM     32  C   UNL     1       4.711   1.031  22.916  0.00  0.00    +0.038 A 
ATOM     33  C   UNL     1       5.451   0.037  23.555  0.00  0.00    +0.123 A 
ENDBRANCH  18  21
ENDBRANCH   7  18
TORSDOF 7
ENDMDL
MODEL 2
REMARK VINA RESULT:       0.8      1.498      2.088
REMARK  Name = 45361159
REMARK  9 active torsions:
REMARK  status: ('A' for Active; 'I' for Inactive)
REMARK    1  A    between atoms: O_4  and  C_30
REMARK    2  A    between atoms: O_4  and  C_34
REMARK    3  A    between atoms: N_6  and  C_19
REMARK    4  A    between atoms: N_7  and  C_18
REMARK    5  A    between atoms: C_13  and  C_17
REMARK    6  A    between atoms: C_17  and  C_20
REMARK    7  A    between atoms: C_18  and  C_21
REMARK    8  A    between atoms: C_20  and  C_22
REMARK    9  A    between atoms: C_23  and  C_30
REMARK                            x       y       z     vdW  Elec       q    Type
REMARK                         _______ _______ _______ _____ _____    ______ ____
ROOT
ATOM      2  O   UNL     1      -1.485   1.886  23.211  0.00  0.00    -0.274 OA
ATOM      6  N   UNL     1      -3.047  -0.996  25.270  0.00  0.00    -0.296 NA
ATOM      7  N   UNL     1       0.174  -0.178  23.737  0.00  0.00    -0.286 NA
ATOM      8  N   UNL     1      -3.332   0.579  22.870  0.00  0.00    -0.312 N 
ATOM     10  C   UNL     1      -1.736  -1.344  24.679  0.00  0.00    +0.084 C 
ATOM     11  C   UNL     1      -1.233  -0.522  23.456  0.00  0.00    +0.161 C 
ATOM     12  C   UNL     1      -0.555  -1.216  25.658  0.00  0.00    +0.036 C 
ATOM     13  C   UNL     1      -4.207  -1.197  24.358  0.00  0.00    +0.074 C 
ATOM     14  C   UNL     1       0.650  -1.117  24.747  0.00  0.00    +0.087 C 
ATOM     15  C   UNL     1      -3.987  -0.713  22.911  0.00  0.00    +0.123 C 
ATOM     16  C   UNL     1      -2.000   0.769  23.185  0.00  0.00    +0.232 C 
ATOM     19  C   UNL     1      -3.260  -1.721  26.534  0.00  0.00    +0.105 C 
ATOM     35  H   UNL     1      -3.879   1.392  22.603  0.00  0.00    +0.149 HD
ENDROOT
BRANCH  13  17
ATOM     17  C   UNL     1      -5.455  -0.472  24.904  0.00  0.00    +0.029 C 
BRANCH  17  20
ATOM     20  C   UNL     1      -5.087   0.694  25.800  0.00  0.00    +0.097 C 
BRANCH  20  22
ATOM      3  O   UNL     1      -6.020   2.119  24.153  0.00  0.00    -0.276 OA
ATOM      9  N   UNL     1      -4.326   3.020  25.462  0.00  0.00    -0.301 N 
ATOM     22  C   UNL     1      -5.192   2.004  25.061  0.00  0.00    +0.216 C 
ATOM     23  C   UNL     1      -1.960   4.682  25.373  0.00  0.00    +0.101 C 
ATOM     24  C   UNL     1      -4.396   4.335  24.821  0.00  0.00    +0.108 C 
ATOM     25  C   UNL     1      -3.331   2.913  26.538  0.00  0.00    +0.108 C 
ATOM     26  C   UNL     1      -3.031   4.750  24.280  0.00  0.00    +0.033 C 
ATOM     27  C   UNL     1      -1.944   3.301  26.032  0.00  0.00    +0.033 C 
BRANCH  23  30
ATOM      5  O   UNL     1      -0.177   6.113  24.619  0.00  0.00    -0.251 OA
ATOM     30  C   UNL     1      -0.620   4.983  24.776  0.00  0.00    +0.310 C 
BRANCH  30   4
ATOM      4  O   UNL     1       0.006   3.816  24.449  0.00  0.00    -0.468 OA
ATOM     34  C   UNL     1       0.375   2.985  25.554  0.00  0.00    +0.280 C 
ENDBRANCH  30   4
ENDBRANCH  23  30
ENDBRANCH  20  22
ENDBRANCH  17  20
ENDBRANCH  13  17
BRANCH   7  18
ATOM     18  C   UNL     1       1.017  -0.177  22.549  0.00  0.00    +0.120 C 
BRANCH  18  21
ATOM      1  F   UNL     1       6.494  -0.025  23.863  0.00  0.00    -0.205 F 
ATOM     21  C   UNL     1       2.480  -0.137  22.900  0.00  0.00    -0.033 A 
ATOM     28  C   UNL     1       3.212   1.034  22.704  0.00  0.00    +0.008 A 
ATOM     29  C   UNL     1       3.105  -1.270  23.420  0.00  0.00    +0.008 A 
ATOM     31  C   UNL     1       4.568   1.072  23.029  0.00  0.00    +0.038 A 
ATOM     32  C   UNL     1       4.461  -1.233  23.745  0.00  0.00    +0.038 A 
ATOM     33  C   UNL     1       5.192  -0.062  23.550  0.00  0.00    +0.123 A 
ENDBRANCH  18  21
ENDBRANCH   7  18
TORSDOF 7
ENDMDL
MODEL 3
REMARK VINA RESULT:       1.4      2.145      4.117
REMARK  Name = 45361159
REMARK  9 active torsions:
REMARK  status: ('A' for Active; 'I' for Inactive)
REMARK    1  A    between atoms: O_4  and  C_30
REMARK    2  A    between atoms: O_4  and  C_34
REMARK    3  A    between atoms: N_6  and  C_19
REMARK    4  A    between atoms: N_7  and  C_18
REMARK    5  A    between atoms: C_13  and  C_17
REMARK    6  A    between atoms: C_17  and  C_20
REMARK    7  A    between atoms: C_18  and  C_21
REMARK    8  A    between atoms: C_20  and  C_22
REMARK    9  A    between atoms: C_23  and  C_30
REMARK                            x       y       z     vdW  Elec       q    Type
REMARK                         _______ _______ _______ _____ _____    ______ ____
ROOT
ATOM      2  O   UNL     1      -1.176  -0.366  25.987  0.00  0.00    -0.274 OA
ATOM      6  N   UNL     1      -1.015   2.980  24.046  0.00  0.00    -0.296 NA
ATOM      7  N   UNL     1       0.257  -0.435  23.699  0.00  0.00    -0.286 NA
ATOM      8  N   UNL     1      -0.489   1.731  26.593  0.00  0.00    -0.312 N 
ATOM     10  C   UNL     1      -0.057   1.968  23.547  0.00  0.00    +0.084 C 
ATOM     11  C   UNL     1       0.352   0.803  24.497  0.00  0.00    +0.161 C 
ATOM     12  C   UNL     1      -0.543   1.209  22.300  0.00  0.00    +0.036 C 
ATOM     13  C   UNL     1      -0.521   3.779  25.201  0.00  0.00    +0.074 C 
ATOM     14  C   UNL     1       0.307  -0.044  22.294  0.00  0.00    +0.087 C 
ATOM     15  C   UNL     1       0.206   2.966  26.291  0.00  0.00    +0.123 C 
ATOM     16  C   UNL     1      -0.521   0.645  25.738  0.00  0.00    +0.232 C 
ATOM     19  C   UNL     1      -1.449   3.870  22.957  0.00  0.00    +0.105 C 
ATOM     35  H   UNL     1      -0.986   1.656  27.475  0.00  0.00    +0.149 HD
ENDROOT
BRANCH  13  17
ATOM     17  C   UNL     1      -1.689   4.524  25.881  0.00  0.00    +0.029 C 
BRANCH  17  20
ATOM     20  C   UNL     1      -2.967   4.433  25.071  0.00  0.00    +0.097 C 
BRANCH  20  22
ATOM      3  O   UNL     1      -4.316   3.762  26.900  0.00  0.00    -0.276 OA
ATOM      9  N   UNL     1      -4.456   2.463  24.980  0.00  0.00    -0.301 N 
ATOM     22  C   UNL     1      -3.972   3.528  25.738  0.00  0.00    +0.216 C 
ATOM     23  C   UNL     1      -4.615  -0.264  24.030  0.00  0.00    +0.101 C 
ATOM     24  C   UNL     1      -5.466   1.565  25.542  0.00  0.00    +0.108 C 
ATOM     25  C   UNL     1      -4.066   2.160  23.596  0.00  0.00    +0.108 C 
ATOM     26  C   UNL     1      -5.008   0.112  25.461  0.00  0.00    +0.033 C 
ATOM     27  C   UNL     1      -3.580   0.718  23.475  0.00  0.00    +0.033 C 
BRANCH  23  30
ATOM      5  O   UNL     1      -4.722  -2.652  23.746  0.00  0.00    -0.251 OA
ATOM     30  C   UNL     1      -4.063  -1.656  24.014  0.00  0.00    +0.310 C 
BRANCH  30   4
ATOM      4  O   UNL     1      -2.738  -1.625  24.338  0.00  0.00    -0.468 OA
ATOM     34  C   UNL     1      -2.089  -2.899  24.393  0.00  0.00    +0.280 C 
ENDBRANCH  30   4
ENDBRANCH  23  30
ENDBRANCH  20  22
ENDBRANCH  17  20
ENDBRANCH  13  17
BRANCH   7  18
ATOM     18  C   UNL     1       1.280  -1.417  24.032  0.00  0.00    +0.120 C 
BRANCH  18  21
ATOM      1  F   UNL     1       6.467   0.507  22.959  0.00  0.00    -0.205 F 
ATOM     21  C   UNL     1       2.665  -0.902  23.745  0.00  0.00    -0.033 A 
ATOM     28  C   UNL     1       3.779  -1.662  24.103  0.00  0.00    +0.008 A 
ATOM     29  C   UNL     1       2.836   0.334  23.123  0.00  0.00    +0.008 A 
ATOM     31  C   UNL     1       5.063  -1.186  23.839  0.00  0.00    +0.038 A 
ATOM     32  C   UNL     1       4.120   0.810  22.857  0.00  0.00    +0.038 A 
ATOM     33  C   UNL     1       5.233   0.051  23.215  0.00  0.00    +0.123 A 
ENDBRANCH  18  21
ENDBRANCH   7  18
TORSDOF 7
ENDMDL
MODEL 4
REMARK VINA RESULT:       3.2      3.273      6.941
REMARK  Name = 45361159
REMARK  9 active torsions:
REMARK  status: ('A' for Active; 'I' for Inactive)
REMARK    1  A    between atoms: O_4  and  C_30
REMARK    2  A    between atoms: O_4  and  C_34
REMARK    3  A    between atoms: N_6  and  C_19
REMARK    4  A    between atoms: N_7  and  C_18
REMARK    5  A    between atoms: C_13  and  C_17
REMARK    6  A    between atoms: C_17  and  C_20
REMARK    7  A    between atoms: C_18  and  C_21
REMARK    8  A    between atoms: C_20  and  C_22
REMARK    9  A    between atoms: C_23  and  C_30
REMARK                            x       y       z     vdW  Elec       q    Type
REMARK                         _______ _______ _______ _____ _____    ______ ____
ROOT
ATOM      2  O   UNL     1       0.977   2.862  26.997  0.00  0.00    -0.274 OA
ATOM      6  N   UNL     1       0.195   0.416  24.100  0.00  0.00    -0.296 NA
ATOM      7  N   UNL     1      -0.066   4.002  24.783  0.00  0.00    -0.286 NA
ATOM      8  N   UNL     1      -0.317   0.977  26.883  0.00  0.00    -0.312 N 
ATOM     10  C   UNL     1      -0.384   1.763  23.900  0.00  0.00    +0.084 C 
ATOM     11  C   UNL     1      -0.593   2.672  25.146  0.00  0.00    +0.161 C 
ATOM     12  C   UNL     1       0.449   2.671  22.977  0.00  0.00    +0.036 C 
ATOM     13  C   UNL     1      -0.644  -0.500  24.921  0.00  0.00    +0.074 C 
ATOM     14  C   UNL     1      -0.030   4.064  23.326  0.00  0.00    +0.087 C 
ATOM     15  C   UNL     1      -1.268   0.142  26.176  0.00  0.00    +0.123 C 
ATOM     16  C   UNL     1       0.116   2.204  26.414  0.00  0.00    +0.232 C 
ATOM     19  C   UNL     1       0.519  -0.211  22.807  0.00  0.00    +0.105 C 
ATOM     35  H   UNL     1       0.059   0.646  27.765  0.00  0.00    +0.149 HD
ENDROOT
BRANCH  13  17
ATOM     17  C   UNL     1       0.183  -1.717  25.386  0.00  0.00    +0.029 C 
BRANCH  17  20
ATOM     20  C   UNL     1      -0.652  -2.982  25.441  0.00  0.00    +0.097 C 
BRANCH  20  22
ATOM      3  O   UNL     1      -1.415  -3.458  23.249  0.00  0.00    -0.276 OA
ATOM      9  N   UNL     1      -2.945  -2.461  24.684  0.00  0.00    -0.301 N 
ATOM     22  C   UNL     1      -1.698  -2.992  24.356  0.00  0.00    +0.216 C 
ATOM     23  C   UNL     1      -5.021  -0.453  24.829  0.00  0.00    +0.101 C 
ATOM     24  C   UNL     1      -4.027  -2.474  23.697  0.00  0.00    +0.108 C 
ATOM     25  C   UNL     1      -3.313  -1.901  25.991  0.00  0.00    +0.108 C 
ATOM     26  C   UNL     1      -4.597  -1.072  23.495  0.00  0.00    +0.033 C 
ATOM     27  C   UNL     1      -3.869  -0.488  25.836  0.00  0.00    +0.033 C 
BRANCH  23  30
ATOM      5  O   UNL     1      -6.635   1.312  24.555  0.00  0.00    -0.251 OA
ATOM     30  C   UNL     1      -5.464   0.960  24.603  0.00  0.00    +0.310 C 
BRANCH  30   4
ATOM      4  O   UNL     1      -4.370   1.764  24.465  0.00  0.00    -0.468 OA
ATOM     34  C   UNL     1      -3.632   1.593  23.251  0.00  0.00    +0.280 C 
ENDBRANCH  30   4
ENDBRANCH  23  30
ENDBRANCH  20  22
ENDBRANCH  17  20
ENDBRANCH  13  17
BRANCH   7  18
ATOM     18  C   UNL     1      -0.828   5.102  25.360  0.00  0.00    +0.120 C 
BRANCH  18  21
ATOM      1  F   UNL     1      -6.341   3.958  25.567  0.00  0.00    -0.205 F 
ATOM     21  C   UNL     1      -2.300   4.797  25.414  0.00  0.00    -0.033 A 
ATOM     28  C   UNL     1      -2.854   4.239  26.567  0.00  0.00    +0.008 A 
ATOM     29  C   UNL     1      -3.112   5.071  24.314  0.00  0.00    +0.008 A 
ATOM     31  C   UNL     1      -4.219   3.955  26.618  0.00  0.00    +0.038 A 
ATOM     32  C   UNL     1      -4.477   4.788  24.365  0.00  0.00    +0.038 A 
ATOM     33  C   UNL     1      -5.030   4.230  25.517  0.00  0.00    +0.123 A 
ENDBRANCH  18  21
ENDBRANCH   7  18
TORSDOF 7
ENDMDL
MODEL 5
REMARK VINA RESULT:       3.9      2.192      5.787
REMARK  Name = 45361159
REMARK  9 active torsions:
REMARK  status: ('A' for Active; 'I' for Inactive)
REMARK    1  A    between atoms: O_4  and  C_30
REMARK    2  A    between atoms: O_4  and  C_34
REMARK    3  A    between atoms: N_6  and  C_19
REMARK    4  A    between atoms: N_7  and  C_18
REMARK    5  A    between atoms: C_13  and  C_17
REMARK    6  A    between atoms: C_17  and  C_20
REMARK    7  A    between atoms: C_18  and  C_21
REMARK    8  A    between atoms: C_20  and  C_22
REMARK    9  A    between atoms: C_23  and  C_30
REMARK                            x       y       z     vdW  Elec       q    Type
REMARK                         _______ _______ _______ _____ _____    ______ ____
ROOT
ATOM      2  O   UNL     1      -3.344   3.099  22.255  0.00  0.00    -0.274 OA
ATOM      6  N   UNL     1      -5.445   0.841  24.594  0.00  0.00    -0.296 NA
ATOM      7  N   UNL     1      -4.241   4.296  24.503  0.00  0.00    -0.286 NA
ATOM      8  N   UNL     1      -2.901   1.091  23.258  0.00  0.00    -0.312 N 
ATOM     10  C   UNL     1      -5.047   2.121  25.220  0.00  0.00    +0.084 C 
ATOM     11  C   UNL     1      -3.825   2.886  24.631  0.00  0.00    +0.161 C 
ATOM     12  C   UNL     1      -6.145   3.199  25.192  0.00  0.00    +0.036 C 
ATOM     13  C   UNL     1      -4.422  -0.237  24.691  0.00  0.00    +0.074 C 
ATOM     14  C   UNL     1      -5.379   4.489  25.396  0.00  0.00    +0.087 C 
ATOM     15  C   UNL     1      -2.975   0.213  24.408  0.00  0.00    +0.123 C 
ATOM     16  C   UNL     1      -3.355   2.397  23.264  0.00  0.00    +0.232 C 
ATOM     19  C   UNL     1      -6.733   0.373  25.134  0.00  0.00    +0.105 C 
ATOM     35  H   UNL     1      -2.501   0.731  22.397  0.00  0.00    +0.149 HD
ENDROOT
BRANCH  13  17
ATOM     17  C   UNL     1      -4.752  -1.383  23.710  0.00  0.00    +0.029 C 
BRANCH  17  20
ATOM     20  C   UNL     1      -4.103  -2.689  24.126  0.00  0.00    +0.097 C 
BRANCH  20  22
ATOM      3  O   UNL     1      -3.291  -2.380  26.331  0.00  0.00    -0.276 OA
ATOM      9  N   UNL     1      -1.710  -2.339  24.630  0.00  0.00    -0.301 N 
ATOM     22  C   UNL     1      -3.005  -2.456  25.133  0.00  0.00    +0.216 C 
ATOM     23  C   UNL     1       0.666  -0.975  23.704  0.00  0.00    +0.101 C 
ATOM     24  C   UNL     1      -0.584  -2.155  25.548  0.00  0.00    +0.108 C 
ATOM     25  C   UNL     1      -1.338  -2.427  23.211  0.00  0.00    +0.108 C 
ATOM     26  C   UNL     1       0.230  -0.921  25.170  0.00  0.00    +0.033 C 
ATOM     27  C   UNL     1      -0.539  -1.198  22.786  0.00  0.00    +0.033 C 
BRANCH  23  30
ATOM      5  O   UNL     1       1.037   1.402  23.772  0.00  0.00    -0.251 OA
ATOM     30  C   UNL     1       1.359   0.303  23.342  0.00  0.00    +0.310 C 
BRANCH  30   4
ATOM      4  O   UNL     1       2.380   0.039  22.478  0.00  0.00    -0.468 OA
ATOM     34  C   UNL     1       3.610   0.716  22.755  0.00  0.00    +0.280 C 
ENDBRANCH  30   4
ENDBRANCH  23  30
ENDBRANCH  20  22
ENDBRANCH  17  20
ENDBRANCH  13  17
BRANCH   7  18
ATOM     18  C   UNL     1      -3.166   5.242  24.772  0.00  0.00    +0.120 C 
BRANCH  18  21
ATOM      1  F   UNL     1       1.437   2.676  26.766  0.00  0.00    -0.205 F 
ATOM     21  C   UNL     1      -1.936   4.557  25.304  0.00  0.00    -0.033 A 
ATOM     28  C   UNL     1      -2.042   3.662  26.370  0.00  0.00    +0.008 A 
ATOM     29  C   UNL     1      -0.691   4.816  24.733  0.00  0.00    +0.008 A 
ATOM     31  C   UNL     1      -0.903   3.028  26.864  0.00  0.00    +0.038 A 
ATOM     32  C   UNL     1       0.449   4.181  25.227  0.00  0.00    +0.038 A 
ATOM     33  C   UNL     1       0.343   3.287  26.292  0.00  0.00    +0.123 A 
ENDBRANCH  18  21
ENDBRANCH   7  18
TORSDOF 7
ENDMDL
MODEL 6
REMARK VINA RESULT:       4.2      2.094      3.637
REMARK  Name = 45361159
REMARK  9 active torsions:
REMARK  status: ('A' for Active; 'I' for Inactive)
REMARK    1  A    between atoms: O_4  and  C_30
REMARK    2  A    between atoms: O_4  and  C_34
REMARK    3  A    between atoms: N_6  and  C_19
REMARK    4  A    between atoms: N_7  and  C_18
REMARK    5  A    between atoms: C_13  and  C_17
REMARK    6  A    between atoms: C_17  and  C_20
REMARK    7  A    between atoms: C_18  and  C_21
REMARK    8  A    between atoms: C_20  and  C_22
REMARK    9  A    between atoms: C_23  and  C_30
REMARK                            x       y       z     vdW  Elec       q    Type
REMARK                         _______ _______ _______ _____ _____    ______ ____
ROOT
ATOM      2  O   UNL     1       1.909   2.229  24.194  0.00  0.00    -0.274 OA
ATOM      6  N   UNL     1      -1.783   1.803  25.275  0.00  0.00    -0.296 NA
ATOM      7  N   UNL     1       0.956  -0.293  24.052  0.00  0.00    -0.286 NA
ATOM      8  N   UNL     1      -0.026   3.217  23.477  0.00  0.00    -0.312 N 
ATOM     10  C   UNL     1      -1.231   0.608  24.600  0.00  0.00    +0.084 C 
ATOM     11  C   UNL     1       0.017   0.785  23.686  0.00  0.00    +0.161 C 
ATOM     12  C   UNL     1      -0.767  -0.497  25.565  0.00  0.00    +0.036 C 
ATOM     13  C   UNL     1      -2.313   2.844  24.351  0.00  0.00    +0.074 C 
ATOM     14  C   UNL     1       0.177  -1.329  24.723  0.00  0.00    +0.087 C 
ATOM     15  C   UNL     1      -1.429   3.132  23.122  0.00  0.00    +0.123 C 
ATOM     16  C   UNL     1       0.739   2.121  23.829  0.00  0.00    +0.232 C 
ATOM     19  C   UNL     1      -2.813   1.420  26.256  0.00  0.00    +0.105 C 
ATOM     35  H   UNL     1       0.421   4.129  23.475  0.00  0.00    +0.149 HD
ENDROOT
BRANCH  13  17
ATOM     17  C   UNL     1      -2.515   4.179  25.100  0.00  0.00    +0.029 C 
BRANCH  17  20
ATOM     20  C   UNL     1      -3.916   4.726  24.915  0.00  0.00    +0.097 C 
BRANCH  20  22
ATOM      3  O   UNL     1      -5.482   4.045  26.558  0.00  0.00    -0.276 OA
ATOM      9  N   UNL     1      -5.237   2.648  24.718  0.00  0.00    -0.301 N 
ATOM     22  C   UNL     1      -4.949   3.782  25.477  0.00  0.00    +0.216 C 
ATOM     23  C   UNL     1      -5.066  -0.126  23.919  0.00  0.00    +0.101 C 
ATOM     24  C   UNL     1      -6.260   1.705  25.175  0.00  0.00    +0.108 C 
ATOM     25  C   UNL     1      -4.620   2.309  23.429  0.00  0.00    +0.108 C 
ATOM     26  C   UNL     1      -5.699   0.288  25.250  0.00  0.00    +0.033 C 
ATOM     27  C   UNL     1      -4.026   0.903  23.467  0.00  0.00    +0.033 C 
BRANCH  23  30
ATOM      5  O   UNL     1      -4.428  -2.332  23.198  0.00  0.00    -0.251 OA
ATOM     30  C   UNL     1      -4.425  -1.472  24.068  0.00  0.00    +0.310 C 
BRANCH  30   4
ATOM      4  O   UNL     1      -3.855  -1.571  25.303  0.00  0.00    -0.468 OA
ATOM     34  C   UNL     1      -3.253  -2.834  25.601  0.00  0.00    +0.280 C 
ENDBRANCH  30   4
ENDBRANCH  23  30
ENDBRANCH  20  22
ENDBRANCH  17  20
ENDBRANCH  13  17
BRANCH   7  18
ATOM     18  C   UNL     1       1.704  -0.819  22.918  0.00  0.00    +0.120 C 
BRANCH  18  21
ATOM      1  F   UNL     1       7.244   0.041  23.480  0.00  0.00    -0.205 F 
ATOM     21  C   UNL     1       3.184  -0.588  23.068  0.00  0.00    -0.033 A 
ATOM     28  C   UNL     1       3.961  -1.497  23.786  0.00  0.00    +0.008 A 
ATOM     29  C   UNL     1       3.778   0.533  22.489  0.00  0.00    +0.008 A 
ATOM     31  C   UNL     1       5.333  -1.284  23.926  0.00  0.00    +0.038 A 
ATOM     32  C   UNL     1       5.150   0.746  22.628  0.00  0.00    +0.038 A 
ATOM     33  C   UNL     1       5.927  -0.163  23.347  0.00  0.00    +0.123 A 
ENDBRANCH  18  21
ENDBRANCH   7  18
TORSDOF 7
ENDMDL
