MODEL 1
REMARK VINA RESULT:      -2.8      0.000      0.000
REMARK  Name = 11883264
REMARK  7 active torsions:
REMARK  status: ('A' for Active; 'I' for Inactive)
REMARK    1  A    between atoms: O_3  and  C_12
REMARK    2  A    between atoms: O_3  and  C_16
REMARK    3  A    between atoms: O_6  and  C_23
REMARK    4  A    between atoms: O_6  and  C_24
REMARK    5  A    between atoms: N_7  and  C_11
REMARK    6  A    between atoms: C_15  and  C_17
REMARK    7  A    between atoms: C_16  and  C_18
REMARK                            x       y       z     vdW  Elec       q    Type
REMARK                         _______ _______ _______ _____ _____    ______ ____
ROOT
ATOM      1  O   UNL     1      -1.909   1.294  25.381  0.00  0.00    -0.369 OA
ATOM      2  O   UNL     1      -2.675   2.055  22.501  0.00  0.00    -0.369 OA
ATOM      9  C   UNL     1      -1.397   1.977  23.168  0.00  0.00    +0.172 C 
ATOM     10  C   UNL     1      -1.613   2.456  24.589  0.00  0.00    +0.180 C 
ATOM     11  C   UNL     1      -0.988   0.535  23.327  0.00  0.00    +0.130 C 
ATOM     12  C   UNL     1      -2.814   3.361  24.453  0.00  0.00    +0.176 C 
ATOM     13  C   UNL     1      -1.720   0.114  24.586  0.00  0.00    +0.185 C 
ATOM     14  C   UNL     1      -3.627   2.653  23.393  0.00  0.00    +0.194 C 
ENDROOT
BRANCH  11   7
ATOM      4  O   UNL     1       0.999  -0.492  21.488  0.00  0.00    -0.270 OA
ATOM      7  N   UNL     1       0.476   0.445  23.544  0.00  0.00    -0.304 N 
ATOM     15  C   UNL     1       1.341  -0.068  22.589  0.00  0.00    +0.244 C 
ATOM     25  H   UNL     1       0.812   0.670  24.475  0.00  0.00    +0.149 HD
BRANCH  15  17
ATOM     17  C   UNL     1       2.777  -0.115  22.970  0.00  0.00    +0.037 A 
ATOM     19  C   UNL     1       3.559   1.000  22.758  0.00  0.00    +0.016 A 
ATOM     20  C   UNL     1       3.281  -1.274  23.523  0.00  0.00    +0.016 A 
ATOM     21  C   UNL     1       4.907   0.955  23.116  0.00  0.00    +0.046 A 
ATOM     22  C   UNL     1       4.628  -1.320  23.881  0.00  0.00    +0.046 A 
ATOM     23  C   UNL     1       5.441  -0.205  23.677  0.00  0.00    +0.120 A 
BRANCH  23   6
ATOM      6  O   UNL     1       6.756  -0.250  24.026  0.00  0.00    -0.495 OA
ATOM     24  C   UNL     1       7.696  -0.513  22.986  0.00  0.00    +0.277 C 
ENDBRANCH  23   6
ENDBRANCH  15  17
ENDBRANCH  11   7
BRANCH  12   3
ATOM      3  O   UNL     1      -3.534   3.525  25.653  0.00  0.00    -0.362 OA
BRANCH   3  16
ATOM     16  C   UNL     1      -4.943   3.507  25.437  0.00  0.00    +0.255 C 
BRANCH  16  18
ATOM      5  O   UNL     1      -5.190   1.103  25.432  0.00  0.00    -0.274 OA
ATOM      8  N   UNL     1      -6.423   2.344  26.927  0.00  0.00    -0.327 N 
ATOM     18  C   UNL     1      -5.510   2.188  25.907  0.00  0.00    +0.236 C 
ATOM     26  H   UNL     1      -6.670   3.253  27.302  0.00  0.00    +0.145 HD
ATOM     27  H   UNL     1      -6.885   1.540  27.341  0.00  0.00    +0.145 HD
ENDBRANCH  16  18
ENDBRANCH   3  16
ENDBRANCH  12   3
TORSDOF 6
ENDMDL
MODEL 2
REMARK VINA RESULT:      -1.2      1.731      2.305
REMARK  Name = 11883264
REMARK  7 active torsions:
REMARK  status: ('A' for Active; 'I' for Inactive)
REMARK    1  A    between atoms: O_3  and  C_12
REMARK    2  A    between atoms: O_3  and  C_16
REMARK    3  A    between atoms: O_6  and  C_23
REMARK    4  A    between atoms: O_6  and  C_24
REMARK    5  A    between atoms: N_7  and  C_11
REMARK    6  A    between atoms: C_15  and  C_17
REMARK    7  A    between atoms: C_16  and  C_18
REMARK                            x       y       z     vdW  Elec       q    Type
REMARK                         _______ _______ _______ _____ _____    ______ ____
ROOT
ATOM      1  O   UNL     1      -1.938   0.884  25.786  0.00  0.00    -0.369 OA
ATOM      2  O   UNL     1      -3.160  -0.721  23.464  0.00  0.00    -0.369 OA
ATOM      9  C   UNL     1      -1.843  -0.162  23.659  0.00  0.00    +0.172 C 
ATOM     10  C   UNL     1      -2.028   1.159  24.379  0.00  0.00    +0.180 C 
ATOM     11  C   UNL     1      -1.067  -1.005  24.638  0.00  0.00    +0.130 C 
ATOM     12  C   UNL     1      -3.428   1.560  23.975  0.00  0.00    +0.176 C 
ATOM     13  C   UNL     1      -1.537  -0.480  25.981  0.00  0.00    +0.185 C 
ATOM     14  C   UNL     1      -4.137   0.226  23.920  0.00  0.00    +0.194 C 
ENDROOT
BRANCH  11   7
ATOM      4  O   UNL     1       0.369  -0.474  22.181  0.00  0.00    -0.270 OA
ATOM      7  N   UNL     1       0.386  -0.755  24.483  0.00  0.00    -0.304 N 
ATOM     15  C   UNL     1       0.972  -0.510  23.250  0.00  0.00    +0.244 C 
ATOM     25  H   UNL     1       0.961  -0.884  25.309  0.00  0.00    +0.149 HD
BRANCH  15  17
ATOM     17  C   UNL     1       2.444  -0.304  23.259  0.00  0.00    +0.037 A 
ATOM     19  C   UNL     1       3.253  -1.305  23.753  0.00  0.00    +0.016 A 
ATOM     20  C   UNL     1       2.954   0.882  22.773  0.00  0.00    +0.016 A 
ATOM     21  C   UNL     1       4.635  -1.112  23.761  0.00  0.00    +0.046 A 
ATOM     22  C   UNL     1       4.334   1.076  22.781  0.00  0.00    +0.046 A 
ATOM     23  C   UNL     1       5.175   0.079  23.276  0.00  0.00    +0.120 A 
BRANCH  23   6
ATOM      6  O   UNL     1       6.523   0.268  23.284  0.00  0.00    -0.495 OA
ATOM     24  C   UNL     1       7.330  -0.783  22.755  0.00  0.00    +0.277 C 
ENDBRANCH  23   6
ENDBRANCH  15  17
ENDBRANCH  11   7
BRANCH  12   3
ATOM      3  O   UNL     1      -4.040   2.450  24.880  0.00  0.00    -0.362 OA
BRANCH   3  16
ATOM     16  C   UNL     1      -3.683   3.805  24.620  0.00  0.00    +0.255 C 
BRANCH  16  18
ATOM      5  O   UNL     1      -2.952   4.140  26.899  0.00  0.00    -0.274 OA
ATOM      8  N   UNL     1      -1.643   4.939  25.183  0.00  0.00    -0.327 N 
ATOM     18  C   UNL     1      -2.748   4.297  25.699  0.00  0.00    +0.236 C 
ATOM     26  H   UNL     1      -1.499   5.055  24.186  0.00  0.00    +0.145 HD
ATOM     27  H   UNL     1      -0.929   5.322  25.795  0.00  0.00    +0.145 HD
ENDBRANCH  16  18
ENDBRANCH   3  16
ENDBRANCH  12   3
TORSDOF 6
ENDMDL
MODEL 3
REMARK VINA RESULT:      -0.5      1.571      2.199
REMARK  Name = 11883264
REMARK  7 active torsions:
REMARK  status: ('A' for Active; 'I' for Inactive)
REMARK    1  A    between atoms: O_3  and  C_12
REMARK    2  A    between atoms: O_3  and  C_16
REMARK    3  A    between atoms: O_6  and  C_23
REMARK    4  A    between atoms: O_6  and  C_24
REMARK    5  A    between atoms: N_7  and  C_11
REMARK    6  A    between atoms: C_15  and  C_17
REMARK    7  A    between atoms: C_16  and  C_18
REMARK                            x       y       z     vdW  Elec       q    Type
REMARK                         _______ _______ _______ _____ _____    ______ ____
ROOT
ATOM      1  O   UNL     1      -2.212   0.424  25.751  0.00  0.00    -0.369 OA
ATOM      2  O   UNL     1      -3.283  -1.851  23.978  0.00  0.00    -0.369 OA
ATOM      9  C   UNL     1      -2.043  -1.113  23.951  0.00  0.00    +0.172 C 
ATOM     10  C   UNL     1      -2.374   0.317  24.327  0.00  0.00    +0.180 C 
ATOM     11  C   UNL     1      -1.141  -1.583  25.065  0.00  0.00    +0.130 C 
ATOM     12  C   UNL     1      -3.823   0.439  23.918  0.00  0.00    +0.176 C 
ATOM     13  C   UNL     1      -1.638  -0.790  26.258  0.00  0.00    +0.185 C 
ATOM     14  C   UNL     1      -4.360  -0.938  24.239  0.00  0.00    +0.194 C 
ENDROOT
BRANCH  11   7
ATOM      4  O   UNL     1      -0.085  -0.559  22.570  0.00  0.00    -0.270 OA
ATOM      7  N   UNL     1       0.264  -1.215  24.768  0.00  0.00    -0.304 N 
ATOM     15  C   UNL     1       0.662  -0.731  23.530  0.00  0.00    +0.244 C 
ATOM     25  H   UNL     1       0.953  -1.440  25.478  0.00  0.00    +0.149 HD
BRANCH  15  17
ATOM     17  C   UNL     1       2.111  -0.434  23.384  0.00  0.00    +0.037 A 
ATOM     19  C   UNL     1       2.492   0.804  22.912  0.00  0.00    +0.016 A 
ATOM     20  C   UNL     1       3.028  -1.406  23.725  0.00  0.00    +0.016 A 
ATOM     21  C   UNL     1       3.852   1.083  22.774  0.00  0.00    +0.046 A 
ATOM     22  C   UNL     1       4.387  -1.128  23.588  0.00  0.00    +0.046 A 
ATOM     23  C   UNL     1       4.800   0.117  23.112  0.00  0.00    +0.120 A 
BRANCH  23   6
ATOM      6  O   UNL     1       6.127   0.388  22.977  0.00  0.00    -0.495 OA
ATOM     24  C   UNL     1       7.038  -0.467  23.665  0.00  0.00    +0.277 C 
ENDBRANCH  23   6
ENDBRANCH  15  17
ENDBRANCH  11   7
BRANCH  12   3
ATOM      3  O   UNL     1      -4.519   1.453  24.604  0.00  0.00    -0.362 OA
BRANCH   3  16
ATOM     16  C   UNL     1      -3.986   2.746  24.329  0.00  0.00    +0.255 C 
BRANCH  16  18
ATOM      5  O   UNL     1      -3.324   4.184  26.156  0.00  0.00    -0.274 OA
ATOM      8  N   UNL     1      -5.566   3.817  25.786  0.00  0.00    -0.327 N 
ATOM     18  C   UNL     1      -4.225   3.654  25.513  0.00  0.00    +0.236 C 
ATOM     26  H   UNL     1      -6.291   3.367  25.238  0.00  0.00    +0.145 HD
ATOM     27  H   UNL     1      -5.874   4.403  26.556  0.00  0.00    +0.145 HD
ENDBRANCH  16  18
ENDBRANCH   3  16
ENDBRANCH  12   3
TORSDOF 6
ENDMDL
