MODEL 1
REMARK VINA RESULT:       6.0      0.000      0.000
REMARK  Name = 26742287
REMARK  6 active torsions:
REMARK  status: ('A' for Active; 'I' for Inactive)
REMARK    1  A    between atoms: O_3  and  C_20
REMARK    2  A    between atoms: O_3  and  C_26
REMARK    3  A    between atoms: O_4  and  C_25
REMARK    4  A    between atoms: O_4  and  C_29
REMARK    5  A    between atoms: C_14  and  C_19
REMARK    6  A    between atoms: C_16  and  C_20
REMARK                            x       y       z     vdW  Elec       q    Type
REMARK                         _______ _______ _______ _____ _____    ______ ____
ROOT
ATOM      1  O   UNL     1      -2.838   5.709  25.785  0.00  0.00    -0.268 OA
ATOM      2  O   UNL     1      -5.497   1.173  26.097  0.00  0.00    -0.272 OA
ATOM      5  N   UNL     1      -4.118   1.145  24.228  0.00  0.00    -0.298 N 
ATOM      6  N   UNL     1      -2.499   3.882  24.359  0.00  0.00    -0.311 N 
ATOM      7  C   UNL     1      -4.307   3.113  22.712  0.00  0.00    +0.027 C 
ATOM      8  C   UNL     1      -2.179   1.892  22.856  0.00  0.00    +0.054 C 
ATOM      9  C   UNL     1      -3.136   2.592  21.893  0.00  0.00    +0.018 C 
ATOM     10  C   UNL     1      -5.031   1.958  23.425  0.00  0.00    +0.113 C 
ATOM     11  C   UNL     1      -3.784   4.156  23.700  0.00  0.00    +0.130 C 
ATOM     12  C   UNL     1      -2.903   0.706  23.529  0.00  0.00    +0.117 C 
ATOM     13  C   UNL     1      -1.641   2.854  23.919  0.00  0.00    +0.034 A 
ATOM     14  C   UNL     1      -0.400   2.733  24.457  0.00  0.00    +0.002 A 
ATOM     15  C   UNL     1      -2.135   4.786  25.372  0.00  0.00    +0.252 A 
ATOM     16  C   UNL     1      -4.470   0.792  25.530  0.00  0.00    +0.253 C 
ATOM     17  C   UNL     1       0.009   3.646  25.508  0.00  0.00    +0.015 A 
ATOM     18  C   UNL     1      -0.790   4.609  25.966  0.00  0.00    +0.071 A 
ENDROOT
BRANCH  14  19
ATOM     19  C   UNL     1       0.543   1.683  24.013  0.00  0.00    -0.016 A 
ATOM     21  C   UNL     1       0.166   0.341  24.063  0.00  0.00    +0.012 A 
ATOM     22  C   UNL     1       1.810   2.034  23.547  0.00  0.00    +0.012 A 
ATOM     23  C   UNL     1       1.054  -0.650  23.646  0.00  0.00    +0.046 A 
ATOM     24  C   UNL     1       2.699   1.044  23.130  0.00  0.00    +0.046 A 
ATOM     25  C   UNL     1       2.321  -0.299  23.180  0.00  0.00    +0.120 A 
BRANCH  25   4
ATOM      4  O   UNL     1       3.189  -1.265  22.774  0.00  0.00    -0.495 OA
ATOM     29  C   UNL     1       4.350  -1.475  23.576  0.00  0.00    +0.277 C 
ENDBRANCH  25   4
ENDBRANCH  14  19
BRANCH  16  20
ATOM     20  C   UNL     1      -3.510  -0.106  26.269  0.00  0.00    +0.324 C 
BRANCH  20   3
ATOM      3  O   UNL     1      -3.982  -1.422  26.103  0.00  0.00    -0.483 OA
BRANCH   3  26
ATOM     26  C   UNL     1      -3.356  -2.203  25.158  0.00  0.00    +0.121 A 
ATOM     27  C   UNL     1      -1.964  -2.282  25.128  0.00  0.00    +0.045 A 
ATOM     28  C   UNL     1      -4.115  -2.914  24.228  0.00  0.00    +0.045 A 
ATOM     30  C   UNL     1      -1.330  -3.074  24.170  0.00  0.00    +0.004 A 
ATOM     31  C   UNL     1      -3.481  -3.705  23.270  0.00  0.00    +0.004 A 
ATOM     32  C   UNL     1      -2.089  -3.785  23.241  0.00  0.00    +0.000 A 
ENDBRANCH   3  26
ENDBRANCH  20   3
ENDBRANCH  16  20
TORSDOF 5
ENDMDL
MODEL 2
REMARK VINA RESULT:       6.6      1.538      2.000
REMARK  Name = 26742287
REMARK  6 active torsions:
REMARK  status: ('A' for Active; 'I' for Inactive)
REMARK    1  A    between atoms: O_3  and  C_20
REMARK    2  A    between atoms: O_3  and  C_26
REMARK    3  A    between atoms: O_4  and  C_25
REMARK    4  A    between atoms: O_4  and  C_29
REMARK    5  A    between atoms: C_14  and  C_19
REMARK    6  A    between atoms: C_16  and  C_20
REMARK                            x       y       z     vdW  Elec       q    Type
REMARK                         _______ _______ _______ _____ _____    ______ ____
ROOT
ATOM      1  O   UNL     1      -2.927   4.230  28.382  0.00  0.00    -0.268 OA
ATOM      2  O   UNL     1      -6.336   1.232  25.714  0.00  0.00    -0.272 OA
ATOM      5  N   UNL     1      -4.745   2.093  24.257  0.00  0.00    -0.298 N 
ATOM      6  N   UNL     1      -2.716   3.698  26.110  0.00  0.00    -0.311 N 
ATOM      7  C   UNL     1      -4.393   4.557  24.371  0.00  0.00    +0.027 C 
ATOM      8  C   UNL     1      -2.542   3.097  23.675  0.00  0.00    +0.054 C 
ATOM      9  C   UNL     1      -3.229   4.433  23.400  0.00  0.00    +0.018 C 
ATOM     10  C   UNL     1      -5.391   3.403  24.176  0.00  0.00    +0.113 C 
ATOM     11  C   UNL     1      -3.836   4.596  25.794  0.00  0.00    +0.130 C 
ATOM     12  C   UNL     1      -3.540   1.945  23.429  0.00  0.00    +0.117 C 
ATOM     13  C   UNL     1      -1.994   3.026  25.104  0.00  0.00    +0.034 A 
ATOM     14  C   UNL     1      -0.875   2.328  25.426  0.00  0.00    +0.002 A 
ATOM     15  C   UNL     1      -2.342   3.653  27.465  0.00  0.00    +0.252 A 
ATOM     16  C   UNL     1      -5.322   1.084  25.026  0.00  0.00    +0.253 C 
ATOM     17  C   UNL     1      -0.460   2.255  26.814  0.00  0.00    +0.015 A 
ATOM     18  C   UNL     1      -1.138   2.855  27.793  0.00  0.00    +0.071 A 
ENDROOT
BRANCH  14  19
ATOM     19  C   UNL     1      -0.074   1.622  24.401  0.00  0.00    -0.016 A 
ATOM     21  C   UNL     1      -0.680   0.683  23.567  0.00  0.00    +0.012 A 
ATOM     22  C   UNL     1       1.287   1.894  24.271  0.00  0.00    +0.012 A 
ATOM     23  C   UNL     1       0.074   0.017  22.602  0.00  0.00    +0.046 A 
ATOM     24  C   UNL     1       2.043   1.228  23.306  0.00  0.00    +0.046 A 
ATOM     25  C   UNL     1       1.436   0.289  22.472  0.00  0.00    +0.120 A 
BRANCH  25   4
ATOM      4  O   UNL     1       2.172  -0.362  21.530  0.00  0.00    -0.495 OA
ATOM     29  C   UNL     1       3.537   0.031  21.387  0.00  0.00    +0.277 C 
ENDBRANCH  25   4
ENDBRANCH  14  19
BRANCH  16  20
ATOM     20  C   UNL     1      -4.637  -0.259  25.002  0.00  0.00    +0.324 C 
BRANCH  20   3
ATOM      3  O   UNL     1      -3.478  -0.133  25.790  0.00  0.00    -0.483 OA
BRANCH   3  26
ATOM     26  C   UNL     1      -2.444  -1.007  25.538  0.00  0.00    +0.121 A 
ATOM     27  C   UNL     1      -2.573  -1.970  24.536  0.00  0.00    +0.045 A 
ATOM     28  C   UNL     1      -1.269  -0.932  26.285  0.00  0.00    +0.045 A 
ATOM     30  C   UNL     1      -1.526  -2.857  24.282  0.00  0.00    +0.004 A 
ATOM     31  C   UNL     1      -0.223  -1.819  26.031  0.00  0.00    +0.004 A 
ATOM     32  C   UNL     1      -0.351  -2.780  25.029  0.00  0.00    +0.000 A 
ENDBRANCH   3  26
ENDBRANCH  20   3
ENDBRANCH  16  20
TORSDOF 5
ENDMDL
MODEL 3
REMARK VINA RESULT:       8.8      1.922      4.584
REMARK  Name = 26742287
REMARK  6 active torsions:
REMARK  status: ('A' for Active; 'I' for Inactive)
REMARK    1  A    between atoms: O_3  and  C_20
REMARK    2  A    between atoms: O_3  and  C_26
REMARK    3  A    between atoms: O_4  and  C_25
REMARK    4  A    between atoms: O_4  and  C_29
REMARK    5  A    between atoms: C_14  and  C_19
REMARK    6  A    between atoms: C_16  and  C_20
REMARK                            x       y       z     vdW  Elec       q    Type
REMARK                         _______ _______ _______ _____ _____    ______ ____
ROOT
ATOM      1  O   UNL     1      -5.039   1.003  23.409  0.00  0.00    -0.268 OA
ATOM      2  O   UNL     1      -3.124  -1.103  27.840  0.00  0.00    -0.272 OA
ATOM      5  N   UNL     1      -1.931  -1.903  26.014  0.00  0.00    -0.298 N 
ATOM      6  N   UNL     1      -3.138  -0.363  23.504  0.00  0.00    -0.311 N 
ATOM      7  C   UNL     1      -3.297  -2.838  24.153  0.00  0.00    +0.027 C 
ATOM      8  C   UNL     1      -1.106  -1.835  23.666  0.00  0.00    +0.054 C 
ATOM      9  C   UNL     1      -2.040  -2.990  23.310  0.00  0.00    +0.018 C 
ATOM     10  C   UNL     1      -2.957  -2.880  25.652  0.00  0.00    +0.113 C 
ATOM     11  C   UNL     1      -3.990  -1.533  23.760  0.00  0.00    +0.130 C 
ATOM     12  C   UNL     1      -0.735  -1.916  25.162  0.00  0.00    +0.117 C 
ATOM     13  C   UNL     1      -1.742  -0.477  23.353  0.00  0.00    +0.034 A 
ATOM     14  C   UNL     1      -1.013   0.602  22.968  0.00  0.00    +0.002 A 
ATOM     15  C   UNL     1      -3.822   0.849  23.304  0.00  0.00    +0.252 A 
ATOM     16  C   UNL     1      -2.110  -1.097  27.139  0.00  0.00    +0.253 C 
ATOM     17  C   UNL     1      -1.683   1.871  22.755  0.00  0.00    +0.015 A 
ATOM     18  C   UNL     1      -2.998   2.018  22.919  0.00  0.00    +0.071 A 
ENDROOT
BRANCH  14  19
ATOM     19  C   UNL     1       0.452   0.525  22.776  0.00  0.00    -0.016 A 
ATOM     21  C   UNL     1       0.984  -0.301  21.786  0.00  0.00    +0.012 A 
ATOM     22  C   UNL     1       1.302   1.276  23.588  0.00  0.00    +0.012 A 
ATOM     23  C   UNL     1       2.364  -0.375  21.606  0.00  0.00    +0.046 A 
ATOM     24  C   UNL     1       2.683   1.203  23.408  0.00  0.00    +0.046 A 
ATOM     25  C   UNL     1       3.214   0.376  22.417  0.00  0.00    +0.120 A 
BRANCH  25   4
ATOM      4  O   UNL     1       4.562   0.304  22.242  0.00  0.00    -0.495 OA
ATOM     29  C   UNL     1       5.359   0.102  23.408  0.00  0.00    +0.277 C 
ENDBRANCH  25   4
ENDBRANCH  14  19
BRANCH  16  20
ATOM     20  C   UNL     1      -0.977  -0.165  27.488  0.00  0.00    +0.324 C 
BRANCH  20   3
ATOM      3  O   UNL     1      -0.588   0.462  26.290  0.00  0.00    -0.483 OA
BRANCH   3  26
ATOM     26  C   UNL     1      -1.029   1.749  26.078  0.00  0.00    +0.121 A 
ATOM     27  C   UNL     1      -2.392   2.040  26.149  0.00  0.00    +0.045 A 
ATOM     28  C   UNL     1      -0.115   2.761  25.789  0.00  0.00    +0.045 A 
ATOM     30  C   UNL     1      -2.839   3.343  25.933  0.00  0.00    +0.004 A 
ATOM     31  C   UNL     1      -0.562   4.064  25.572  0.00  0.00    +0.004 A 
ATOM     32  C   UNL     1      -1.924   4.355  25.644  0.00  0.00    +0.000 A 
ENDBRANCH   3  26
ENDBRANCH  20   3
ENDBRANCH  16  20
TORSDOF 5
ENDMDL
MODEL 4
REMARK VINA RESULT:       9.1      2.710      5.306
REMARK  Name = 26742287
REMARK  6 active torsions:
REMARK  status: ('A' for Active; 'I' for Inactive)
REMARK    1  A    between atoms: O_3  and  C_20
REMARK    2  A    between atoms: O_3  and  C_26
REMARK    3  A    between atoms: O_4  and  C_25
REMARK    4  A    between atoms: O_4  and  C_29
REMARK    5  A    between atoms: C_14  and  C_19
REMARK    6  A    between atoms: C_16  and  C_20
REMARK                            x       y       z     vdW  Elec       q    Type
REMARK                         _______ _______ _______ _____ _____    ______ ____
ROOT
ATOM      1  O   UNL     1      -2.853   1.564  20.884  0.00  0.00    -0.268 OA
ATOM      2  O   UNL     1      -6.683   1.272  24.487  0.00  0.00    -0.272 OA
ATOM      5  N   UNL     1      -4.796   0.160  25.260  0.00  0.00    -0.298 N 
ATOM      6  N   UNL     1      -2.588   0.630  23.016  0.00  0.00    -0.311 N 
ATOM      7  C   UNL     1      -3.812  -1.516  23.701  0.00  0.00    +0.027 C 
ATOM      8  C   UNL     1      -2.362  -0.361  25.316  0.00  0.00    +0.054 C 
ATOM      9  C   UNL     1      -2.641  -1.709  24.651  0.00  0.00    +0.018 C 
ATOM     10  C   UNL     1      -5.060  -1.038  24.463  0.00  0.00    +0.113 C 
ATOM     11  C   UNL     1      -3.395  -0.529  22.610  0.00  0.00    +0.130 C 
ATOM     12  C   UNL     1      -3.605   0.084  26.116  0.00  0.00    +0.117 C 
ATOM     13  C   UNL     1      -1.984   0.709  24.287  0.00  0.00    +0.034 A 
ATOM     14  C   UNL     1      -1.125   1.723  24.566  0.00  0.00    +0.002 A 
ATOM     15  C   UNL     1      -2.363   1.590  22.014  0.00  0.00    +0.252 A 
ATOM     16  C   UNL     1      -5.688   1.231  25.215  0.00  0.00    +0.253 C 
ATOM     17  C   UNL     1      -0.871   2.735  23.558  0.00  0.00    +0.015 A 
ATOM     18  C   UNL     1      -1.450   2.704  22.357  0.00  0.00    +0.071 A 
ENDROOT
BRANCH  14  19
ATOM     19  C   UNL     1      -0.452   1.836  25.879  0.00  0.00    -0.016 A 
ATOM     21  C   UNL     1       0.378   2.924  26.146  0.00  0.00    +0.012 A 
ATOM     22  C   UNL     1      -0.645   0.852  26.848  0.00  0.00    +0.012 A 
ATOM     23  C   UNL     1       1.013   3.030  27.383  0.00  0.00    +0.046 A 
ATOM     24  C   UNL     1      -0.010   0.957  28.086  0.00  0.00    +0.046 A 
ATOM     25  C   UNL     1       0.820   2.047  28.352  0.00  0.00    +0.120 A 
BRANCH  25   4
ATOM      4  O   UNL     1       1.441   2.150  29.559  0.00  0.00    -0.495 OA
ATOM     29  C   UNL     1       2.743   2.733  29.572  0.00  0.00    +0.277 C 
ENDBRANCH  25   4
ENDBRANCH  14  19
BRANCH  16  20
ATOM     20  C   UNL     1      -5.386   2.400  26.117  0.00  0.00    +0.324 C 
BRANCH  20   3
ATOM      3  O   UNL     1      -5.338   3.541  25.295  0.00  0.00    -0.483 OA
BRANCH   3  26
ATOM     26  C   UNL     1      -4.139   4.213  25.215  0.00  0.00    +0.121 A 
ATOM     27  C   UNL     1      -3.827   4.951  24.073  0.00  0.00    +0.045 A 
ATOM     28  C   UNL     1      -3.235   4.155  26.276  0.00  0.00    +0.045 A 
ATOM     30  C   UNL     1      -2.612   5.631  23.992  0.00  0.00    +0.004 A 
ATOM     31  C   UNL     1      -2.019   4.834  26.194  0.00  0.00    +0.004 A 
ATOM     32  C   UNL     1      -1.708   5.572  25.053  0.00  0.00    +0.000 A 
ENDBRANCH   3  26
ENDBRANCH  20   3
ENDBRANCH  16  20
TORSDOF 5
ENDMDL
MODEL 5
REMARK VINA RESULT:       9.4      2.740      5.318
REMARK  Name = 26742287
REMARK  6 active torsions:
REMARK  status: ('A' for Active; 'I' for Inactive)
REMARK    1  A    between atoms: O_3  and  C_20
REMARK    2  A    between atoms: O_3  and  C_26
REMARK    3  A    between atoms: O_4  and  C_25
REMARK    4  A    between atoms: O_4  and  C_29
REMARK    5  A    between atoms: C_14  and  C_19
REMARK    6  A    between atoms: C_16  and  C_20
REMARK                            x       y       z     vdW  Elec       q    Type
REMARK                         _______ _______ _______ _____ _____    ______ ____
ROOT
ATOM      1  O   UNL     1      -1.691   1.957  21.481  0.00  0.00    -0.268 OA
ATOM      2  O   UNL     1      -4.767  -1.144  24.423  0.00  0.00    -0.272 OA
ATOM      5  N   UNL     1      -2.600  -1.175  25.257  0.00  0.00    -0.298 N 
ATOM      6  N   UNL     1      -0.993   0.892  23.448  0.00  0.00    -0.311 N 
ATOM      7  C   UNL     1      -0.806  -1.660  23.597  0.00  0.00    +0.027 C 
ATOM      8  C   UNL     1      -0.298  -0.276  25.563  0.00  0.00    +0.054 C 
ATOM      9  C   UNL     1       0.248  -1.377  24.655  0.00  0.00    +0.018 C 
ATOM     10  C   UNL     1      -2.123  -2.119  24.246  0.00  0.00    +0.113 C 
ATOM     11  C   UNL     1      -0.995  -0.401  22.750  0.00  0.00    +0.130 C 
ATOM     12  C   UNL     1      -1.593  -0.766  26.245  0.00  0.00    +0.117 C 
ATOM     13  C   UNL     1      -0.567   1.016  24.785  0.00  0.00    +0.034 A 
ATOM     14  C   UNL     1      -0.437   2.247  25.342  0.00  0.00    +0.002 A 
ATOM     15  C   UNL     1      -1.327   2.005  22.657  0.00  0.00    +0.252 A 
ATOM     16  C   UNL     1      -3.939  -0.788  25.265  0.00  0.00    +0.253 C 
ATOM     17  C   UNL     1      -0.776   3.420  24.558  0.00  0.00    +0.015 A 
ATOM     18  C   UNL     1      -1.210   3.334  23.300  0.00  0.00    +0.071 A 
ENDROOT
BRANCH  14  19
ATOM     19  C   UNL     1       0.025   2.428  26.736  0.00  0.00    -0.016 A 
ATOM     21  C   UNL     1       1.390   2.441  27.022  0.00  0.00    +0.012 A 
ATOM     22  C   UNL     1      -0.903   2.582  27.765  0.00  0.00    +0.012 A 
ATOM     23  C   UNL     1       1.827   2.609  28.336  0.00  0.00    +0.046 A 
ATOM     24  C   UNL     1      -0.468   2.750  29.079  0.00  0.00    +0.046 A 
ATOM     25  C   UNL     1       0.898   2.763  29.364  0.00  0.00    +0.120 A 
BRANCH  25   4
ATOM      4  O   UNL     1       1.324   2.927  30.646  0.00  0.00    -0.495 OA
ATOM     29  C   UNL     1       0.526   2.343  31.675  0.00  0.00    +0.277 C 
ENDBRANCH  25   4
ENDBRANCH  14  19
BRANCH  16  20
ATOM     20  C   UNL     1      -4.370   0.131  26.379  0.00  0.00    +0.324 C 
BRANCH  20   3
ATOM      3  O   UNL     1      -5.321   1.011  25.830  0.00  0.00    -0.483 OA
BRANCH   3  26
ATOM     26  C   UNL     1      -4.866   2.223  25.362  0.00  0.00    +0.121 A 
ATOM     27  C   UNL     1      -4.502   3.226  26.262  0.00  0.00    +0.045 A 
ATOM     28  C   UNL     1      -4.769   2.449  23.990  0.00  0.00    +0.045 A 
ATOM     30  C   UNL     1      -4.041   4.455  25.788  0.00  0.00    +0.004 A 
ATOM     31  C   UNL     1      -4.309   3.678  23.516  0.00  0.00    +0.004 A 
ATOM     32  C   UNL     1      -3.945   4.680  24.414  0.00  0.00    +0.000 A 
ENDBRANCH   3  26
ENDBRANCH  20   3
ENDBRANCH  16  20
TORSDOF 5
ENDMDL
MODEL 6
REMARK VINA RESULT:       9.8      2.461      5.351
REMARK  Name = 26742287
REMARK  6 active torsions:
REMARK  status: ('A' for Active; 'I' for Inactive)
REMARK    1  A    between atoms: O_3  and  C_20
REMARK    2  A    between atoms: O_3  and  C_26
REMARK    3  A    between atoms: O_4  and  C_25
REMARK    4  A    between atoms: O_4  and  C_29
REMARK    5  A    between atoms: C_14  and  C_19
REMARK    6  A    between atoms: C_16  and  C_20
REMARK                            x       y       z     vdW  Elec       q    Type
REMARK                         _______ _______ _______ _____ _____    ______ ____
ROOT
ATOM      1  O   UNL     1      -4.144   4.296  21.179  0.00  0.00    -0.268 OA
ATOM      2  O   UNL     1      -1.383   5.910  25.363  0.00  0.00    -0.272 OA
ATOM      5  N   UNL     1      -2.516   3.950  25.883  0.00  0.00    -0.298 N 
ATOM      6  N   UNL     1      -3.945   3.083  23.174  0.00  0.00    -0.311 N 
ATOM      7  C   UNL     1      -4.954   3.939  25.369  0.00  0.00    +0.027 C 
ATOM      8  C   UNL     1      -3.697   1.827  25.337  0.00  0.00    +0.054 C 
ATOM      9  C   UNL     1      -5.024   2.467  25.743  0.00  0.00    +0.018 C 
ATOM     10  C   UNL     1      -3.792   4.633  26.099  0.00  0.00    +0.113 C 
ATOM     11  C   UNL     1      -4.822   4.049  23.850  0.00  0.00    +0.130 C 
ATOM     12  C   UNL     1      -2.544   2.499  26.112  0.00  0.00    +0.117 C 
ATOM     13  C   UNL     1      -3.455   1.936  23.829  0.00  0.00    +0.034 A 
ATOM     14  C   UNL     1      -2.774   0.995  23.126  0.00  0.00    +0.002 A 
ATOM     15  C   UNL     1      -3.729   3.320  21.805  0.00  0.00    +0.252 A 
ATOM     16  C   UNL     1      -1.382   4.691  25.552  0.00  0.00    +0.253 C 
ATOM     17  C   UNL     1      -2.529   1.206  21.712  0.00  0.00    +0.015 A 
ATOM     18  C   UNL     1      -2.953   2.295  21.070  0.00  0.00    +0.071 A 
ENDROOT
BRANCH  14  19
ATOM     19  C   UNL     1      -2.258  -0.235  23.767  0.00  0.00    -0.016 A 
ATOM     21  C   UNL     1      -3.104  -1.327  23.961  0.00  0.00    +0.012 A 
ATOM     22  C   UNL     1      -0.928  -0.302  24.178  0.00  0.00    +0.012 A 
ATOM     23  C   UNL     1      -2.619  -2.486  24.566  0.00  0.00    +0.046 A 
ATOM     24  C   UNL     1      -0.442  -1.461  24.784  0.00  0.00    +0.046 A 
ATOM     25  C   UNL     1      -1.288  -2.553  24.978  0.00  0.00    +0.120 A 
BRANCH  25   4
ATOM      4  O   UNL     1      -0.815  -3.684  25.569  0.00  0.00    -0.495 OA
ATOM     29  C   UNL     1       0.598  -3.785  25.740  0.00  0.00    +0.277 C 
ENDBRANCH  25   4
ENDBRANCH  14  19
BRANCH  16  20
ATOM     20  C   UNL     1      -0.091   3.925  25.414  0.00  0.00    +0.324 C 
BRANCH  20   3
ATOM      3  O   UNL     1      -0.199   2.801  26.253  0.00  0.00    -0.483 OA
BRANCH   3  26
ATOM     26  C   UNL     1       0.607   2.764  27.369  0.00  0.00    +0.121 A 
ATOM     27  C   UNL     1       0.079   2.367  28.598  0.00  0.00    +0.045 A 
ATOM     28  C   UNL     1       1.950   3.125  27.271  0.00  0.00    +0.045 A 
ATOM     30  C   UNL     1       0.895   2.330  29.729  0.00  0.00    +0.004 A 
ATOM     31  C   UNL     1       2.766   3.089  28.402  0.00  0.00    +0.004 A 
ATOM     32  C   UNL     1       2.238   2.692  29.630  0.00  0.00    +0.000 A 
ENDBRANCH   3  26
ENDBRANCH  20   3
ENDBRANCH  16  20
TORSDOF 5
ENDMDL
