MODEL 1
REMARK VINA RESULT:      -3.9      0.000      0.000
REMARK  Name = 26742536
REMARK  10 active torsions:
REMARK  status: ('A' for Active; 'I' for Inactive)
REMARK    1  A    between atoms: O_3  and  C_22
REMARK    2  A    between atoms: O_4  and  C_23
REMARK    3  A    between atoms: O_4  and  C_28
REMARK    4  A    between atoms: N_7  and  C_19
REMARK    5  A    between atoms: C_9  and  C_15
REMARK    6  A    between atoms: C_10  and  C_14
REMARK    7  A    between atoms: C_14  and  C_16
REMARK    8  A    between atoms: C_15  and  C_17
REMARK    9  A    between atoms: C_19  and  C_21
REMARK   10  A    between atoms: C_20  and  C_22
REMARK                            x       y       z     vdW  Elec       q    Type
REMARK                         _______ _______ _______ _____ _____    ______ ____
ROOT
ATOM      6  N   UNL     1      -0.508   5.283  24.604  0.00  0.00    -0.316 NA
ATOM      9  C   UNL     1      -2.567   3.300  25.337  0.00  0.00    +0.004 C 
ATOM     10  C   UNL     1      -1.286   2.926  24.552  0.00  0.00    +0.012 C 
ATOM     11  C   UNL     1      -2.300   4.578  26.151  0.00  0.00    +0.019 C 
ATOM     12  C   UNL     1      -0.744   4.119  23.749  0.00  0.00    +0.085 C 
ATOM     13  C   UNL     1      -1.725   5.705  25.295  0.00  0.00    +0.081 C 
ATOM     29  H   UNL     1      -0.158   6.054  24.036  0.00  0.00    +0.122 HD
ENDROOT
BRANCH  10  14
ATOM     14  C   UNL     1      -1.474   1.709  23.645  0.00  0.00    +0.064 C 
BRANCH  14  16
ATOM      2  O   UNL     1       1.189  -0.540  22.743  0.00  0.00    -0.348 OA
ATOM      8  N   UNL     1      -0.156  -0.214  22.865  0.00  0.00    -0.082 NA
ATOM     16  C   UNL     1      -0.167   1.023  23.373  0.00  0.00    +0.085 A 
ATOM     18  C   UNL     1       1.129   1.522  23.589  0.00  0.00    +0.083 A 
ATOM     20  C   UNL     1       1.945   0.501  23.176  0.00  0.00    +0.244 A 
BRANCH  20  22
ATOM      5  O   UNL     1       4.183   1.257  22.802  0.00  0.00    -0.242 OA
ATOM     22  C   UNL     1       3.359   0.371  23.134  0.00  0.00    +0.375 C 
BRANCH  22   3
ATOM      3  O   UNL     1       3.811  -0.872  23.504  0.00  0.00    -0.475 OA
ATOM     31  H   UNL     1       3.804  -1.498  22.747  0.00  0.00    +0.296 HD
ENDBRANCH  22   3
ENDBRANCH  20  22
ENDBRANCH  14  16
ENDBRANCH  10  14
BRANCH   9  15
ATOM     15  C   UNL     1      -3.811   3.462  24.459  0.00  0.00    +0.099 C 
BRANCH  15  17
ATOM      1  O   UNL     1      -6.011   2.459  24.550  0.00  0.00    -0.276 OA
ATOM      7  N   UNL     1      -4.138   1.136  24.923  0.00  0.00    -0.311 N 
ATOM     17  C   UNL     1      -4.794   2.325  24.642  0.00  0.00    +0.214 C 
ATOM     30  H   UNL     1      -3.123   1.115  24.957  0.00  0.00    +0.149 HD
BRANCH   7  19
ATOM     19  C   UNL     1      -4.828  -0.113  25.148  0.00  0.00    +0.143 C 
BRANCH  19  21
ATOM     21  C   UNL     1      -3.998  -1.295  24.736  0.00  0.00    +0.011 A 
ATOM     23  C   UNL     1      -2.702  -1.460  25.223  0.00  0.00    +0.125 A 
ATOM     24  C   UNL     1      -4.536  -2.234  23.856  0.00  0.00    +0.009 A 
ATOM     25  C   UNL     1      -1.943  -2.562  24.831  0.00  0.00    +0.046 A 
ATOM     26  C   UNL     1      -3.779  -3.337  23.464  0.00  0.00    +0.001 A 
ATOM     27  C   UNL     1      -2.482  -3.502  23.951  0.00  0.00    +0.004 A 
BRANCH  23   4
ATOM      4  O   UNL     1      -2.160  -0.552  26.083  0.00  0.00    -0.495 OA
ATOM     28  C   UNL     1      -0.766  -0.677  26.362  0.00  0.00    +0.277 C 
ENDBRANCH  23   4
ENDBRANCH  19  21
ENDBRANCH   7  19
ENDBRANCH  15  17
ENDBRANCH   9  15
TORSDOF 9
ENDMDL
MODEL 2
REMARK VINA RESULT:      -3.7      1.681      5.251
REMARK  Name = 26742536
REMARK  10 active torsions:
REMARK  status: ('A' for Active; 'I' for Inactive)
REMARK    1  A    between atoms: O_3  and  C_22
REMARK    2  A    between atoms: O_4  and  C_23
REMARK    3  A    between atoms: O_4  and  C_28
REMARK    4  A    between atoms: N_7  and  C_19
REMARK    5  A    between atoms: C_9  and  C_15
REMARK    6  A    between atoms: C_10  and  C_14
REMARK    7  A    between atoms: C_14  and  C_16
REMARK    8  A    between atoms: C_15  and  C_17
REMARK    9  A    between atoms: C_19  and  C_21
REMARK   10  A    between atoms: C_20  and  C_22
REMARK                            x       y       z     vdW  Elec       q    Type
REMARK                         _______ _______ _______ _____ _____    ______ ____
ROOT
ATOM      6  N   UNL     1      -3.037  -3.592  24.618  0.00  0.00    -0.316 NA
ATOM      9  C   UNL     1      -3.799  -0.779  24.157  0.00  0.00    +0.004 C 
ATOM     10  C   UNL     1      -2.374  -1.200  24.593  0.00  0.00    +0.012 C 
ATOM     11  C   UNL     1      -4.475  -1.962  23.445  0.00  0.00    +0.019 C 
ATOM     12  C   UNL     1      -2.388  -2.522  25.376  0.00  0.00    +0.085 C 
ATOM     13  C   UNL     1      -4.414  -3.249  24.265  0.00  0.00    +0.081 C 
ATOM     29  H   UNL     1      -3.035  -4.448  25.172  0.00  0.00    +0.122 HD
ENDROOT
BRANCH  10  14
ATOM     14  C   UNL     1      -1.645  -0.114  25.385  0.00  0.00    +0.064 C 
BRANCH  14  16
ATOM      2  O   UNL     1       1.338   1.541  24.232  0.00  0.00    -0.348 OA
ATOM      8  N   UNL     1       0.233   1.441  25.069  0.00  0.00    -0.082 NA
ATOM     16  C   UNL     1      -0.387   0.319  24.689  0.00  0.00    +0.085 A 
ATOM     18  C   UNL     1       0.274  -0.323  23.628  0.00  0.00    +0.083 A 
ATOM     20  C   UNL     1       1.352   0.485  23.379  0.00  0.00    +0.244 A 
BRANCH  20  22
ATOM      5  O   UNL     1       3.594   0.774  22.598  0.00  0.00    -0.242 OA
ATOM     22  C   UNL     1       2.409   0.398  22.433  0.00  0.00    +0.375 C 
BRANCH  22   3
ATOM      3  O   UNL     1       2.035  -0.162  21.236  0.00  0.00    -0.475 OA
ATOM     31  H   UNL     1       1.444  -0.935  21.368  0.00  0.00    +0.296 HD
ENDBRANCH  22   3
ENDBRANCH  20  22
ENDBRANCH  14  16
ENDBRANCH  10  14
BRANCH   9  15
ATOM     15  C   UNL     1      -4.673  -0.260  25.304  0.00  0.00    +0.099 C 
BRANCH  15  17
ATOM      1  O   UNL     1      -6.091   1.626  24.766  0.00  0.00    -0.276 OA
ATOM      7  N   UNL     1      -3.921   2.004  25.507  0.00  0.00    -0.311 N 
ATOM     17  C   UNL     1      -5.002   1.211  25.154  0.00  0.00    +0.214 C 
ATOM     30  H   UNL     1      -3.064   1.572  25.840  0.00  0.00    +0.149 HD
BRANCH   7  19
ATOM     19  C   UNL     1      -3.952   3.448  25.458  0.00  0.00    +0.143 C 
BRANCH  19  21
ATOM     21  C   UNL     1      -2.669   4.020  24.927  0.00  0.00    +0.011 A 
ATOM     23  C   UNL     1      -2.021   3.428  23.842  0.00  0.00    +0.125 A 
ATOM     24  C   UNL     1      -2.125   5.153  25.530  0.00  0.00    +0.009 A 
ATOM     25  C   UNL     1      -0.830   3.970  23.360  0.00  0.00    +0.046 A 
ATOM     26  C   UNL     1      -0.934   5.696  25.048  0.00  0.00    +0.001 A 
ATOM     27  C   UNL     1      -0.286   5.105  23.963  0.00  0.00    +0.004 A 
BRANCH  23   4
ATOM      4  O   UNL     1      -2.538   2.320  23.242  0.00  0.00    -0.495 OA
ATOM     28  C   UNL     1      -2.521   2.288  21.815  0.00  0.00    +0.277 C 
ENDBRANCH  23   4
ENDBRANCH  19  21
ENDBRANCH   7  19
ENDBRANCH  15  17
ENDBRANCH   9  15
TORSDOF 9
ENDMDL
MODEL 3
REMARK VINA RESULT:      -3.5      1.884      7.016
REMARK  Name = 26742536
REMARK  10 active torsions:
REMARK  status: ('A' for Active; 'I' for Inactive)
REMARK    1  A    between atoms: O_3  and  C_22
REMARK    2  A    between atoms: O_4  and  C_23
REMARK    3  A    between atoms: O_4  and  C_28
REMARK    4  A    between atoms: N_7  and  C_19
REMARK    5  A    between atoms: C_9  and  C_15
REMARK    6  A    between atoms: C_10  and  C_14
REMARK    7  A    between atoms: C_14  and  C_16
REMARK    8  A    between atoms: C_15  and  C_17
REMARK    9  A    between atoms: C_19  and  C_21
REMARK   10  A    between atoms: C_20  and  C_22
REMARK                            x       y       z     vdW  Elec       q    Type
REMARK                         _______ _______ _______ _____ _____    ______ ____
ROOT
ATOM      6  N   UNL     1      -3.953  -2.871  24.311  0.00  0.00    -0.316 NA
ATOM      9  C   UNL     1      -1.573  -1.159  24.642  0.00  0.00    +0.004 C 
ATOM     10  C   UNL     1      -2.936  -0.612  24.153  0.00  0.00    +0.012 C 
ATOM     11  C   UNL     1      -1.811  -2.438  25.462  0.00  0.00    +0.019 C 
ATOM     12  C   UNL     1      -3.766  -1.700  23.454  0.00  0.00    +0.085 C 
ATOM     13  C   UNL     1      -2.676  -3.454  24.720  0.00  0.00    +0.081 C 
ATOM     29  H   UNL     1      -4.499  -3.572  23.811  0.00  0.00    +0.122 HD
ENDROOT
BRANCH  10  14
ATOM     14  C   UNL     1      -2.800   0.620  23.257  0.00  0.00    +0.064 C 
BRANCH  14  16
ATOM      2  O   UNL     1      -4.384   3.785  23.919  0.00  0.00    -0.348 OA
ATOM      8  N   UNL     1      -3.530   2.966  23.191  0.00  0.00    -0.082 NA
ATOM     16  C   UNL     1      -3.606   1.771  23.785  0.00  0.00    +0.085 A 
ATOM     18  C   UNL     1      -4.484   1.777  24.883  0.00  0.00    +0.083 A 
ATOM     20  C   UNL     1      -4.946   3.066  24.924  0.00  0.00    +0.244 A 
BRANCH  20  22
ATOM      5  O   UNL     1      -6.233   4.917  25.722  0.00  0.00    -0.242 OA
ATOM     22  C   UNL     1      -5.860   3.722  25.793  0.00  0.00    +0.375 C 
BRANCH  22   3
ATOM      3  O   UNL     1      -6.347   2.917  26.794  0.00  0.00    -0.475 OA
ATOM     31  H   UNL     1      -7.300   3.083  26.958  0.00  0.00    +0.296 HD
ENDBRANCH  22   3
ENDBRANCH  20  22
ENDBRANCH  14  16
ENDBRANCH  10  14
BRANCH   9  15
ATOM     15  C   UNL     1      -0.563  -1.412  23.517  0.00  0.00    +0.099 C 
BRANCH  15  17
ATOM      1  O   UNL     1       1.272  -0.226  22.478  0.00  0.00    -0.276 OA
ATOM      7  N   UNL     1       0.017   0.831  24.124  0.00  0.00    -0.311 N 
ATOM     17  C   UNL     1       0.354  -0.228  23.293  0.00  0.00    +0.214 C 
ATOM     30  H   UNL     1      -0.775   0.746  24.754  0.00  0.00    +0.149 HD
BRANCH   7  19
ATOM     19  C   UNL     1       0.727   2.090  24.126  0.00  0.00    +0.143 C 
BRANCH  19  21
ATOM     21  C   UNL     1      -0.155   3.230  24.547  0.00  0.00    +0.011 A 
ATOM     23  C   UNL     1      -0.874   3.170  25.740  0.00  0.00    +0.125 A 
ATOM     24  C   UNL     1      -0.248   4.357  23.733  0.00  0.00    +0.009 A 
ATOM     25  C   UNL     1      -1.689   4.237  26.118  0.00  0.00    +0.046 A 
ATOM     26  C   UNL     1      -1.062   5.426  24.110  0.00  0.00    +0.001 A 
ATOM     27  C   UNL     1      -1.783   5.366  25.303  0.00  0.00    +0.004 A 
BRANCH  23   4
ATOM      4  O   UNL     1      -0.795   2.076  26.549  0.00  0.00    -0.495 OA
ATOM     28  C   UNL     1       0.172   2.114  27.598  0.00  0.00    +0.277 C 
ENDBRANCH  23   4
ENDBRANCH  19  21
ENDBRANCH   7  19
ENDBRANCH  15  17
ENDBRANCH   9  15
TORSDOF 9
ENDMDL
MODEL 4
REMARK VINA RESULT:      -2.6      2.124      4.453
REMARK  Name = 26742536
REMARK  10 active torsions:
REMARK  status: ('A' for Active; 'I' for Inactive)
REMARK    1  A    between atoms: O_3  and  C_22
REMARK    2  A    between atoms: O_4  and  C_23
REMARK    3  A    between atoms: O_4  and  C_28
REMARK    4  A    between atoms: N_7  and  C_19
REMARK    5  A    between atoms: C_9  and  C_15
REMARK    6  A    between atoms: C_10  and  C_14
REMARK    7  A    between atoms: C_14  and  C_16
REMARK    8  A    between atoms: C_15  and  C_17
REMARK    9  A    between atoms: C_19  and  C_21
REMARK   10  A    between atoms: C_20  and  C_22
REMARK                            x       y       z     vdW  Elec       q    Type
REMARK                         _______ _______ _______ _____ _____    ______ ____
ROOT
ATOM      6  N   UNL     1      -1.101   1.362  25.575  0.00  0.00    -0.316 NA
ATOM      9  C   UNL     1      -0.420  -1.423  24.874  0.00  0.00    +0.004 C 
ATOM     10  C   UNL     1       0.326  -0.204  24.279  0.00  0.00    +0.012 C 
ATOM     11  C   UNL     1      -1.040  -1.021  26.223  0.00  0.00    +0.019 C 
ATOM     12  C   UNL     1      -0.566   1.048  24.250  0.00  0.00    +0.085 C 
ATOM     13  C   UNL     1      -1.878   0.252  26.123  0.00  0.00    +0.081 C 
ATOM     29  H   UNL     1      -1.692   2.190  25.513  0.00  0.00    +0.122 HD
ENDROOT
BRANCH  10  14
ATOM     14  C   UNL     1       0.912  -0.478  22.894  0.00  0.00    +0.064 C 
BRANCH  14  16
ATOM      2  O   UNL     1       4.243   0.757  22.308  0.00  0.00    -0.348 OA
ATOM      8  N   UNL     1       2.868   0.787  22.109  0.00  0.00    -0.082 NA
ATOM     16  C   UNL     1       2.389  -0.208  22.862  0.00  0.00    +0.085 A 
ATOM     18  C   UNL     1       3.405  -0.893  23.551  0.00  0.00    +0.083 A 
ATOM     20  C   UNL     1       4.551  -0.247  23.168  0.00  0.00    +0.244 A 
BRANCH  20  22
ATOM      5  O   UNL     1       6.909  -0.241  22.770  0.00  0.00    -0.242 OA
ATOM     22  C   UNL     1       5.916  -0.449  23.507  0.00  0.00    +0.375 C 
BRANCH  22   3
ATOM      3  O   UNL     1       6.105  -0.922  24.783  0.00  0.00    -0.475 OA
ATOM     31  H   UNL     1       6.319  -1.881  24.784  0.00  0.00    +0.296 HD
ENDBRANCH  22   3
ENDBRANCH  20  22
ENDBRANCH  14  16
ENDBRANCH  10  14
BRANCH   9  15
ATOM     15  C   UNL     1      -1.479  -2.021  23.942  0.00  0.00    +0.099 C 
BRANCH  15  17
ATOM      1  O   UNL     1      -3.421  -2.607  25.262  0.00  0.00    -0.276 OA
ATOM      7  N   UNL     1      -3.465  -0.684  23.958  0.00  0.00    -0.311 N 
ATOM     17  C   UNL     1      -2.884  -1.832  24.475  0.00  0.00    +0.214 C 
ATOM     30  H   UNL     1      -2.935  -0.088  23.329  0.00  0.00    +0.149 HD
BRANCH   7  19
ATOM     19  C   UNL     1      -4.805  -0.257  24.294  0.00  0.00    +0.143 C 
BRANCH  19  21
ATOM     21  C   UNL     1      -4.857   1.201  24.649  0.00  0.00    +0.011 A 
ATOM     23  C   UNL     1      -4.028   2.121  24.006  0.00  0.00    +0.125 A 
ATOM     24  C   UNL     1      -5.746   1.633  25.633  0.00  0.00    +0.009 A 
ATOM     25  C   UNL     1      -4.088   3.472  24.348  0.00  0.00    +0.046 A 
ATOM     26  C   UNL     1      -5.807   2.984  25.974  0.00  0.00    +0.001 A 
ATOM     27  C   UNL     1      -4.978   3.904  25.332  0.00  0.00    +0.004 A 
BRANCH  23   4
ATOM      4  O   UNL     1      -3.153   1.717  23.043  0.00  0.00    -0.495 OA
ATOM     28  C   UNL     1      -2.883   2.636  21.986  0.00  0.00    +0.277 C 
ENDBRANCH  23   4
ENDBRANCH  19  21
ENDBRANCH   7  19
ENDBRANCH  15  17
ENDBRANCH   9  15
TORSDOF 9
ENDMDL
MODEL 5
REMARK VINA RESULT:      -1.8      1.480      2.221
REMARK  Name = 26742536
REMARK  10 active torsions:
REMARK  status: ('A' for Active; 'I' for Inactive)
REMARK    1  A    between atoms: O_3  and  C_22
REMARK    2  A    between atoms: O_4  and  C_23
REMARK    3  A    between atoms: O_4  and  C_28
REMARK    4  A    between atoms: N_7  and  C_19
REMARK    5  A    between atoms: C_9  and  C_15
REMARK    6  A    between atoms: C_10  and  C_14
REMARK    7  A    between atoms: C_14  and  C_16
REMARK    8  A    between atoms: C_15  and  C_17
REMARK    9  A    between atoms: C_19  and  C_21
REMARK   10  A    between atoms: C_20  and  C_22
REMARK                            x       y       z     vdW  Elec       q    Type
REMARK                         _______ _______ _______ _____ _____    ______ ____
ROOT
ATOM      6  N   UNL     1      -0.723   5.505  24.963  0.00  0.00    -0.316 NA
ATOM      9  C   UNL     1      -2.992   3.753  25.662  0.00  0.00    +0.004 C 
ATOM     10  C   UNL     1      -1.536   3.236  25.561  0.00  0.00    +0.012 C 
ATOM     11  C   UNL     1      -2.969   5.261  25.962  0.00  0.00    +0.019 C 
ATOM     12  C   UNL     1      -0.698   4.089  24.595  0.00  0.00    +0.085 C 
ATOM     13  C   UNL     1      -2.084   6.036  24.987  0.00  0.00    +0.081 C 
ATOM     29  H   UNL     1      -0.164   6.037  24.296  0.00  0.00    +0.122 HD
ENDROOT
BRANCH  10  14
ATOM     14  C   UNL     1      -1.451   1.757  25.185  0.00  0.00    +0.064 C 
BRANCH  14  16
ATOM      2  O   UNL     1       1.905   1.614  23.886  0.00  0.00    -0.348 OA
ATOM      8  N   UNL     1       0.934   2.143  24.728  0.00  0.00    -0.082 NA
ATOM     16  C   UNL     1      -0.176   1.451  24.452  0.00  0.00    +0.085 A 
ATOM     18  C   UNL     1       0.032   0.484  23.453  0.00  0.00    +0.083 A 
ATOM     20  C   UNL     1       1.356   0.628  23.131  0.00  0.00    +0.244 A 
BRANCH  20  22
ATOM      5  O   UNL     1       3.407  -0.305  22.330  0.00  0.00    -0.242 OA
ATOM     22  C   UNL     1       2.187  -0.047  22.197  0.00  0.00    +0.375 C 
BRANCH  22   3
ATOM      3  O   UNL     1       1.533  -0.430  21.051  0.00  0.00    -0.475 OA
ATOM     31  H   UNL     1       1.835  -1.312  20.741  0.00  0.00    +0.296 HD
ENDBRANCH  22   3
ENDBRANCH  20  22
ENDBRANCH  14  16
ENDBRANCH  10  14
BRANCH   9  15
ATOM     15  C   UNL     1      -3.847   3.455  24.426  0.00  0.00    +0.099 C 
BRANCH  15  17
ATOM      1  O   UNL     1      -3.677   1.407  23.147  0.00  0.00    -0.276 OA
ATOM      7  N   UNL     1      -4.580   1.345  25.287  0.00  0.00    -0.311 N 
ATOM     17  C   UNL     1      -4.011   1.968  24.188  0.00  0.00    +0.214 C 
ATOM     30  H   UNL     1      -4.804   1.887  26.116  0.00  0.00    +0.149 HD
BRANCH   7  19
ATOM     19  C   UNL     1      -4.855  -0.073  25.337  0.00  0.00    +0.143 C 
BRANCH  19  21
ATOM     21  C   UNL     1      -3.596  -0.891  25.294  0.00  0.00    +0.011 A 
ATOM     23  C   UNL     1      -3.412  -1.863  24.310  0.00  0.00    +0.125 A 
ATOM     24  C   UNL     1      -2.606  -0.671  26.250  0.00  0.00    +0.009 A 
ATOM     25  C   UNL     1      -2.237  -2.615  24.284  0.00  0.00    +0.046 A 
ATOM     26  C   UNL     1      -1.431  -1.422  26.224  0.00  0.00    +0.001 A 
ATOM     27  C   UNL     1      -1.246  -2.394  25.241  0.00  0.00    +0.004 A 
BRANCH  23   4
ATOM      4  O   UNL     1      -4.369  -2.092  23.368  0.00  0.00    -0.495 OA
ATOM     28  C   UNL     1      -4.756  -3.448  23.153  0.00  0.00    +0.277 C 
ENDBRANCH  23   4
ENDBRANCH  19  21
ENDBRANCH   7  19
ENDBRANCH  15  17
ENDBRANCH   9  15
TORSDOF 9
ENDMDL
MODEL 6
REMARK VINA RESULT:      -1.8      2.080      5.361
REMARK  Name = 26742536
REMARK  10 active torsions:
REMARK  status: ('A' for Active; 'I' for Inactive)
REMARK    1  A    between atoms: O_3  and  C_22
REMARK    2  A    between atoms: O_4  and  C_23
REMARK    3  A    between atoms: O_4  and  C_28
REMARK    4  A    between atoms: N_7  and  C_19
REMARK    5  A    between atoms: C_9  and  C_15
REMARK    6  A    between atoms: C_10  and  C_14
REMARK    7  A    between atoms: C_14  and  C_16
REMARK    8  A    between atoms: C_15  and  C_17
REMARK    9  A    between atoms: C_19  and  C_21
REMARK   10  A    between atoms: C_20  and  C_22
REMARK                            x       y       z     vdW  Elec       q    Type
REMARK                         _______ _______ _______ _____ _____    ______ ____
ROOT
ATOM      6  N   UNL     1      -6.136   2.918  25.382  0.00  0.00    -0.316 NA
ATOM      9  C   UNL     1      -3.467   3.952  24.665  0.00  0.00    +0.004 C 
ATOM     10  C   UNL     1      -4.156   2.804  23.888  0.00  0.00    +0.012 C 
ATOM     11  C   UNL     1      -4.542   4.806  25.358  0.00  0.00    +0.019 C 
ATOM     12  C   UNL     1      -5.143   2.030  24.777  0.00  0.00    +0.085 C 
ATOM     13  C   UNL     1      -5.509   3.964  26.188  0.00  0.00    +0.081 C 
ATOM     29  H   UNL     1      -6.764   2.370  25.969  0.00  0.00    +0.122 HD
ENDROOT
BRANCH  10  14
ATOM     14  C   UNL     1      -3.163   1.848  23.227  0.00  0.00    +0.064 C 
BRANCH  14  16
ATOM      2  O   UNL     1      -2.685  -0.931  25.467  0.00  0.00    -0.348 OA
ATOM      8  N   UNL     1      -2.529   0.404  25.113  0.00  0.00    -0.082 NA
ATOM     16  C   UNL     1      -3.134   0.520  23.927  0.00  0.00    +0.085 A 
ATOM     18  C   UNL     1      -3.685  -0.697  23.488  0.00  0.00    +0.083 A 
ATOM     20  C   UNL     1      -3.375  -1.576  24.492  0.00  0.00    +0.244 A 
BRANCH  20  22
ATOM      5  O   UNL     1      -3.289  -3.680  25.625  0.00  0.00    -0.242 OA
ATOM     22  C   UNL     1      -3.644  -2.961  24.661  0.00  0.00    +0.375 C 
BRANCH  22   3
ATOM      3  O   UNL     1      -4.369  -3.513  23.632  0.00  0.00    -0.475 OA
ATOM     31  H   UNL     1      -5.268  -3.124  23.576  0.00  0.00    +0.296 HD
ENDBRANCH  22   3
ENDBRANCH  20  22
ENDBRANCH  14  16
ENDBRANCH  10  14
BRANCH   9  15
ATOM     15  C   UNL     1      -2.414   3.478  25.672  0.00  0.00    +0.099 C 
BRANCH  15  17
ATOM      1  O   UNL     1      -0.519   4.675  24.761  0.00  0.00    -0.276 OA
ATOM      7  N   UNL     1      -0.356   2.385  25.120  0.00  0.00    -0.311 N 
ATOM     17  C   UNL     1      -1.005   3.611  25.134  0.00  0.00    +0.214 C 
ATOM     30  H   UNL     1      -0.831   1.558  25.469  0.00  0.00    +0.149 HD
BRANCH   7  19
ATOM     19  C   UNL     1       1.000   2.215  24.653  0.00  0.00    +0.143 C 
BRANCH  19  21
ATOM     21  C   UNL     1       1.103   1.146  23.603  0.00  0.00    +0.011 A 
ATOM     23  C   UNL     1       2.326   0.859  22.996  0.00  0.00    +0.125 A 
ATOM     24  C   UNL     1      -0.040   0.437  23.236  0.00  0.00    +0.009 A 
ATOM     25  C   UNL     1       2.406  -0.136  22.022  0.00  0.00    +0.046 A 
ATOM     26  C   UNL     1       0.039  -0.559  22.263  0.00  0.00    +0.001 A 
ATOM     27  C   UNL     1       1.262  -0.846  21.656  0.00  0.00    +0.004 A 
BRANCH  23   4
ATOM      4  O   UNL     1       3.453   1.542  23.342  0.00  0.00    -0.495 OA
ATOM     28  C   UNL     1       4.691   0.836  23.258  0.00  0.00    +0.277 C 
ENDBRANCH  23   4
ENDBRANCH  19  21
ENDBRANCH   7  19
ENDBRANCH  15  17
ENDBRANCH   9  15
TORSDOF 9
ENDMDL
MODEL 7
REMARK VINA RESULT:      -1.7      2.366      4.257
REMARK  Name = 26742536
REMARK  10 active torsions:
REMARK  status: ('A' for Active; 'I' for Inactive)
REMARK    1  A    between atoms: O_3  and  C_22
REMARK    2  A    between atoms: O_4  and  C_23
REMARK    3  A    between atoms: O_4  and  C_28
REMARK    4  A    between atoms: N_7  and  C_19
REMARK    5  A    between atoms: C_9  and  C_15
REMARK    6  A    between atoms: C_10  and  C_14
REMARK    7  A    between atoms: C_14  and  C_16
REMARK    8  A    between atoms: C_15  and  C_17
REMARK    9  A    between atoms: C_19  and  C_21
REMARK   10  A    between atoms: C_20  and  C_22
REMARK                            x       y       z     vdW  Elec       q    Type
REMARK                         _______ _______ _______ _____ _____    ______ ____
ROOT
ATOM      6  N   UNL     1      -7.042   2.955  25.843  0.00  0.00    -0.316 NA
ATOM      9  C   UNL     1      -4.273   2.527  24.917  0.00  0.00    +0.004 C 
ATOM     10  C   UNL     1      -4.660   3.654  25.906  0.00  0.00    +0.012 C 
ATOM     11  C   UNL     1      -5.313   1.399  25.010  0.00  0.00    +0.019 C 
ATOM     12  C   UNL     1      -6.123   4.088  25.727  0.00  0.00    +0.085 C 
ATOM     13  C   UNL     1      -6.745   1.912  24.863  0.00  0.00    +0.081 C 
ATOM     29  H   UNL     1      -7.998   3.281  25.710  0.00  0.00    +0.122 HD
ENDROOT
BRANCH  10  14
ATOM     14  C   UNL     1      -3.727   4.863  25.832  0.00  0.00    +0.064 C 
BRANCH  14  16
ATOM      2  O   UNL     1      -0.248   4.554  24.956  0.00  0.00    -0.348 OA
ATOM      8  N   UNL     1      -1.460   5.235  24.959  0.00  0.00    -0.082 NA
ATOM     16  C   UNL     1      -2.300   4.441  25.630  0.00  0.00    +0.085 A 
ATOM     18  C   UNL     1      -1.681   3.258  26.069  0.00  0.00    +0.083 A 
ATOM     20  C   UNL     1      -0.393   3.379  25.620  0.00  0.00    +0.244 A 
BRANCH  20  22
ATOM      5  O   UNL     1       1.286   1.882  24.806  0.00  0.00    -0.242 OA
ATOM     22  C   UNL     1       0.739   2.525  25.733  0.00  0.00    +0.375 C 
BRANCH  22   3
ATOM      3  O   UNL     1       1.238   2.435  27.010  0.00  0.00    -0.475 OA
ATOM     31  H   UNL     1       0.531   2.549  27.682  0.00  0.00    +0.296 HD
ENDBRANCH  22   3
ENDBRANCH  20  22
ENDBRANCH  14  16
ENDBRANCH  10  14
BRANCH   9  15
ATOM     15  C   UNL     1      -4.107   2.999  23.469  0.00  0.00    +0.099 C 
BRANCH  15  17
ATOM      1  O   UNL     1      -2.781   2.374  21.544  0.00  0.00    -0.276 OA
ATOM      7  N   UNL     1      -2.308   1.426  23.612  0.00  0.00    -0.311 N 
ATOM     17  C   UNL     1      -3.007   2.252  22.745  0.00  0.00    +0.214 C 
ATOM     30  H   UNL     1      -2.552   1.406  24.598  0.00  0.00    +0.149 HD
BRANCH   7  19
ATOM     19  C   UNL     1      -1.205   0.593  23.191  0.00  0.00    +0.143 C 
BRANCH  19  21
ATOM     21  C   UNL     1      -1.124  -0.677  23.989  0.00  0.00    +0.011 A 
ATOM     23  C   UNL     1      -2.257  -1.467  24.186  0.00  0.00    +0.125 A 
ATOM     24  C   UNL     1       0.099  -1.064  24.535  0.00  0.00    +0.009 A 
ATOM     25  C   UNL     1      -2.167  -2.643  24.930  0.00  0.00    +0.046 A 
ATOM     26  C   UNL     1       0.191  -2.241  25.278  0.00  0.00    +0.001 A 
ATOM     27  C   UNL     1      -0.942  -3.031  25.476  0.00  0.00    +0.004 A 
BRANCH  23   4
ATOM      4  O   UNL     1      -3.461  -1.104  23.661  0.00  0.00    -0.495 OA
ATOM     28  C   UNL     1      -4.525  -2.048  23.766  0.00  0.00    +0.277 C 
ENDBRANCH  23   4
ENDBRANCH  19  21
ENDBRANCH   7  19
ENDBRANCH  15  17
ENDBRANCH   9  15
TORSDOF 9
ENDMDL
MODEL 8
REMARK VINA RESULT:      -1.6      1.678      4.778
REMARK  Name = 26742536
REMARK  10 active torsions:
REMARK  status: ('A' for Active; 'I' for Inactive)
REMARK    1  A    between atoms: O_3  and  C_22
REMARK    2  A    between atoms: O_4  and  C_23
REMARK    3  A    between atoms: O_4  and  C_28
REMARK    4  A    between atoms: N_7  and  C_19
REMARK    5  A    between atoms: C_9  and  C_15
REMARK    6  A    between atoms: C_10  and  C_14
REMARK    7  A    between atoms: C_14  and  C_16
REMARK    8  A    between atoms: C_15  and  C_17
REMARK    9  A    between atoms: C_19  and  C_21
REMARK   10  A    between atoms: C_20  and  C_22
REMARK                            x       y       z     vdW  Elec       q    Type
REMARK                         _______ _______ _______ _____ _____    ______ ____
ROOT
ATOM      6  N   UNL     1      -1.579  -0.645  26.759  0.00  0.00    -0.316 NA
ATOM      9  C   UNL     1      -2.093  -2.209  24.310  0.00  0.00    +0.004 C 
ATOM     10  C   UNL     1      -0.906  -1.223  24.440  0.00  0.00    +0.012 C 
ATOM     11  C   UNL     1      -2.508  -2.681  25.713  0.00  0.00    +0.019 C 
ATOM     12  C   UNL     1      -1.206  -0.105  25.452  0.00  0.00    +0.085 C 
ATOM     13  C   UNL     1      -2.749  -1.517  26.673  0.00  0.00    +0.081 C 
ATOM     29  H   UNL     1      -1.778   0.124  27.398  0.00  0.00    +0.122 HD
ENDROOT
BRANCH  10  14
ATOM     14  C   UNL     1      -0.469  -0.632  23.099  0.00  0.00    +0.064 C 
BRANCH  14  16
ATOM      2  O   UNL     1       2.404   1.498  23.511  0.00  0.00    -0.348 OA
ATOM      8  N   UNL     1       1.034   1.267  23.520  0.00  0.00    -0.082 NA
ATOM     16  C   UNL     1       0.899  -0.022  23.191  0.00  0.00    +0.085 A 
ATOM     18  C   UNL     1       2.138  -0.647  22.964  0.00  0.00    +0.083 A 
ATOM     20  C   UNL     1       3.051   0.352  23.179  0.00  0.00    +0.244 A 
BRANCH  20  22
ATOM      5  O   UNL     1       5.175   0.213  22.088  0.00  0.00    -0.242 OA
ATOM     22  C   UNL     1       4.471   0.374  23.113  0.00  0.00    +0.375 C 
BRANCH  22   3
ATOM      3  O   UNL     1       5.077   0.595  24.326  0.00  0.00    -0.475 OA
ATOM     31  H   UNL     1       5.809   1.245  24.249  0.00  0.00    +0.296 HD
ENDBRANCH  22   3
ENDBRANCH  20  22
ENDBRANCH  14  16
ENDBRANCH  10  14
BRANCH   9  15
ATOM     15  C   UNL     1      -3.294  -1.641  23.547  0.00  0.00    +0.099 C 
BRANCH  15  17
ATOM      1  O   UNL     1      -4.444  -0.486  25.335  0.00  0.00    -0.276 OA
ATOM      7  N   UNL     1      -3.737   0.711  23.473  0.00  0.00    -0.311 N 
ATOM     17  C   UNL     1      -3.894  -0.435  24.239  0.00  0.00    +0.214 C 
ATOM     30  H   UNL     1      -3.247   0.662  22.585  0.00  0.00    +0.149 HD
BRANCH   7  19
ATOM     19  C   UNL     1      -4.217   2.010  23.888  0.00  0.00    +0.143 C 
BRANCH  19  21
ATOM     21  C   UNL     1      -3.101   2.895  24.364  0.00  0.00    +0.011 A 
ATOM     23  C   UNL     1      -3.262   3.699  25.492  0.00  0.00    +0.125 A 
ATOM     24  C   UNL     1      -1.894   2.907  23.666  0.00  0.00    +0.009 A 
ATOM     25  C   UNL     1      -2.217   4.516  25.922  0.00  0.00    +0.046 A 
ATOM     26  C   UNL     1      -0.848   3.724  24.095  0.00  0.00    +0.001 A 
ATOM     27  C   UNL     1      -1.009   4.528  25.223  0.00  0.00    +0.004 A 
BRANCH  23   4
ATOM      4  O   UNL     1      -4.435   3.699  26.187  0.00  0.00    -0.495 OA
ATOM     28  C   UNL     1      -5.566   4.290  25.548  0.00  0.00    +0.277 C 
ENDBRANCH  23   4
ENDBRANCH  19  21
ENDBRANCH   7  19
ENDBRANCH  15  17
ENDBRANCH   9  15
TORSDOF 9
ENDMDL
MODEL 9
REMARK VINA RESULT:      -1.6      1.675      4.758
REMARK  Name = 26742536
REMARK  10 active torsions:
REMARK  status: ('A' for Active; 'I' for Inactive)
REMARK    1  A    between atoms: O_3  and  C_22
REMARK    2  A    between atoms: O_4  and  C_23
REMARK    3  A    between atoms: O_4  and  C_28
REMARK    4  A    between atoms: N_7  and  C_19
REMARK    5  A    between atoms: C_9  and  C_15
REMARK    6  A    between atoms: C_10  and  C_14
REMARK    7  A    between atoms: C_14  and  C_16
REMARK    8  A    between atoms: C_15  and  C_17
REMARK    9  A    between atoms: C_19  and  C_21
REMARK   10  A    between atoms: C_20  and  C_22
REMARK                            x       y       z     vdW  Elec       q    Type
REMARK                         _______ _______ _______ _____ _____    ______ ____
ROOT
ATOM      6  N   UNL     1      -1.811  -0.977  26.884  0.00  0.00    -0.316 NA
ATOM      9  C   UNL     1      -2.647  -2.162  24.314  0.00  0.00    +0.004 C 
ATOM     10  C   UNL     1      -1.399  -1.257  24.452  0.00  0.00    +0.012 C 
ATOM     11  C   UNL     1      -2.952  -2.806  25.677  0.00  0.00    +0.019 C 
ATOM     12  C   UNL     1      -1.535  -0.278  25.629  0.00  0.00    +0.085 C 
ATOM     13  C   UNL     1      -3.032  -1.777  26.803  0.00  0.00    +0.081 C 
ATOM     29  H   UNL     1      -1.903  -0.296  27.637  0.00  0.00    +0.122 HD
ENDROOT
BRANCH  10  14
ATOM     14  C   UNL     1      -1.059  -0.505  23.164  0.00  0.00    +0.064 C 
BRANCH  14  16
ATOM      2  O   UNL     1       1.867   1.489  23.817  0.00  0.00    -0.348 OA
ATOM      8  N   UNL     1       0.518   1.195  23.980  0.00  0.00    -0.082 NA
ATOM     16  C   UNL     1       0.310   0.106  23.232  0.00  0.00    +0.085 A 
ATOM     18  C   UNL     1       1.479  -0.326  22.582  0.00  0.00    +0.083 A 
ATOM     20  C   UNL     1       2.428   0.577  22.984  0.00  0.00    +0.244 A 
BRANCH  20  22
ATOM      5  O   UNL     1       4.752   0.783  23.511  0.00  0.00    -0.242 OA
ATOM     22  C   UNL     1       3.813   0.699  22.685  0.00  0.00    +0.375 C 
BRANCH  22   3
ATOM      3  O   UNL     1       4.087   0.723  21.339  0.00  0.00    -0.475 OA
ATOM     31  H   UNL     1       4.797   1.368  21.127  0.00  0.00    +0.296 HD
ENDBRANCH  22   3
ENDBRANCH  20  22
ENDBRANCH  14  16
ENDBRANCH  10  14
BRANCH   9  15
ATOM     15  C   UNL     1      -3.881  -1.442  23.762  0.00  0.00    +0.099 C 
BRANCH  15  17
ATOM      1  O   UNL     1      -4.473  -0.343  25.835  0.00  0.00    -0.276 OA
ATOM      7  N   UNL     1      -4.430   0.886  23.863  0.00  0.00    -0.311 N 
ATOM     17  C   UNL     1      -4.291  -0.266  24.623  0.00  0.00    +0.214 C 
ATOM     30  H   UNL     1      -4.237   0.861  22.867  0.00  0.00    +0.149 HD
BRANCH   7  19
ATOM     19  C   UNL     1      -4.816   2.161  24.425  0.00  0.00    +0.143 C 
BRANCH  19  21
ATOM     21  C   UNL     1      -3.626   3.029  24.718  0.00  0.00    +0.011 A 
ATOM     23  C   UNL     1      -2.482   2.960  23.922  0.00  0.00    +0.125 A 
ATOM     24  C   UNL     1      -3.673   3.910  25.796  0.00  0.00    +0.009 A 
ATOM     25  C   UNL     1      -1.385   3.772  24.207  0.00  0.00    +0.046 A 
ATOM     26  C   UNL     1      -2.576   4.723  26.082  0.00  0.00    +0.001 A 
ATOM     27  C   UNL     1      -1.432   4.654  25.287  0.00  0.00    +0.004 A 
BRANCH  23   4
ATOM      4  O   UNL     1      -2.419   2.104  22.864  0.00  0.00    -0.495 OA
ATOM     28  C   UNL     1      -2.657   2.655  21.570  0.00  0.00    +0.277 C 
ENDBRANCH  23   4
ENDBRANCH  19  21
ENDBRANCH   7  19
ENDBRANCH  15  17
ENDBRANCH   9  15
TORSDOF 9
ENDMDL
MODEL 10
REMARK VINA RESULT:      -1.5      2.391      4.990
REMARK  Name = 26742536
REMARK  10 active torsions:
REMARK  status: ('A' for Active; 'I' for Inactive)
REMARK    1  A    between atoms: O_3  and  C_22
REMARK    2  A    between atoms: O_4  and  C_23
REMARK    3  A    between atoms: O_4  and  C_28
REMARK    4  A    between atoms: N_7  and  C_19
REMARK    5  A    between atoms: C_9  and  C_15
REMARK    6  A    between atoms: C_10  and  C_14
REMARK    7  A    between atoms: C_14  and  C_16
REMARK    8  A    between atoms: C_15  and  C_17
REMARK    9  A    between atoms: C_19  and  C_21
REMARK   10  A    between atoms: C_20  and  C_22
REMARK                            x       y       z     vdW  Elec       q    Type
REMARK                         _______ _______ _______ _____ _____    ______ ____
ROOT
ATOM      6  N   UNL     1      -6.426   4.299  25.390  0.00  0.00    -0.316 NA
ATOM      9  C   UNL     1      -3.959   2.745  24.937  0.00  0.00    +0.004 C 
ATOM     10  C   UNL     1      -5.300   2.087  25.344  0.00  0.00    +0.012 C 
ATOM     11  C   UNL     1      -4.249   4.086  24.242  0.00  0.00    +0.019 C 
ATOM     12  C   UNL     1      -6.193   3.059  26.130  0.00  0.00    +0.085 C 
ATOM     13  C   UNL     1      -5.175   4.980  25.064  0.00  0.00    +0.081 C 
ATOM     29  H   UNL     1      -7.014   4.919  25.946  0.00  0.00    +0.122 HD
ENDROOT
BRANCH  10  14
ATOM     14  C   UNL     1      -5.116   0.780  26.117  0.00  0.00    +0.064 C 
BRANCH  14  16
ATOM      2  O   UNL     1      -3.580  -1.474  23.766  0.00  0.00    -0.348 OA
ATOM      8  N   UNL     1      -4.603  -0.622  24.164  0.00  0.00    -0.082 NA
ATOM     16  C   UNL     1      -4.234  -0.178  25.369  0.00  0.00    +0.085 A 
ATOM     18  C   UNL     1      -3.000  -0.711  25.779  0.00  0.00    +0.083 A 
ATOM     20  C   UNL     1      -2.631  -1.519  24.736  0.00  0.00    +0.244 A 
BRANCH  20  22
ATOM      5  O   UNL     1      -1.353  -3.218  23.640  0.00  0.00    -0.242 OA
ATOM     22  C   UNL     1      -1.490  -2.339  24.525  0.00  0.00    +0.375 C 
BRANCH  22   3
ATOM      3  O   UNL     1      -0.466  -2.101  25.409  0.00  0.00    -0.475 OA
ATOM     31  H   UNL     1       0.263  -1.595  24.990  0.00  0.00    +0.296 HD
ENDBRANCH  22   3
ENDBRANCH  20  22
ENDBRANCH  14  16
ENDBRANCH  10  14
BRANCH   9  15
ATOM     15  C   UNL     1      -2.979   2.933  26.100  0.00  0.00    +0.099 C 
BRANCH  15  17
ATOM      1  O   UNL     1      -1.298   4.587  25.557  0.00  0.00    -0.276 OA
ATOM      7  N   UNL     1      -0.802   2.330  25.306  0.00  0.00    -0.311 N 
ATOM     17  C   UNL     1      -1.618   3.404  25.632  0.00  0.00    +0.214 C 
ATOM     30  H   UNL     1      -1.146   1.382  25.422  0.00  0.00    +0.149 HD
BRANCH   7  19
ATOM     19  C   UNL     1       0.552   2.485  24.828  0.00  0.00    +0.143 C 
BRANCH  19  21
ATOM     21  C   UNL     1       0.913   1.438  23.814  0.00  0.00    +0.011 A 
ATOM     23  C   UNL     1      -0.081   0.742  23.126  0.00  0.00    +0.125 A 
ATOM     24  C   UNL     1       2.257   1.165  23.563  0.00  0.00    +0.009 A 
ATOM     25  C   UNL     1       0.270  -0.228  22.187  0.00  0.00    +0.046 A 
ATOM     26  C   UNL     1       2.608   0.196  22.623  0.00  0.00    +0.001 A 
ATOM     27  C   UNL     1       1.615  -0.501  21.935  0.00  0.00    +0.004 A 
BRANCH  23   4
ATOM      4  O   UNL     1      -1.399   0.995  23.359  0.00  0.00    -0.495 OA
ATOM     28  C   UNL     1      -2.116   1.689  22.338  0.00  0.00    +0.277 C 
ENDBRANCH  23   4
ENDBRANCH  19  21
ENDBRANCH   7  19
ENDBRANCH  15  17
ENDBRANCH   9  15
TORSDOF 9
ENDMDL
