MODEL 1
REMARK VINA RESULT:      -4.6      0.000      0.000
REMARK  Name = 75368407
REMARK  3 active torsions:
REMARK  status: ('A' for Active; 'I' for Inactive)
REMARK    1  A    between atoms: O_3  and  C_15
REMARK    2  A    between atoms: O_3  and  C_20
REMARK    3  A    between atoms: C_13  and  C_14
REMARK                            x       y       z     vdW  Elec       q    Type
REMARK                         _______ _______ _______ _____ _____    ______ ____
ROOT
ATOM      1  O   UNL     1      -6.107   5.112  25.881  0.00  0.00    -0.253 OA
ATOM      2  O   UNL     1       0.311   2.345  25.657  0.00  0.00    -0.270 OA
ATOM      4  N   UNL     1      -4.396   3.508  25.690  0.00  0.00    -0.278 N 
ATOM      5  N   UNL     1      -1.926   2.447  24.990  0.00  0.00    -0.294 N 
ATOM      6  N   UNL     1      -6.494   2.922  25.136  0.00  0.00    -0.297 N 
ATOM      7  C   UNL     1      -4.318   2.086  25.397  0.00  0.00    +0.112 C 
ATOM      8  C   UNL     1      -3.146   1.805  24.462  0.00  0.00    +0.132 C 
ATOM      9  C   UNL     1      -5.692   1.762  24.820  0.00  0.00    +0.129 C 
ATOM     10  C   UNL     1      -3.209   4.226  26.118  0.00  0.00    +0.128 C 
ATOM     11  C   UNL     1      -2.038   3.897  25.193  0.00  0.00    +0.127 C 
ATOM     12  C   UNL     1      -5.707   3.989  25.608  0.00  0.00    +0.303 C 
ATOM     13  C   UNL     1      -0.717   1.802  25.254  0.00  0.00    +0.250 C 
ATOM     21  H   UNL     1      -7.492   2.990  24.963  0.00  0.00    +0.150 HD
ENDROOT
BRANCH  13  14
ATOM     14  C   UNL     1      -0.649   0.349  25.051  0.00  0.00    +0.078 A 
ATOM     15  C   UNL     1       0.096  -0.195  24.006  0.00  0.00    +0.132 A 
ATOM     16  C   UNL     1      -1.347  -0.490  25.920  0.00  0.00    +0.017 A 
ATOM     17  C   UNL     1       0.145  -1.578  23.830  0.00  0.00    +0.046 A 
ATOM     18  C   UNL     1      -1.298  -1.873  25.745  0.00  0.00    +0.001 A 
ATOM     19  C   UNL     1      -0.552  -2.417  24.700  0.00  0.00    +0.004 A 
BRANCH  15   3
ATOM      3  O   UNL     1       0.782   0.607  23.144  0.00  0.00    -0.494 OA
ATOM     20  C   UNL     1       1.998   0.092  22.608  0.00  0.00    +0.277 C 
ENDBRANCH  15   3
ENDBRANCH  13  14
TORSDOF 2
ENDMDL
MODEL 2
REMARK VINA RESULT:      -3.9      1.129      2.127
REMARK  Name = 75368407
REMARK  3 active torsions:
REMARK  status: ('A' for Active; 'I' for Inactive)
REMARK    1  A    between atoms: O_3  and  C_15
REMARK    2  A    between atoms: O_3  and  C_20
REMARK    3  A    between atoms: C_13  and  C_14
REMARK                            x       y       z     vdW  Elec       q    Type
REMARK                         _______ _______ _______ _____ _____    ______ ____
ROOT
ATOM      1  O   UNL     1      -6.296   4.630  26.097  0.00  0.00    -0.253 OA
ATOM      2  O   UNL     1       0.504   3.032  25.781  0.00  0.00    -0.270 OA
ATOM      4  N   UNL     1      -4.327   3.423  25.647  0.00  0.00    -0.278 N 
ATOM      5  N   UNL     1      -1.675   2.991  24.940  0.00  0.00    -0.294 N 
ATOM      6  N   UNL     1      -6.257   2.719  24.737  0.00  0.00    -0.297 N 
ATOM      7  C   UNL     1      -3.988   2.177  24.981  0.00  0.00    +0.112 C 
ATOM      8  C   UNL     1      -2.735   2.356  24.131  0.00  0.00    +0.132 C 
ATOM      9  C   UNL     1      -5.251   1.833  24.197  0.00  0.00    +0.129 C 
ATOM     10  C   UNL     1      -3.307   4.154  26.378  0.00  0.00    +0.128 C 
ATOM     11  C   UNL     1      -2.046   4.286  25.525  0.00  0.00    +0.127 C 
ATOM     12  C   UNL     1      -5.694   3.707  25.566  0.00  0.00    +0.303 C 
ATOM     13  C   UNL     1      -0.390   2.484  25.138  0.00  0.00    +0.250 C 
ATOM     21  H   UNL     1      -7.241   2.686  24.487  0.00  0.00    +0.150 HD
ENDROOT
BRANCH  13  14
ATOM     14  C   UNL     1      -0.062   1.179  24.549  0.00  0.00    +0.078 A 
ATOM     15  C   UNL     1      -0.633   0.007  25.042  0.00  0.00    +0.132 A 
ATOM     16  C   UNL     1       0.836   1.122  23.484  0.00  0.00    +0.017 A 
ATOM     17  C   UNL     1      -0.307  -1.223  24.470  0.00  0.00    +0.046 A 
ATOM     18  C   UNL     1       1.163  -0.107  22.911  0.00  0.00    +0.001 A 
ATOM     19  C   UNL     1       0.590  -1.279  23.404  0.00  0.00    +0.004 A 
BRANCH  15   3
ATOM      3  O   UNL     1      -1.511   0.040  26.085  0.00  0.00    -0.494 OA
ATOM     20  C   UNL     1      -2.590  -0.891  26.054  0.00  0.00    +0.277 C 
ENDBRANCH  15   3
ENDBRANCH  13  14
TORSDOF 2
ENDMDL
MODEL 3
REMARK VINA RESULT:      -2.8      2.497      3.671
REMARK  Name = 75368407
REMARK  3 active torsions:
REMARK  status: ('A' for Active; 'I' for Inactive)
REMARK    1  A    between atoms: O_3  and  C_15
REMARK    2  A    between atoms: O_3  and  C_20
REMARK    3  A    between atoms: C_13  and  C_14
REMARK                            x       y       z     vdW  Elec       q    Type
REMARK                         _______ _______ _______ _____ _____    ______ ____
ROOT
ATOM      1  O   UNL     1      -1.605   5.838  25.351  0.00  0.00    -0.253 OA
ATOM      2  O   UNL     1      -0.512  -0.978  26.464  0.00  0.00    -0.270 OA
ATOM      4  N   UNL     1      -1.902   3.506  25.251  0.00  0.00    -0.278 N 
ATOM      5  N   UNL     1      -1.195   0.821  25.139  0.00  0.00    -0.294 N 
ATOM      6  N   UNL     1      -3.086   4.806  23.853  0.00  0.00    -0.297 N 
ATOM      7  C   UNL     1      -2.794   2.589  24.561  0.00  0.00    +0.112 C 
ATOM      8  C   UNL     1      -2.014   1.383  24.047  0.00  0.00    +0.132 C 
ATOM      9  C   UNL     1      -3.427   3.454  23.475  0.00  0.00    +0.129 C 
ATOM     10  C   UNL     1      -0.995   3.005  26.269  0.00  0.00    +0.128 C 
ATOM     11  C   UNL     1      -0.256   1.772  25.749  0.00  0.00    +0.127 C 
ATOM     12  C   UNL     1      -2.130   4.836  24.884  0.00  0.00    +0.303 C 
ATOM     13  C   UNL     1      -1.222  -0.503  25.579  0.00  0.00    +0.250 C 
ATOM     21  H   UNL     1      -3.431   5.635  23.379  0.00  0.00    +0.150 HD
ENDROOT
BRANCH  13  14
ATOM     14  C   UNL     1      -2.185  -1.419  24.954  0.00  0.00    +0.078 A 
ATOM     15  C   UNL     1      -3.557  -1.205  25.070  0.00  0.00    +0.132 A 
ATOM     16  C   UNL     1      -1.709  -2.519  24.239  0.00  0.00    +0.017 A 
ATOM     17  C   UNL     1      -4.455  -2.088  24.470  0.00  0.00    +0.046 A 
ATOM     18  C   UNL     1      -2.606  -3.403  23.640  0.00  0.00    +0.001 A 
ATOM     19  C   UNL     1      -3.979  -3.187  23.755  0.00  0.00    +0.004 A 
BRANCH  15   3
ATOM      3  O   UNL     1      -4.043  -0.139  25.767  0.00  0.00    -0.494 OA
ATOM     20  C   UNL     1      -5.178   0.529  25.222  0.00  0.00    +0.277 C 
ENDBRANCH  15   3
ENDBRANCH  13  14
TORSDOF 2
ENDMDL
MODEL 4
REMARK VINA RESULT:      -2.8      2.449      5.684
REMARK  Name = 75368407
REMARK  3 active torsions:
REMARK  status: ('A' for Active; 'I' for Inactive)
REMARK    1  A    between atoms: O_3  and  C_15
REMARK    2  A    between atoms: O_3  and  C_20
REMARK    3  A    between atoms: C_13  and  C_14
REMARK                            x       y       z     vdW  Elec       q    Type
REMARK                         _______ _______ _______ _____ _____    ______ ____
ROOT
ATOM      1  O   UNL     1      -2.833  -3.492  24.785  0.00  0.00    -0.253 OA
ATOM      2  O   UNL     1      -4.950   3.075  25.917  0.00  0.00    -0.270 OA
ATOM      4  N   UNL     1      -2.775  -1.144  24.931  0.00  0.00    -0.278 N 
ATOM      5  N   UNL     1      -3.699   1.471  24.769  0.00  0.00    -0.294 N 
ATOM      6  N   UNL     1      -1.081  -2.205  23.903  0.00  0.00    -0.297 N 
ATOM      7  C   UNL     1      -1.818  -0.096  24.619  0.00  0.00    +0.112 C 
ATOM      8  C   UNL     1      -2.525   1.084  23.961  0.00  0.00    +0.132 C 
ATOM      9  C   UNL     1      -0.789  -0.800  23.739  0.00  0.00    +0.129 C 
ATOM     10  C   UNL     1      -4.002  -0.818  25.636  0.00  0.00    +0.128 C 
ATOM     11  C   UNL     1      -4.671   0.392  24.987  0.00  0.00    +0.127 C 
ATOM     12  C   UNL     1      -2.301  -2.411  24.573  0.00  0.00    +0.303 C 
ATOM     13  C   UNL     1      -3.953   2.746  25.277  0.00  0.00    +0.250 C 
ATOM     21  H   UNL     1      -0.519  -2.955  23.514  0.00  0.00    +0.150 HD
ENDROOT
BRANCH  13  14
ATOM     14  C   UNL     1      -2.949   3.793  25.049  0.00  0.00    +0.078 A 
ATOM     15  C   UNL     1      -1.664   3.681  25.577  0.00  0.00    +0.132 A 
ATOM     16  C   UNL     1      -3.297   4.914  24.295  0.00  0.00    +0.017 A 
ATOM     17  C   UNL     1      -0.725   4.688  25.352  0.00  0.00    +0.046 A 
ATOM     18  C   UNL     1      -2.360   5.922  24.069  0.00  0.00    +0.001 A 
ATOM     19  C   UNL     1      -1.074   5.809  24.597  0.00  0.00    +0.004 A 
BRANCH  15   3
ATOM      3  O   UNL     1      -1.304   2.595  26.320  0.00  0.00    -0.494 OA
ATOM     20  C   UNL     1       0.091   2.361  26.491  0.00  0.00    +0.277 C 
ENDBRANCH  15   3
ENDBRANCH  13  14
TORSDOF 2
ENDMDL
MODEL 5
REMARK VINA RESULT:      -2.4      2.157      5.667
REMARK  Name = 75368407
REMARK  3 active torsions:
REMARK  status: ('A' for Active; 'I' for Inactive)
REMARK    1  A    between atoms: O_3  and  C_15
REMARK    2  A    between atoms: O_3  and  C_20
REMARK    3  A    between atoms: C_13  and  C_14
REMARK                            x       y       z     vdW  Elec       q    Type
REMARK                         _______ _______ _______ _____ _____    ______ ____
ROOT
ATOM      1  O   UNL     1       2.747   0.993  23.330  0.00  0.00    -0.253 OA
ATOM      2  O   UNL     1      -2.710   4.894  25.306  0.00  0.00    -0.270 OA
ATOM      4  N   UNL     1       0.537   1.589  23.874  0.00  0.00    -0.278 N 
ATOM      5  N   UNL     1      -1.529   2.880  25.211  0.00  0.00    -0.294 N 
ATOM      6  N   UNL     1       1.041  -0.588  23.635  0.00  0.00    -0.297 N 
ATOM      7  C   UNL     1      -0.736   0.899  24.001  0.00  0.00    +0.112 C 
ATOM      8  C   UNL     1      -1.489   1.404  25.227  0.00  0.00    +0.132 C 
ATOM      9  C   UNL     1      -0.342  -0.574  24.052  0.00  0.00    +0.129 C 
ATOM     10  C   UNL     1       0.585   3.039  23.950  0.00  0.00    +0.128 C 
ATOM     11  C   UNL     1      -0.210   3.526  25.160  0.00  0.00    +0.127 C 
ATOM     12  C   UNL     1       1.584   0.709  23.580  0.00  0.00    +0.303 C 
ATOM     13  C   UNL     1      -2.681   3.664  25.281  0.00  0.00    +0.250 C 
ATOM     21  H   UNL     1       1.582  -1.432  23.478  0.00  0.00    +0.150 HD
ENDROOT
BRANCH  13  14
ATOM     14  C   UNL     1      -3.981   2.981  25.316  0.00  0.00    +0.078 A 
ATOM     15  C   UNL     1      -4.386   2.158  24.266  0.00  0.00    +0.132 A 
ATOM     16  C   UNL     1      -4.816   3.168  26.417  0.00  0.00    +0.017 A 
ATOM     17  C   UNL     1      -5.625   1.520  24.317  0.00  0.00    +0.046 A 
ATOM     18  C   UNL     1      -6.056   2.531  26.469  0.00  0.00    +0.001 A 
ATOM     19  C   UNL     1      -6.460   1.706  25.420  0.00  0.00    +0.004 A 
BRANCH  15   3
ATOM      3  O   UNL     1      -3.586   1.966  23.179  0.00  0.00    -0.494 OA
ATOM     20  C   UNL     1      -3.548   3.010  22.210  0.00  0.00    +0.277 C 
ENDBRANCH  15   3
ENDBRANCH  13  14
TORSDOF 2
ENDMDL
MODEL 6
REMARK VINA RESULT:      -1.9      2.188      3.096
REMARK  Name = 75368407
REMARK  3 active torsions:
REMARK  status: ('A' for Active; 'I' for Inactive)
REMARK    1  A    between atoms: O_3  and  C_15
REMARK    2  A    between atoms: O_3  and  C_20
REMARK    3  A    between atoms: C_13  and  C_14
REMARK                            x       y       z     vdW  Elec       q    Type
REMARK                         _______ _______ _______ _____ _____    ______ ____
ROOT
ATOM      1  O   UNL     1      -1.677   6.255  25.363  0.00  0.00    -0.253 OA
ATOM      2  O   UNL     1       0.001  -0.217  23.316  0.00  0.00    -0.270 OA
ATOM      4  N   UNL     1      -1.815   3.925  25.063  0.00  0.00    -0.278 N 
ATOM      5  N   UNL     1      -1.543   1.471  23.789  0.00  0.00    -0.294 N 
ATOM      6  N   UNL     1      -3.616   5.023  25.839  0.00  0.00    -0.297 N 
ATOM      7  C   UNL     1      -2.780   2.883  25.369  0.00  0.00    +0.112 C 
ATOM      8  C   UNL     1      -2.892   1.909  24.200  0.00  0.00    +0.132 C 
ATOM      9  C   UNL     1      -4.056   3.656  25.685  0.00  0.00    +0.129 C 
ATOM     10  C   UNL     1      -0.500   3.571  24.558  0.00  0.00    +0.128 C 
ATOM     11  C   UNL     1      -0.634   2.563  23.417  0.00  0.00    +0.127 C 
ATOM     12  C   UNL     1      -2.285   5.195  25.415  0.00  0.00    +0.303 C 
ATOM     13  C   UNL     1      -1.111   0.147  23.695  0.00  0.00    +0.250 C 
ATOM     21  H   UNL     1      -4.215   5.786  26.140  0.00  0.00    +0.150 HD
ENDROOT
BRANCH  13  14
ATOM     14  C   UNL     1      -2.044  -0.915  24.090  0.00  0.00    +0.078 A 
ATOM     15  C   UNL     1      -1.716  -1.817  25.101  0.00  0.00    +0.132 A 
ATOM     16  C   UNL     1      -3.273  -1.016  23.438  0.00  0.00    +0.017 A 
ATOM     17  C   UNL     1      -2.616  -2.821  25.460  0.00  0.00    +0.046 A 
ATOM     18  C   UNL     1      -4.174  -2.018  23.796  0.00  0.00    +0.001 A 
ATOM     19  C   UNL     1      -3.846  -2.920  24.808  0.00  0.00    +0.004 A 
BRANCH  15   3
ATOM      3  O   UNL     1      -0.519  -1.738  25.748  0.00  0.00    -0.494 OA
ATOM     20  C   UNL     1       0.432  -2.765  25.479  0.00  0.00    +0.277 C 
ENDBRANCH  15   3
ENDBRANCH  13  14
TORSDOF 2
ENDMDL
MODEL 7
REMARK VINA RESULT:      -1.9      2.040      6.094
REMARK  Name = 75368407
REMARK  3 active torsions:
REMARK  status: ('A' for Active; 'I' for Inactive)
REMARK    1  A    between atoms: O_3  and  C_15
REMARK    2  A    between atoms: O_3  and  C_20
REMARK    3  A    between atoms: C_13  and  C_14
REMARK                            x       y       z     vdW  Elec       q    Type
REMARK                         _______ _______ _______ _____ _____    ______ ____
ROOT
ATOM      1  O   UNL     1       3.046   1.217  23.220  0.00  0.00    -0.253 OA
ATOM      2  O   UNL     1      -2.794   4.419  25.353  0.00  0.00    -0.270 OA
ATOM      4  N   UNL     1       0.779   1.558  23.751  0.00  0.00    -0.278 N 
ATOM      5  N   UNL     1      -1.425   2.538  25.130  0.00  0.00    -0.294 N 
ATOM      6  N   UNL     1       1.492  -0.535  23.353  0.00  0.00    -0.297 N 
ATOM      7  C   UNL     1      -0.425   0.745  23.789  0.00  0.00    +0.112 C 
ATOM      8  C   UNL     1      -1.246   1.076  25.030  0.00  0.00    +0.132 C 
ATOM      9  C   UNL     1       0.106  -0.684  23.733  0.00  0.00    +0.129 C 
ATOM     10  C   UNL     1       0.688   2.995  23.943  0.00  0.00    +0.128 C 
ATOM     11  C   UNL     1      -0.173   3.305  25.166  0.00  0.00    +0.127 C 
ATOM     12  C   UNL     1       1.910   0.807  23.416  0.00  0.00    +0.303 C 
ATOM     13  C   UNL     1      -2.649   3.203  25.231  0.00  0.00    +0.250 C 
ATOM     21  H   UNL     1       2.113  -1.310  23.144  0.00  0.00    +0.150 HD
ENDROOT
BRANCH  13  14
ATOM     14  C   UNL     1      -3.878   2.402  25.177  0.00  0.00    +0.078 A 
ATOM     15  C   UNL     1      -5.095   2.926  25.610  0.00  0.00    +0.132 A 
ATOM     16  C   UNL     1      -3.817   1.098  24.686  0.00  0.00    +0.017 A 
ATOM     17  C   UNL     1      -6.251   2.148  25.552  0.00  0.00    +0.046 A 
ATOM     18  C   UNL     1      -4.972   0.319  24.627  0.00  0.00    +0.001 A 
ATOM     19  C   UNL     1      -6.189   0.844  25.060  0.00  0.00    +0.004 A 
BRANCH  15   3
ATOM      3  O   UNL     1      -5.176   4.197  26.097  0.00  0.00    -0.494 OA
ATOM     20  C   UNL     1      -6.151   5.055  25.510  0.00  0.00    +0.277 C 
ENDBRANCH  15   3
ENDBRANCH  13  14
TORSDOF 2
ENDMDL
MODEL 8
REMARK VINA RESULT:      -1.8      2.745      3.829
REMARK  Name = 75368407
REMARK  3 active torsions:
REMARK  status: ('A' for Active; 'I' for Inactive)
REMARK    1  A    between atoms: O_3  and  C_15
REMARK    2  A    between atoms: O_3  and  C_20
REMARK    3  A    between atoms: C_13  and  C_14
REMARK                            x       y       z     vdW  Elec       q    Type
REMARK                         _______ _______ _______ _____ _____    ______ ____
ROOT
ATOM      1  O   UNL     1      -1.718   6.546  24.989  0.00  0.00    -0.253 OA
ATOM      2  O   UNL     1      -5.877   0.927  25.138  0.00  0.00    -0.270 OA
ATOM      4  N   UNL     1      -2.397   4.295  24.900  0.00  0.00    -0.278 N 
ATOM      5  N   UNL     1      -3.849   2.015  25.542  0.00  0.00    -0.294 N 
ATOM      6  N   UNL     1      -0.201   4.757  25.011  0.00  0.00    -0.297 N 
ATOM      7  C   UNL     1      -1.741   3.005  24.771  0.00  0.00    +0.112 C 
ATOM      8  C   UNL     1      -2.383   1.991  25.713  0.00  0.00    +0.132 C 
ATOM      9  C   UNL     1      -0.276   3.315  25.064  0.00  0.00    +0.129 C 
ATOM     10  C   UNL     1      -3.846   4.380  24.842  0.00  0.00    +0.128 C 
ATOM     11  C   UNL     1      -4.468   3.329  25.760  0.00  0.00    +0.127 C 
ATOM     12  C   UNL     1      -1.477   5.347  24.965  0.00  0.00    +0.303 C 
ATOM     13  C   UNL     1      -4.651   0.912  25.243  0.00  0.00    +0.250 C 
ATOM     21  H   UNL     1       0.663   5.287  25.079  0.00  0.00    +0.150 HD
ENDROOT
BRANCH  13  14
ATOM     14  C   UNL     1      -3.993  -0.381  25.018  0.00  0.00    +0.078 A 
ATOM     15  C   UNL     1      -3.500  -0.725  23.760  0.00  0.00    +0.132 A 
ATOM     16  C   UNL     1      -3.867  -1.273  26.083  0.00  0.00    +0.017 A 
ATOM     17  C   UNL     1      -2.880  -1.959  23.566  0.00  0.00    +0.046 A 
ATOM     18  C   UNL     1      -3.248  -2.507  25.891  0.00  0.00    +0.001 A 
ATOM     19  C   UNL     1      -2.753  -2.850  24.633  0.00  0.00    +0.004 A 
BRANCH  15   3
ATOM      3  O   UNL     1      -3.616   0.131  22.705  0.00  0.00    -0.494 OA
ATOM     20  C   UNL     1      -2.483   0.939  22.399  0.00  0.00    +0.277 C 
ENDBRANCH  15   3
ENDBRANCH  13  14
TORSDOF 2
ENDMDL
MODEL 9
REMARK VINA RESULT:      -1.7      2.773      5.918
REMARK  Name = 75368407
REMARK  3 active torsions:
REMARK  status: ('A' for Active; 'I' for Inactive)
REMARK    1  A    between atoms: O_3  and  C_15
REMARK    2  A    between atoms: O_3  and  C_20
REMARK    3  A    between atoms: C_13  and  C_14
REMARK                            x       y       z     vdW  Elec       q    Type
REMARK                         _______ _______ _______ _____ _____    ______ ____
ROOT
ATOM      1  O   UNL     1       3.828   1.971  22.856  0.00  0.00    -0.253 OA
ATOM      2  O   UNL     1      -2.510   1.829  25.807  0.00  0.00    -0.270 OA
ATOM      4  N   UNL     1       1.653   1.248  23.391  0.00  0.00    -0.278 N 
ATOM      5  N   UNL     1      -0.599   0.792  24.952  0.00  0.00    -0.294 N 
ATOM      6  N   UNL     1       3.011  -0.149  22.270  0.00  0.00    -0.297 N 
ATOM      7  C   UNL     1       0.823   0.096  23.079  0.00  0.00    +0.112 C 
ATOM      8  C   UNL     1       0.071  -0.364  24.323  0.00  0.00    +0.132 C 
ATOM      9  C   UNL     1       1.813  -0.918  22.515  0.00  0.00    +0.129 C 
ATOM     10  C   UNL     1       1.084   2.380  24.100  0.00  0.00    +0.128 C 
ATOM     11  C   UNL     1       0.300   1.894  25.318  0.00  0.00    +0.127 C 
ATOM     12  C   UNL     1       2.935   1.134  22.842  0.00  0.00    +0.303 C 
ATOM     13  C   UNL     1      -1.960   0.881  25.248  0.00  0.00    +0.250 C 
ATOM     21  H   UNL     1       3.840  -0.514  21.812  0.00  0.00    +0.150 HD
ENDROOT
BRANCH  13  14
ATOM     14  C   UNL     1      -2.828  -0.236  24.854  0.00  0.00    +0.078 A 
ATOM     15  C   UNL     1      -4.076  -0.004  24.278  0.00  0.00    +0.132 A 
ATOM     16  C   UNL     1      -2.391  -1.543  25.066  0.00  0.00    +0.017 A 
ATOM     17  C   UNL     1      -4.887  -1.079  23.912  0.00  0.00    +0.046 A 
ATOM     18  C   UNL     1      -3.200  -2.618  24.701  0.00  0.00    +0.001 A 
ATOM     19  C   UNL     1      -4.448  -2.386  24.124  0.00  0.00    +0.004 A 
BRANCH  15   3
ATOM      3  O   UNL     1      -4.525   1.266  24.065  0.00  0.00    -0.494 OA
ATOM     20  C   UNL     1      -5.608   1.715  24.876  0.00  0.00    +0.277 C 
ENDBRANCH  15   3
ENDBRANCH  13  14
TORSDOF 2
ENDMDL
MODEL 10
REMARK VINA RESULT:      -1.6      2.421      6.196
REMARK  Name = 75368407
REMARK  3 active torsions:
REMARK  status: ('A' for Active; 'I' for Inactive)
REMARK    1  A    between atoms: O_3  and  C_15
REMARK    2  A    between atoms: O_3  and  C_20
REMARK    3  A    between atoms: C_13  and  C_14
REMARK                            x       y       z     vdW  Elec       q    Type
REMARK                         _______ _______ _______ _____ _____    ______ ____
ROOT
ATOM      1  O   UNL     1       2.711  -1.074  23.344  0.00  0.00    -0.253 OA
ATOM      2  O   UNL     1      -3.912  -1.068  25.586  0.00  0.00    -0.270 OA
ATOM      4  N   UNL     1       0.602  -0.269  24.005  0.00  0.00    -0.278 N 
ATOM      5  N   UNL     1      -2.161  -0.216  24.294  0.00  0.00    -0.294 N 
ATOM      6  N   UNL     1       2.034   1.147  23.009  0.00  0.00    -0.297 N 
ATOM      7  C   UNL     1      -0.058   1.025  24.061  0.00  0.00    +0.112 C 
ATOM      8  C   UNL     1      -1.503   0.901  23.587  0.00  0.00    +0.132 C 
ATOM      9  C   UNL     1       0.826   1.917  23.196  0.00  0.00    +0.129 C 
ATOM     10  C   UNL     1      -0.037  -1.434  24.593  0.00  0.00    +0.128 C 
ATOM     11  C   UNL     1      -1.494  -1.515  24.139  0.00  0.00    +0.127 C 
ATOM     12  C   UNL     1       1.881  -0.182  23.447  0.00  0.00    +0.303 C 
ATOM     13  C   UNL     1      -3.345  -0.129  25.029  0.00  0.00    +0.250 C 
ATOM     21  H   UNL     1       2.867   1.495  22.544  0.00  0.00    +0.150 HD
ENDROOT
BRANCH  13  14
ATOM     14  C   UNL     1      -3.974   1.190  25.173  0.00  0.00    +0.078 A 
ATOM     15  C   UNL     1      -3.240   2.289  25.617  0.00  0.00    +0.132 A 
ATOM     16  C   UNL     1      -5.326   1.335  24.861  0.00  0.00    +0.017 A 
ATOM     17  C   UNL     1      -3.857   3.533  25.749  0.00  0.00    +0.046 A 
ATOM     18  C   UNL     1      -5.943   2.578  24.993  0.00  0.00    +0.001 A 
ATOM     19  C   UNL     1      -5.209   3.678  25.436  0.00  0.00    +0.004 A 
BRANCH  15   3
ATOM      3  O   UNL     1      -1.919   2.169  25.930  0.00  0.00    -0.494 OA
ATOM     20  C   UNL     1      -1.186   3.376  26.123  0.00  0.00    +0.277 C 
ENDBRANCH  15   3
ENDBRANCH  13  14
TORSDOF 2
ENDMDL
