MODEL 1
REMARK VINA RESULT:      -6.3      0.000      0.000
REMARK  Name = 75536901
REMARK  3 active torsions:
REMARK  status: ('A' for Active; 'I' for Inactive)
REMARK    1  A    between atoms: O_3  and  C_8
REMARK    2  A    between atoms: O_3  and  C_15
REMARK    3  A    between atoms: C_13  and  C_14
REMARK                            x       y       z     vdW  Elec       q    Type
REMARK                         _______ _______ _______ _____ _____    ______ ____
ROOT
ATOM      2  O   UNL     1      -2.391   4.855  24.400  0.00  0.00    -0.375 OA
ATOM      4  O   UNL     1      -5.850   1.521  24.865  0.00  0.00    -0.270 OA
ATOM      5  N   UNL     1      -3.719   2.244  25.516  0.00  0.00    -0.292 N 
ATOM      8  C   UNL     1      -1.302   3.059  25.643  0.00  0.00    +0.218 C 
ATOM      9  C   UNL     1      -2.313   1.918  25.787  0.00  0.00    +0.155 C 
ATOM     10  C   UNL     1      -4.139   3.643  25.612  0.00  0.00    +0.136 C 
ATOM     11  C   UNL     1      -1.428   3.810  24.317  0.00  0.00    +0.206 C 
ATOM     12  C   UNL     1      -3.746   4.421  24.363  0.00  0.00    +0.179 C 
ATOM     13  C   UNL     1      -4.672   1.287  25.132  0.00  0.00    +0.247 C 
ENDROOT
BRANCH  13  14
ATOM      1  F   UNL     1      -4.427  -2.902  22.700  0.00  0.00    -0.205 F 
ATOM     14  C   UNL     1      -4.250  -0.119  25.036  0.00  0.00    +0.040 A 
ATOM     16  C   UNL     1      -4.545  -0.858  23.891  0.00  0.00    +0.051 A 
ATOM     17  C   UNL     1      -3.555  -0.712  26.090  0.00  0.00    +0.013 A 
ATOM     18  C   UNL     1      -4.146  -2.192  23.799  0.00  0.00    +0.124 A 
ATOM     19  C   UNL     1      -3.156  -2.045  25.999  0.00  0.00    +0.004 A 
ATOM     21  C   UNL     1      -3.450  -2.786  24.854  0.00  0.00    +0.038 A 
ENDBRANCH  13  14
BRANCH   8   3
ATOM      3  O   UNL     1      -0.004   2.471  25.723  0.00  0.00    -0.468 OA
BRANCH   3  15
ATOM      6  N   UNL     1       1.255   1.665  23.942  0.00  0.00    -0.219 NA
ATOM      7  N   UNL     1      -0.217  -0.721  24.019  0.00  0.00    -0.256 NA
ATOM     15  C   UNL     1       0.268   1.464  24.838  0.00  0.00    +0.234 A 
ATOM     20  C   UNL     1      -0.456   0.293  24.875  0.00  0.00    +0.177 A 
ATOM     22  C   UNL     1       1.494   0.652  23.086  0.00  0.00    +0.134 A 
ATOM     23  C   UNL     1       0.770  -0.520  23.124  0.00  0.00    +0.130 A 
ENDBRANCH   3  15
ENDBRANCH   8   3
TORSDOF 3
ENDMDL
MODEL 2
REMARK VINA RESULT:      -6.0      2.271      5.090
REMARK  Name = 75536901
REMARK  3 active torsions:
REMARK  status: ('A' for Active; 'I' for Inactive)
REMARK    1  A    between atoms: O_3  and  C_8
REMARK    2  A    between atoms: O_3  and  C_15
REMARK    3  A    between atoms: C_13  and  C_14
REMARK                            x       y       z     vdW  Elec       q    Type
REMARK                         _______ _______ _______ _____ _____    ______ ____
ROOT
ATOM      2  O   UNL     1       1.112  -0.528  23.157  0.00  0.00    -0.375 OA
ATOM      4  O   UNL     1      -0.305   4.046  23.762  0.00  0.00    -0.270 OA
ATOM      5  N   UNL     1      -0.183   1.891  24.672  0.00  0.00    -0.292 N 
ATOM      8  C   UNL     1      -0.293  -0.616  25.150  0.00  0.00    +0.218 C 
ATOM      9  C   UNL     1      -0.845   0.793  25.388  0.00  0.00    +0.155 C 
ATOM     10  C   UNL     1       1.187   1.685  24.199  0.00  0.00    +0.136 C 
ATOM     11  C   UNL     1      -0.145  -0.960  23.668  0.00  0.00    +0.206 C 
ATOM     12  C   UNL     1       1.207   0.870  22.912  0.00  0.00    +0.179 C 
ATOM     13  C   UNL     1      -0.810   3.113  24.386  0.00  0.00    +0.247 C 
ENDROOT
BRANCH  13  14
ATOM      1  F   UNL     1      -5.569   2.222  24.093  0.00  0.00    -0.205 F 
ATOM     14  C   UNL     1      -2.187   3.320  24.862  0.00  0.00    +0.040 A 
ATOM     16  C   UNL     1      -3.246   2.660  24.239  0.00  0.00    +0.051 A 
ATOM     17  C   UNL     1      -2.433   4.176  25.936  0.00  0.00    +0.013 A 
ATOM     18  C   UNL     1      -4.552   2.856  24.690  0.00  0.00    +0.124 A 
ATOM     19  C   UNL     1      -3.738   4.373  26.386  0.00  0.00    +0.004 A 
ATOM     21  C   UNL     1      -4.798   3.712  25.764  0.00  0.00    +0.038 A 
ENDBRANCH  13  14
BRANCH   8   3
ATOM      3  O   UNL     1      -1.216  -1.526  25.750  0.00  0.00    -0.468 OA
BRANCH   3  15
ATOM      6  N   UNL     1      -3.242  -0.683  24.981  0.00  0.00    -0.219 NA
ATOM      7  N   UNL     1      -3.840  -3.198  23.891  0.00  0.00    -0.256 NA
ATOM     15  C   UNL     1      -2.395  -1.727  25.086  0.00  0.00    +0.234 A 
ATOM     20  C   UNL     1      -2.688  -2.962  24.551  0.00  0.00    +0.177 A 
ATOM     22  C   UNL     1      -4.393  -0.919  24.321  0.00  0.00    +0.134 A 
ATOM     23  C   UNL     1      -4.687  -2.154  23.786  0.00  0.00    +0.130 A 
ENDBRANCH   3  15
ENDBRANCH   8   3
TORSDOF 3
ENDMDL
MODEL 3
REMARK VINA RESULT:      -5.7      1.717      4.506
REMARK  Name = 75536901
REMARK  3 active torsions:
REMARK  status: ('A' for Active; 'I' for Inactive)
REMARK    1  A    between atoms: O_3  and  C_8
REMARK    2  A    between atoms: O_3  and  C_15
REMARK    3  A    between atoms: C_13  and  C_14
REMARK                            x       y       z     vdW  Elec       q    Type
REMARK                         _______ _______ _______ _____ _____    ______ ____
ROOT
ATOM      2  O   UNL     1      -0.399   3.743  25.560  0.00  0.00    -0.375 OA
ATOM      4  O   UNL     1       0.308  -1.002  25.036  0.00  0.00    -0.270 OA
ATOM      5  N   UNL     1      -0.762   0.924  24.240  0.00  0.00    -0.292 N 
ATOM      8  C   UNL     1      -2.096   3.080  23.937  0.00  0.00    +0.218 C 
ATOM      9  C   UNL     1      -1.990   1.564  23.751  0.00  0.00    +0.155 C 
ATOM     10  C   UNL     1       0.434   1.751  24.408  0.00  0.00    +0.136 C 
ATOM     11  C   UNL     1      -1.794   3.533  25.365  0.00  0.00    +0.206 C 
ATOM     12  C   UNL     1       0.369   2.554  25.701  0.00  0.00    +0.179 C 
ATOM     13  C   UNL     1      -0.688  -0.433  24.592  0.00  0.00    +0.247 C 
ENDROOT
BRANCH  13  14
ATOM      1  F   UNL     1      -5.482  -0.873  23.992  0.00  0.00    -0.205 F 
ATOM     14  C   UNL     1      -1.891  -1.265  24.424  0.00  0.00    +0.040 A 
ATOM     16  C   UNL     1      -3.141  -0.663  24.285  0.00  0.00    +0.051 A 
ATOM     17  C   UNL     1      -1.779  -2.656  24.403  0.00  0.00    +0.013 A 
ATOM     18  C   UNL     1      -4.281  -1.451  24.127  0.00  0.00    +0.124 A 
ATOM     19  C   UNL     1      -2.919  -3.443  24.244  0.00  0.00    +0.004 A 
ATOM     21  C   UNL     1      -4.170  -2.842  24.105  0.00  0.00    +0.038 A 
ENDBRANCH  13  14
BRANCH   8   3
ATOM      3  O   UNL     1      -3.438   3.442  23.608  0.00  0.00    -0.468 OA
BRANCH   3  15
ATOM      6  N   UNL     1      -5.231   2.051  24.115  0.00  0.00    -0.219 NA
ATOM      7  N   UNL     1      -5.473   3.320  26.605  0.00  0.00    -0.256 NA
ATOM     15  C   UNL     1      -4.410   3.052  24.489  0.00  0.00    +0.234 A 
ATOM     20  C   UNL     1      -4.528   3.676  25.711  0.00  0.00    +0.177 A 
ATOM     22  C   UNL     1      -6.176   1.695  25.009  0.00  0.00    +0.134 A 
ATOM     23  C   UNL     1      -6.294   2.319  26.232  0.00  0.00    +0.130 A 
ENDBRANCH   3  15
ENDBRANCH   8   3
TORSDOF 3
ENDMDL
MODEL 4
REMARK VINA RESULT:      -5.6      2.460      4.633
REMARK  Name = 75536901
REMARK  3 active torsions:
REMARK  status: ('A' for Active; 'I' for Inactive)
REMARK    1  A    between atoms: O_3  and  C_8
REMARK    2  A    between atoms: O_3  and  C_15
REMARK    3  A    between atoms: C_13  and  C_14
REMARK                            x       y       z     vdW  Elec       q    Type
REMARK                         _______ _______ _______ _____ _____    ______ ____
ROOT
ATOM      2  O   UNL     1      -0.923  -2.550  25.107  0.00  0.00    -0.375 OA
ATOM      4  O   UNL     1      -5.371  -0.858  24.302  0.00  0.00    -0.270 OA
ATOM      5  N   UNL     1      -3.066  -0.531  24.034  0.00  0.00    -0.292 N 
ATOM      8  C   UNL     1      -0.543  -0.270  24.324  0.00  0.00    +0.218 C 
ATOM      9  C   UNL     1      -1.913   0.375  24.099  0.00  0.00    +0.155 C 
ATOM     10  C   UNL     1      -2.828  -1.936  23.699  0.00  0.00    +0.136 C 
ATOM     11  C   UNL     1      -0.523  -1.242  25.503  0.00  0.00    +0.206 C 
ATOM     12  C   UNL     1      -2.322  -2.710  24.910  0.00  0.00    +0.179 C 
ATOM     13  C   UNL     1      -4.381  -0.127  24.313  0.00  0.00    +0.247 C 
ENDROOT
BRANCH  13  14
ATOM      1  F   UNL     1      -3.778   4.601  23.411  0.00  0.00    -0.205 F 
ATOM     14  C   UNL     1      -4.621   1.286  24.649  0.00  0.00    +0.040 A 
ATOM     16  C   UNL     1      -4.075   2.294  23.855  0.00  0.00    +0.051 A 
ATOM     17  C   UNL     1      -5.393   1.616  25.763  0.00  0.00    +0.013 A 
ATOM     18  C   UNL     1      -4.301   3.633  24.174  0.00  0.00    +0.124 A 
ATOM     19  C   UNL     1      -5.619   2.955  26.083  0.00  0.00    +0.004 A 
ATOM     21  C   UNL     1      -5.074   3.964  25.288  0.00  0.00    +0.038 A 
ENDBRANCH  13  14
BRANCH   8   3
ATOM      3  O   UNL     1       0.376   0.793  24.581  0.00  0.00    -0.468 OA
BRANCH   3  15
ATOM      6  N   UNL     1      -0.018   2.980  23.898  0.00  0.00    -0.219 NA
ATOM      7  N   UNL     1      -1.391   3.451  26.298  0.00  0.00    -0.256 NA
ATOM     15  C   UNL     1      -0.168   2.022  24.834  0.00  0.00    +0.234 A 
ATOM     20  C   UNL     1      -0.842   2.253  26.013  0.00  0.00    +0.177 A 
ATOM     22  C   UNL     1      -0.567   4.178  24.183  0.00  0.00    +0.134 A 
ATOM     23  C   UNL     1      -1.241   4.409  25.362  0.00  0.00    +0.130 A 
ENDBRANCH   3  15
ENDBRANCH   8   3
TORSDOF 3
ENDMDL
MODEL 5
REMARK VINA RESULT:      -5.2      2.628      6.170
REMARK  Name = 75536901
REMARK  3 active torsions:
REMARK  status: ('A' for Active; 'I' for Inactive)
REMARK    1  A    between atoms: O_3  and  C_8
REMARK    2  A    between atoms: O_3  and  C_15
REMARK    3  A    between atoms: C_13  and  C_14
REMARK                            x       y       z     vdW  Elec       q    Type
REMARK                         _______ _______ _______ _____ _____    ______ ____
ROOT
ATOM      2  O   UNL     1      -2.310  -2.291  23.923  0.00  0.00    -0.375 OA
ATOM      4  O   UNL     1       1.010   1.128  24.691  0.00  0.00    -0.270 OA
ATOM      5  N   UNL     1      -1.087   0.259  25.274  0.00  0.00    -0.292 N 
ATOM      8  C   UNL     1      -3.467  -0.663  25.326  0.00  0.00    +0.218 C 
ATOM      9  C   UNL     1      -2.503   0.501  25.574  0.00  0.00    +0.155 C 
ATOM     10  C   UNL     1      -0.609  -1.124  25.241  0.00  0.00    +0.136 C 
ATOM     11  C   UNL     1      -3.316  -1.283  23.937  0.00  0.00    +0.206 C 
ATOM     12  C   UNL     1      -0.975  -1.799  23.925  0.00  0.00    +0.179 C 
ATOM     13  C   UNL     1      -0.175   1.286  24.979  0.00  0.00    +0.247 C 
ENDROOT
BRANCH  13  14
ATOM      1  F   UNL     1      -3.001   4.745  26.873  0.00  0.00    -0.205 F 
ATOM     14  C   UNL     1      -0.656   2.677  25.013  0.00  0.00    +0.040 A 
ATOM     16  C   UNL     1      -1.620   3.059  25.946  0.00  0.00    +0.051 A 
ATOM     17  C   UNL     1      -0.147   3.612  24.112  0.00  0.00    +0.013 A 
ATOM     18  C   UNL     1      -2.076   4.377  25.977  0.00  0.00    +0.124 A 
ATOM     19  C   UNL     1      -0.603   4.929  24.143  0.00  0.00    +0.004 A 
ATOM     21  C   UNL     1      -1.567   5.313  25.075  0.00  0.00    +0.038 A 
ENDBRANCH  13  14
BRANCH   8   3
ATOM      3  O   UNL     1      -4.788  -0.139  25.461  0.00  0.00    -0.468 OA
BRANCH   3  15
ATOM      6  N   UNL     1      -4.363   1.727  24.142  0.00  0.00    -0.219 NA
ATOM      7  N   UNL     1      -5.832   3.298  25.942  0.00  0.00    -0.256 NA
ATOM     15  C   UNL     1      -4.940   1.202  25.241  0.00  0.00    +0.234 A 
ATOM     20  C   UNL     1      -5.661   1.974  26.126  0.00  0.00    +0.177 A 
ATOM     22  C   UNL     1      -4.533   3.052  23.959  0.00  0.00    +0.134 A 
ATOM     23  C   UNL     1      -5.254   3.823  24.843  0.00  0.00    +0.130 A 
ENDBRANCH   3  15
ENDBRANCH   8   3
TORSDOF 3
ENDMDL
MODEL 6
REMARK VINA RESULT:      -5.0      2.160      4.563
REMARK  Name = 75536901
REMARK  3 active torsions:
REMARK  status: ('A' for Active; 'I' for Inactive)
REMARK    1  A    between atoms: O_3  and  C_8
REMARK    2  A    between atoms: O_3  and  C_15
REMARK    3  A    between atoms: C_13  and  C_14
REMARK                            x       y       z     vdW  Elec       q    Type
REMARK                         _______ _______ _______ _____ _____    ______ ____
ROOT
ATOM      2  O   UNL     1      -4.864   3.816  26.188  0.00  0.00    -0.375 OA
ATOM      4  O   UNL     1      -0.180   3.667  25.033  0.00  0.00    -0.270 OA
ATOM      5  N   UNL     1      -2.356   2.977  24.506  0.00  0.00    -0.292 N 
ATOM      8  C   UNL     1      -4.739   2.059  24.499  0.00  0.00    +0.218 C 
ATOM      9  C   UNL     1      -3.266   1.894  24.112  0.00  0.00    +0.155 C 
ATOM     10  C   UNL     1      -2.924   4.299  24.776  0.00  0.00    +0.136 C 
ATOM     11  C   UNL     1      -4.937   2.410  25.973  0.00  0.00    +0.206 C 
ATOM     12  C   UNL     1      -3.548   4.354  26.165  0.00  0.00    +0.179 C 
ATOM     13  C   UNL     1      -0.974   2.798  24.674  0.00  0.00    +0.247 C 
ENDROOT
BRANCH  13  14
ATOM      1  F   UNL     1       1.987  -0.103  22.155  0.00  0.00    -0.205 F 
ATOM     14  C   UNL     1      -0.403   1.470  24.402  0.00  0.00    +0.040 A 
ATOM     16  C   UNL     1       0.540   1.310  23.387  0.00  0.00    +0.051 A 
ATOM     17  C   UNL     1      -0.807   0.369  25.159  0.00  0.00    +0.013 A 
ATOM     18  C   UNL     1       1.080   0.050  23.128  0.00  0.00    +0.124 A 
ATOM     19  C   UNL     1      -0.267  -0.890  24.900  0.00  0.00    +0.004 A 
ATOM     21  C   UNL     1       0.677  -1.051  23.886  0.00  0.00    +0.038 A 
ENDBRANCH  13  14
BRANCH   8   3
ATOM      3  O   UNL     1      -5.378   0.811  24.227  0.00  0.00    -0.468 OA
BRANCH   3  15
ATOM      6  N   UNL     1      -4.192  -0.410  25.812  0.00  0.00    -0.219 NA
ATOM      7  N   UNL     1      -3.809  -2.441  23.915  0.00  0.00    -0.256 NA
ATOM     15  C   UNL     1      -4.679  -0.318  24.558  0.00  0.00    +0.234 A 
ATOM     20  C   UNL     1      -4.491  -1.315  23.627  0.00  0.00    +0.177 A 
ATOM     22  C   UNL     1      -3.510  -1.537  26.100  0.00  0.00    +0.134 A 
ATOM     23  C   UNL     1      -3.322  -2.534  25.169  0.00  0.00    +0.130 A 
ENDBRANCH   3  15
ENDBRANCH   8   3
TORSDOF 3
ENDMDL
MODEL 7
REMARK VINA RESULT:      -4.8      2.703      6.008
REMARK  Name = 75536901
REMARK  3 active torsions:
REMARK  status: ('A' for Active; 'I' for Inactive)
REMARK    1  A    between atoms: O_3  and  C_8
REMARK    2  A    between atoms: O_3  and  C_15
REMARK    3  A    between atoms: C_13  and  C_14
REMARK                            x       y       z     vdW  Elec       q    Type
REMARK                         _______ _______ _______ _____ _____    ______ ____
ROOT
ATOM      2  O   UNL     1      -4.481  -2.946  23.985  0.00  0.00    -0.375 OA
ATOM      4  O   UNL     1      -0.102  -1.712  25.597  0.00  0.00    -0.270 OA
ATOM      5  N   UNL     1      -2.360  -1.121  25.397  0.00  0.00    -0.292 N 
ATOM      8  C   UNL     1      -4.732  -0.600  24.607  0.00  0.00    +0.218 C 
ATOM      9  C   UNL     1      -3.364  -0.098  25.078  0.00  0.00    +0.155 C 
ATOM     10  C   UNL     1      -2.823  -2.471  25.722  0.00  0.00    +0.136 C 
ATOM     11  C   UNL     1      -4.640  -1.626  23.478  0.00  0.00    +0.206 C 
ATOM     12  C   UNL     1      -3.174  -3.249  24.460  0.00  0.00    +0.179 C 
ATOM     13  C   UNL     1      -0.978  -0.878  25.369  0.00  0.00    +0.247 C 
ENDROOT
BRANCH  13  14
ATOM      1  F   UNL     1      -0.918   3.896  26.224  0.00  0.00    -0.205 F 
ATOM     14  C   UNL     1      -0.513   0.479  25.043  0.00  0.00    +0.040 A 
ATOM     16  C   UNL     1      -0.945   1.566  25.803  0.00  0.00    +0.051 A 
ATOM     17  C   UNL     1       0.359   0.679  23.972  0.00  0.00    +0.013 A 
ATOM     18  C   UNL     1      -0.505   2.853  25.493  0.00  0.00    +0.124 A 
ATOM     19  C   UNL     1       0.797   1.966  23.661  0.00  0.00    +0.004 A 
ATOM     21  C   UNL     1       0.367   3.053  24.422  0.00  0.00    +0.038 A 
ENDBRANCH  13  14
BRANCH   8   3
ATOM      3  O   UNL     1      -5.452   0.542  24.142  0.00  0.00    -0.468 OA
BRANCH   3  15
ATOM      6  N   UNL     1      -4.110   2.422  23.881  0.00  0.00    -0.219 NA
ATOM      7  N   UNL     1      -5.161   3.467  26.262  0.00  0.00    -0.256 NA
ATOM     15  C   UNL     1      -5.033   1.759  24.605  0.00  0.00    +0.234 A 
ATOM     20  C   UNL     1      -5.550   2.272  25.775  0.00  0.00    +0.177 A 
ATOM     22  C   UNL     1      -3.722   3.618  24.368  0.00  0.00    +0.134 A 
ATOM     23  C   UNL     1      -4.238   4.130  25.538  0.00  0.00    +0.130 A 
ENDBRANCH   3  15
ENDBRANCH   8   3
TORSDOF 3
ENDMDL
MODEL 8
REMARK VINA RESULT:      -4.8      2.601      4.584
REMARK  Name = 75536901
REMARK  3 active torsions:
REMARK  status: ('A' for Active; 'I' for Inactive)
REMARK    1  A    between atoms: O_3  and  C_8
REMARK    2  A    between atoms: O_3  and  C_15
REMARK    3  A    between atoms: C_13  and  C_14
REMARK                            x       y       z     vdW  Elec       q    Type
REMARK                         _______ _______ _______ _____ _____    ______ ____
ROOT
ATOM      2  O   UNL     1      -1.374  -2.484  24.975  0.00  0.00    -0.375 OA
ATOM      4  O   UNL     1      -5.549  -0.076  24.717  0.00  0.00    -0.270 OA
ATOM      5  N   UNL     1      -3.270  -0.120  24.175  0.00  0.00    -0.292 N 
ATOM      8  C   UNL     1      -0.722  -0.278  24.161  0.00  0.00    +0.218 C 
ATOM      9  C   UNL     1      -1.985   0.586  24.105  0.00  0.00    +0.155 C 
ATOM     10  C   UNL     1      -3.306  -1.537  23.808  0.00  0.00    +0.136 C 
ATOM     11  C   UNL     1      -0.722  -1.268  25.325  0.00  0.00    +0.206 C 
ATOM     12  C   UNL     1      -2.795  -2.412  24.946  0.00  0.00    +0.179 C 
ATOM     13  C   UNL     1      -4.459   0.485  24.612  0.00  0.00    +0.247 C 
ENDROOT
BRANCH  13  14
ATOM      1  F   UNL     1      -1.995   4.571  25.484  0.00  0.00    -0.205 F 
ATOM     14  C   UNL     1      -4.423   1.909  24.981  0.00  0.00    +0.040 A 
ATOM     16  C   UNL     1      -3.202   2.578  25.059  0.00  0.00    +0.051 A 
ATOM     17  C   UNL     1      -5.610   2.590  25.251  0.00  0.00    +0.013 A 
ATOM     18  C   UNL     1      -3.167   3.928  25.410  0.00  0.00    +0.124 A 
ATOM     19  C   UNL     1      -5.576   3.939  25.602  0.00  0.00    +0.004 A 
ATOM     21  C   UNL     1      -4.355   4.609  25.681  0.00  0.00    +0.038 A 
ENDBRANCH  13  14
BRANCH   8   3
ATOM      3  O   UNL     1       0.382   0.616  24.310  0.00  0.00    -0.468 OA
BRANCH   3  15
ATOM      6  N   UNL     1       2.555   1.127  23.659  0.00  0.00    -0.219 NA
ATOM      7  N   UNL     1       2.181  -0.388  21.328  0.00  0.00    -0.256 NA
ATOM     15  C   UNL     1       1.393   0.497  23.396  0.00  0.00    +0.234 A 
ATOM     20  C   UNL     1       1.209  -0.247  22.251  0.00  0.00    +0.177 A 
ATOM     22  C   UNL     1       3.527   0.987  22.736  0.00  0.00    +0.134 A 
ATOM     23  C   UNL     1       3.343   0.243  21.591  0.00  0.00    +0.130 A 
ENDBRANCH   3  15
ENDBRANCH   8   3
TORSDOF 3
ENDMDL
MODEL 9
REMARK VINA RESULT:      -4.3      2.630      4.898
REMARK  Name = 75536901
REMARK  3 active torsions:
REMARK  status: ('A' for Active; 'I' for Inactive)
REMARK    1  A    between atoms: O_3  and  C_8
REMARK    2  A    between atoms: O_3  and  C_15
REMARK    3  A    between atoms: C_13  and  C_14
REMARK                            x       y       z     vdW  Elec       q    Type
REMARK                         _______ _______ _______ _____ _____    ______ ____
ROOT
ATOM      2  O   UNL     1       0.986   0.265  23.841  0.00  0.00    -0.375 OA
ATOM      4  O   UNL     1      -1.649   4.297  24.150  0.00  0.00    -0.270 OA
ATOM      5  N   UNL     1      -1.124   2.217  25.091  0.00  0.00    -0.292 N 
ATOM      8  C   UNL     1      -0.657  -0.248  25.570  0.00  0.00    +0.218 C 
ATOM      9  C   UNL     1      -1.587   0.963  25.697  0.00  0.00    +0.155 C 
ATOM     10  C   UNL     1       0.311   2.387  24.858  0.00  0.00    +0.136 C 
ATOM     11  C   UNL     1      -0.182  -0.493  24.139  0.00  0.00    +0.206 C 
ATOM     12  C   UNL     1       0.754   1.648  23.601  0.00  0.00    +0.179 C 
ATOM     13  C   UNL     1      -1.991   3.246  24.690  0.00  0.00    +0.247 C 
ENDROOT
BRANCH  13  14
ATOM      1  F   UNL     1      -6.337   5.063  25.845  0.00  0.00    -0.205 F 
ATOM     14  C   UNL     1      -3.433   3.074  24.925  0.00  0.00    +0.040 A 
ATOM     16  C   UNL     1      -4.217   4.172  25.281  0.00  0.00    +0.051 A 
ATOM     17  C   UNL     1      -4.016   1.814  24.793  0.00  0.00    +0.013 A 
ATOM     18  C   UNL     1      -5.584   4.009  25.505  0.00  0.00    +0.124 A 
ATOM     19  C   UNL     1      -5.383   1.651  25.017  0.00  0.00    +0.004 A 
ATOM     21  C   UNL     1      -6.168   2.749  25.373  0.00  0.00    +0.038 A 
ENDBRANCH  13  14
BRANCH   8   3
ATOM      3  O   UNL     1      -1.398  -1.384  26.016  0.00  0.00    -0.468 OA
BRANCH   3  15
ATOM      6  N   UNL     1      -2.063  -2.947  24.428  0.00  0.00    -0.219 NA
ATOM      7  N   UNL     1      -4.554  -1.670  24.258  0.00  0.00    -0.256 NA
ATOM     15  C   UNL     1      -2.359  -1.859  25.167  0.00  0.00    +0.234 A 
ATOM     20  C   UNL     1      -3.583  -1.231  25.083  0.00  0.00    +0.177 A 
ATOM     22  C   UNL     1      -3.035  -3.386  23.603  0.00  0.00    +0.134 A 
ATOM     23  C   UNL     1      -4.258  -2.758  23.520  0.00  0.00    +0.130 A 
ENDBRANCH   3  15
ENDBRANCH   8   3
TORSDOF 3
ENDMDL
MODEL 10
REMARK VINA RESULT:      -4.2      1.993      4.657
REMARK  Name = 75536901
REMARK  3 active torsions:
REMARK  status: ('A' for Active; 'I' for Inactive)
REMARK    1  A    between atoms: O_3  and  C_8
REMARK    2  A    between atoms: O_3  and  C_15
REMARK    3  A    between atoms: C_13  and  C_14
REMARK                            x       y       z     vdW  Elec       q    Type
REMARK                         _______ _______ _______ _____ _____    ______ ____
ROOT
ATOM      2  O   UNL     1      -1.738   5.411  24.975  0.00  0.00    -0.375 OA
ATOM      4  O   UNL     1       1.059   1.477  24.949  0.00  0.00    -0.270 OA
ATOM      5  N   UNL     1      -0.838   2.545  24.082  0.00  0.00    -0.292 N 
ATOM      8  C   UNL     1      -3.040   3.782  23.708  0.00  0.00    +0.218 C 
ATOM      9  C   UNL     1      -2.253   2.469  23.698  0.00  0.00    +0.155 C 
ATOM     10  C   UNL     1      -0.156   3.835  23.972  0.00  0.00    +0.136 C 
ATOM     11  C   UNL     1      -2.884   4.566  25.010  0.00  0.00    +0.206 C 
ATOM     12  C   UNL     1      -0.497   4.738  25.151  0.00  0.00    +0.179 C 
ATOM     13  C   UNL     1      -0.116   1.451  24.585  0.00  0.00    +0.247 C 
ENDROOT
BRANCH  13  14
ATOM      1  F   UNL     1      -3.478  -1.403  26.605  0.00  0.00    -0.205 F 
ATOM     14  C   UNL     1      -0.801   0.153  24.696  0.00  0.00    +0.040 A 
ATOM     16  C   UNL     1      -1.836  -0.013  25.617  0.00  0.00    +0.051 A 
ATOM     17  C   UNL     1      -0.416  -0.910  23.879  0.00  0.00    +0.013 A 
ATOM     18  C   UNL     1      -2.485  -1.244  25.722  0.00  0.00    +0.124 A 
ATOM     19  C   UNL     1      -1.065  -2.140  23.984  0.00  0.00    +0.004 A 
ATOM     21  C   UNL     1      -2.100  -2.307  24.905  0.00  0.00    +0.038 A 
ENDBRANCH  13  14
BRANCH   8   3
ATOM      3  O   UNL     1      -4.415   3.439  23.532  0.00  0.00    -0.468 OA
BRANCH   3  15
ATOM      6  N   UNL     1      -5.642   3.440  25.507  0.00  0.00    -0.219 NA
ATOM      7  N   UNL     1      -5.508   0.639  25.556  0.00  0.00    -0.256 NA
ATOM     15  C   UNL     1      -5.005   2.739  24.548  0.00  0.00    +0.234 A 
ATOM     20  C   UNL     1      -4.939   1.363  24.572  0.00  0.00    +0.177 A 
ATOM     22  C   UNL     1      -6.211   2.715  26.491  0.00  0.00    +0.134 A 
ATOM     23  C   UNL     1      -6.145   1.340  26.515  0.00  0.00    +0.130 A 
ENDBRANCH   3  15
ENDBRANCH   8   3
TORSDOF 3
ENDMDL
