MODEL 1
REMARK VINA RESULT:      10.3      0.000      0.000
REMARK  Name = 7144017
REMARK  7 active torsions:
REMARK  status: ('A' for Active; 'I' for Inactive)
REMARK    1  A    between atoms: S_1  and  C_29
REMARK    2  A    between atoms: S_1  and  C_31
REMARK    3  A    between atoms: O_3  and  C_26
REMARK    4  A    between atoms: O_3  and  C_30
REMARK    5  A    between atoms: N_4  and  C_13
REMARK    6  A    between atoms: C_13  and  C_18
REMARK    7  A    between atoms: C_16  and  C_19
REMARK                            x       y       z     vdW  Elec       q    Type
REMARK                         _______ _______ _______ _____ _____    ______ ____
ROOT
ATOM      2  O   UNL     1       0.966   2.251  25.785  0.00  0.00    -0.267 OA
ATOM      4  N   UNL     1      -4.021   1.985  25.325  0.00  0.00    -0.297 NA
ATOM      5  N   UNL     1      -1.025   2.930  24.777  0.00  0.00    -0.311 N 
ATOM      6  C   UNL     1      -2.902   4.101  26.070  0.00  0.00    +0.024 C 
ATOM      7  C   UNL     1      -3.169   3.658  23.676  0.00  0.00    +0.050 C 
ATOM      8  C   UNL     1      -3.212   4.760  24.732  0.00  0.00    +0.017 C 
ATOM      9  C   UNL     1      -3.947   3.007  26.375  0.00  0.00    +0.090 C 
ATOM     10  C   UNL     1      -4.237   2.589  24.001  0.00  0.00    +0.094 C 
ATOM     11  C   UNL     1      -1.469   3.554  26.032  0.00  0.00    +0.130 C 
ATOM     12  C   UNL     1      -1.790   3.027  23.613  0.00  0.00    +0.026 A 
ATOM     14  C   UNL     1      -1.314   2.548  22.451  0.00  0.00    +0.022 A 
ATOM     15  C   UNL     1       0.248   2.325  24.786  0.00  0.00    +0.259 A 
ATOM     16  C   UNL     1       0.739   1.767  23.478  0.00  0.00    +0.047 A 
ATOM     17  C   UNL     1      -0.033   1.905  22.390  0.00  0.00    +0.015 A 
ENDROOT
BRANCH  16  19
ATOM     19  C   UNL     1       2.037   1.075  23.382  0.00  0.00    -0.013 A 
ATOM     22  C   UNL     1       2.105  -0.308  23.555  0.00  0.00    +0.010 A 
ATOM     23  C   UNL     1       3.199   1.802  23.118  0.00  0.00    +0.010 A 
ATOM     27  C   UNL     1       3.334  -0.963  23.464  0.00  0.00    +0.015 A 
ATOM     28  C   UNL     1       4.427   1.147  23.027  0.00  0.00    +0.015 A 
ATOM     29  C   UNL     1       4.494  -0.236  23.200  0.00  0.00    +0.008 A 
BRANCH  29   1
ATOM      1  S   UNL     1       6.063  -1.072  23.086  0.00  0.00    -0.129 S 
ATOM     31  C   UNL     1       7.216   0.232  23.601  0.00  0.00    +0.090 C 
ENDBRANCH  29   1
ENDBRANCH  16  19
BRANCH   4  13
ATOM     13  C   UNL     1      -5.056   0.999  25.626  0.00  0.00    +0.119 C 
BRANCH  13  18
ATOM     18  C   UNL     1      -4.642  -0.390  25.221  0.00  0.00    -0.033 A 
ATOM     20  C   UNL     1      -3.804  -1.122  26.049  0.00  0.00    +0.008 A 
ATOM     21  C   UNL     1      -5.102  -0.918  24.023  0.00  0.00    +0.008 A 
ATOM     24  C   UNL     1      -3.419  -2.410  25.673  0.00  0.00    +0.046 A 
ATOM     25  C   UNL     1      -4.718  -2.205  23.647  0.00  0.00    +0.046 A 
ATOM     26  C   UNL     1      -3.876  -2.951  24.471  0.00  0.00    +0.120 A 
BRANCH  26   3
ATOM      3  O   UNL     1      -3.501  -4.207  24.106  0.00  0.00    -0.495 OA
ATOM     30  C   UNL     1      -2.422  -4.318  23.179  0.00  0.00    +0.277 C 
ENDBRANCH  26   3
ENDBRANCH  13  18
ENDBRANCH   4  13
TORSDOF 5
ENDMDL
MODEL 2
REMARK VINA RESULT:      11.5      2.048      5.154
REMARK  Name = 7144017
REMARK  7 active torsions:
REMARK  status: ('A' for Active; 'I' for Inactive)
REMARK    1  A    between atoms: S_1  and  C_29
REMARK    2  A    between atoms: S_1  and  C_31
REMARK    3  A    between atoms: O_3  and  C_26
REMARK    4  A    between atoms: O_3  and  C_30
REMARK    5  A    between atoms: N_4  and  C_13
REMARK    6  A    between atoms: C_13  and  C_18
REMARK    7  A    between atoms: C_16  and  C_19
REMARK                            x       y       z     vdW  Elec       q    Type
REMARK                         _______ _______ _______ _____ _____    ______ ____
ROOT
ATOM      2  O   UNL     1      -0.174  -0.978  22.144  0.00  0.00    -0.267 OA
ATOM      4  N   UNL     1      -4.204  -0.071  24.988  0.00  0.00    -0.297 NA
ATOM      5  N   UNL     1      -1.664  -1.609  23.823  0.00  0.00    -0.311 N 
ATOM      6  C   UNL     1      -4.158  -2.000  23.386  0.00  0.00    +0.024 C 
ATOM      7  C   UNL     1      -3.261  -2.289  25.647  0.00  0.00    +0.050 C 
ATOM      8  C   UNL     1      -4.056  -2.984  24.543  0.00  0.00    +0.017 C 
ATOM      9  C   UNL     1      -4.873  -0.712  23.849  0.00  0.00    +0.090 C 
ATOM     10  C   UNL     1      -4.011  -1.015  26.099  0.00  0.00    +0.094 C 
ATOM     11  C   UNL     1      -2.750  -1.729  22.840  0.00  0.00    +0.130 C 
ATOM     12  C   UNL     1      -1.865  -1.940  25.165  0.00  0.00    +0.026 A 
ATOM     14  C   UNL     1      -0.832  -1.931  26.024  0.00  0.00    +0.022 A 
ATOM     15  C   UNL     1      -0.397  -1.244  23.326  0.00  0.00    +0.259 A 
ATOM     16  C   UNL     1       0.733  -1.209  24.319  0.00  0.00    +0.047 A 
ATOM     17  C   UNL     1       0.483  -1.554  25.591  0.00  0.00    +0.015 A 
ENDROOT
BRANCH  16  19
ATOM     19  C   UNL     1       2.091  -0.799  23.917  0.00  0.00    -0.013 A 
ATOM     22  C   UNL     1       2.296   0.440  23.310  0.00  0.00    +0.010 A 
ATOM     23  C   UNL     1       3.173  -1.652  24.143  0.00  0.00    +0.010 A 
ATOM     27  C   UNL     1       3.581   0.828  22.930  0.00  0.00    +0.015 A 
ATOM     28  C   UNL     1       4.458  -1.264  23.763  0.00  0.00    +0.015 A 
ATOM     29  C   UNL     1       4.662  -0.024  23.157  0.00  0.00    +0.008 A 
BRANCH  29   1
ATOM      1  S   UNL     1       6.303   0.470  22.669  0.00  0.00    -0.129 S 
ATOM     31  C   UNL     1       7.183  -1.118  22.674  0.00  0.00    +0.090 C 
ENDBRANCH  29   1
ENDBRANCH  16  19
BRANCH   4  13
ATOM     13  C   UNL     1      -4.939   1.112  25.428  0.00  0.00    +0.119 C 
BRANCH  13  18
ATOM     18  C   UNL     1      -4.076   2.346  25.410  0.00  0.00    -0.033 A 
ATOM     20  C   UNL     1      -4.616   3.563  25.801  0.00  0.00    +0.008 A 
ATOM     21  C   UNL     1      -2.754   2.248  25.000  0.00  0.00    +0.008 A 
ATOM     24  C   UNL     1      -3.815   4.706  25.783  0.00  0.00    +0.046 A 
ATOM     25  C   UNL     1      -1.954   3.392  24.983  0.00  0.00    +0.046 A 
ATOM     26  C   UNL     1      -2.485   4.620  25.374  0.00  0.00    +0.120 A 
BRANCH  26   3
ATOM      3  O   UNL     1      -1.706   5.736  25.358  0.00  0.00    -0.495 OA
ATOM     30  C   UNL     1      -0.493   5.670  24.608  0.00  0.00    +0.277 C 
ENDBRANCH  26   3
ENDBRANCH  13  18
ENDBRANCH   4  13
TORSDOF 5
ENDMDL
