MODEL 1
REMARK VINA RESULT:       1.0      0.000      0.000
REMARK  Name = 40777129
REMARK  8 active torsions:
REMARK  status: ('A' for Active; 'I' for Inactive)
REMARK    1  A    between atoms: S_2  and  N_6
REMARK    2  A    between atoms: S_2  and  C_21
REMARK    3  A    between atoms: N_6  and  C_16
REMARK    4  A    between atoms: C_10  and  C_17
REMARK    5  A    between atoms: C_11  and  C_16
REMARK    6  A    between atoms: C_19  and  C_22
REMARK    7  A    between atoms: C_20  and  C_23
REMARK    8  A    between atoms: C_30  and  C_34
REMARK                            x       y       z     vdW  Elec       q    Type
REMARK                         _______ _______ _______ _____ _____    ______ ____
ROOT
ATOM      5  N   UNL     1      -2.004  -2.222  23.745  0.00  0.00    -0.297 NA
ATOM      9  C   UNL     1      -3.728  -1.880  25.667  0.00  0.00    +0.002 C 
ATOM     10  C   UNL     1      -3.960  -0.839  24.536  0.00  0.00    +0.055 C 
ATOM     11  C   UNL     1      -1.301  -2.169  25.054  0.00  0.00    +0.072 C 
ATOM     12  C   UNL     1      -2.277  -1.760  26.180  0.00  0.00    +0.024 C 
ATOM     13  C   UNL     1      -3.868  -3.275  25.023  0.00  0.00    +0.019 C 
ATOM     14  C   UNL     1      -2.779  -0.975  23.533  0.00  0.00    +0.094 C 
ATOM     15  C   UNL     1      -2.956  -3.357  23.788  0.00  0.00    +0.085 C 
ENDROOT
BRANCH  10  17
ATOM      7  N   UNL     1      -5.425   0.884  25.468  0.00  0.00    -0.237 NA
ATOM      8  N   UNL     1      -4.737   3.186  25.660  0.00  0.00    -0.232 NA
ATOM     17  C   UNL     1      -4.218   0.608  24.933  0.00  0.00    +0.050 A 
ATOM     18  C   UNL     1      -3.232   1.553  24.732  0.00  0.00    +0.052 A 
ATOM     19  C   UNL     1      -3.551   2.839  25.119  0.00  0.00    +0.076 A 
ATOM     20  C   UNL     1      -5.615   2.175  25.803  0.00  0.00    +0.127 A 
ATOM     23  C   UNL     1      -6.939   2.521  26.397  0.00  0.00    +0.088 C 
BRANCH  19  22
ATOM      1 BR   UNL     1      -0.582   2.211  26.129  0.00  0.00    -0.050 Br
ATOM     22  C   UNL     1      -2.609   3.920  24.961  0.00  0.00    +0.014 A 
ATOM     26  C   UNL     1      -1.275   3.801  25.354  0.00  0.00    +0.027 A 
ATOM     27  C   UNL     1      -3.066   5.110  24.398  0.00  0.00    +0.011 A 
ATOM     31  C   UNL     1      -0.399   4.874  25.181  0.00  0.00    +0.016 A 
ATOM     32  C   UNL     1      -2.191   6.183  24.224  0.00  0.00    +0.001 A 
ATOM     33  C   UNL     1      -0.857   6.065  24.617  0.00  0.00    +0.001 A 
ENDBRANCH  19  22
ENDBRANCH  10  17
BRANCH  11  16
ATOM     16  C   UNL     1      -0.065  -1.266  25.017  0.00  0.00    +0.124 C 
BRANCH  16   6
ATOM      6  N   UNL     1       0.635  -1.458  23.737  0.00  0.00    -0.188 NA
ATOM     35  H   UNL     1       1.194  -2.316  23.652  0.00  0.00    +0.148 HD
BRANCH   6   2
ATOM      2  S   UNL     1       1.124  -0.110  22.817  0.00  0.00    +0.058 S 
ATOM      3  O   UNL     1       0.584   1.097  23.413  0.00  0.00    -0.153 OA
ATOM      4  O   UNL     1       0.905  -0.390  21.411  0.00  0.00    -0.153 OA
BRANCH   2  21
ATOM     21  C   UNL     1       2.872  -0.111  23.078  0.00  0.00    +0.105 A 
ATOM     24  C   UNL     1       3.497  -1.241  23.608  0.00  0.00    +0.029 A 
ATOM     25  C   UNL     1       3.627   1.017  22.755  0.00  0.00    +0.029 A 
ATOM     28  C   UNL     1       4.876  -1.242  23.815  0.00  0.00    +0.005 A 
ATOM     29  C   UNL     1       5.006   1.015  22.962  0.00  0.00    +0.005 A 
ATOM     30  C   UNL     1       5.631  -0.115  23.492  0.00  0.00    -0.050 A 
ATOM     34  C   UNL     1       7.106  -0.117  23.713  0.00  0.00    +0.044 C 
ENDBRANCH   2  21
ENDBRANCH   6   2
ENDBRANCH  16   6
ENDBRANCH  11  16
TORSDOF 6
ENDMDL
MODEL 2
REMARK VINA RESULT:       1.4      1.463      4.981
REMARK  Name = 40777129
REMARK  8 active torsions:
REMARK  status: ('A' for Active; 'I' for Inactive)
REMARK    1  A    between atoms: S_2  and  N_6
REMARK    2  A    between atoms: S_2  and  C_21
REMARK    3  A    between atoms: N_6  and  C_16
REMARK    4  A    between atoms: C_10  and  C_17
REMARK    5  A    between atoms: C_11  and  C_16
REMARK    6  A    between atoms: C_19  and  C_22
REMARK    7  A    between atoms: C_20  and  C_23
REMARK    8  A    between atoms: C_30  and  C_34
REMARK                            x       y       z     vdW  Elec       q    Type
REMARK                         _______ _______ _______ _____ _____    ______ ____
ROOT
ATOM      5  N   UNL     1      -0.249   4.134  25.373  0.00  0.00    -0.297 NA
ATOM      9  C   UNL     1      -2.395   4.307  23.906  0.00  0.00    +0.002 C 
ATOM     10  C   UNL     1      -2.742   3.751  25.315  0.00  0.00    +0.055 C 
ATOM     11  C   UNL     1      -0.014   3.495  24.051  0.00  0.00    +0.072 C 
ATOM     12  C   UNL     1      -1.331   3.403  23.249  0.00  0.00    +0.024 C 
ATOM     13  C   UNL     1      -1.744   5.690  24.123  0.00  0.00    +0.019 C 
ATOM     14  C   UNL     1      -1.399   3.487  26.053  0.00  0.00    +0.094 C 
ATOM     15  C   UNL     1      -0.593   5.556  25.135  0.00  0.00    +0.085 C 
ENDROOT
BRANCH  10  17
ATOM      7  N   UNL     1      -4.923   2.810  25.900  0.00  0.00    -0.237 NA
ATOM      8  N   UNL     1      -5.439   0.476  25.592  0.00  0.00    -0.232 NA
ATOM     17  C   UNL     1      -3.693   2.564  25.405  0.00  0.00    +0.050 A 
ATOM     18  C   UNL     1      -3.267   1.320  24.988  0.00  0.00    +0.052 A 
ATOM     19  C   UNL     1      -4.192   0.303  25.106  0.00  0.00    +0.076 A 
ATOM     20  C   UNL     1      -5.734   1.736  25.966  0.00  0.00    +0.127 A 
ATOM     23  C   UNL     1      -7.103   1.966  26.509  0.00  0.00    +0.088 C 
BRANCH  19  22
ATOM      1 BR   UNL     1      -1.464  -0.855  26.306  0.00  0.00    -0.050 Br
ATOM     22  C   UNL     1      -3.871  -1.047  24.707  0.00  0.00    +0.014 A 
ATOM     26  C   UNL     1      -2.715  -1.692  25.147  0.00  0.00    +0.027 A 
ATOM     27  C   UNL     1      -4.757  -1.707  23.857  0.00  0.00    +0.011 A 
ATOM     31  C   UNL     1      -2.446  -2.998  24.736  0.00  0.00    +0.016 A 
ATOM     32  C   UNL     1      -4.489  -3.013  23.446  0.00  0.00    +0.001 A 
ATOM     33  C   UNL     1      -3.333  -3.658  23.885  0.00  0.00    +0.001 A 
ENDBRANCH  19  22
ENDBRANCH  10  17
BRANCH  11  16
ATOM     16  C   UNL     1       0.673   2.133  24.175  0.00  0.00    +0.124 C 
BRANCH  16   6
ATOM      6  N   UNL     1       0.688   1.477  22.858  0.00  0.00    -0.188 NA
ATOM     35  H   UNL     1       0.067   1.879  22.145  0.00  0.00    +0.148 HD
BRANCH   6   2
ATOM      2  S   UNL     1       1.054  -0.182  22.732  0.00  0.00    +0.058 S 
ATOM      3  O   UNL     1       0.847  -0.615  21.362  0.00  0.00    -0.153 OA
ATOM      4  O   UNL     1       0.420  -0.894  23.824  0.00  0.00    -0.153 OA
BRANCH   2  21
ATOM     21  C   UNL     1       2.793  -0.193  23.049  0.00  0.00    +0.105 A 
ATOM     24  C   UNL     1       3.566   0.924  22.728  0.00  0.00    +0.029 A 
ATOM     25  C   UNL     1       3.392  -1.316  23.620  0.00  0.00    +0.029 A 
ATOM     28  C   UNL     1       4.939   0.916  22.978  0.00  0.00    +0.005 A 
ATOM     29  C   UNL     1       4.764  -1.323  23.869  0.00  0.00    +0.005 A 
ATOM     30  C   UNL     1       5.538  -0.207  23.548  0.00  0.00    -0.050 A 
ATOM     34  C   UNL     1       7.005  -0.214  23.815  0.00  0.00    +0.044 C 
ENDBRANCH   2  21
ENDBRANCH   6   2
ENDBRANCH  16   6
ENDBRANCH  11  16
TORSDOF 6
ENDMDL
