MODEL 1
REMARK VINA RESULT:      -3.7      0.000      0.000
REMARK  Name = 75537146
REMARK  6 active torsions:
REMARK  status: ('A' for Active; 'I' for Inactive)
REMARK    1  A    between atoms: O_3  and  C_16
REMARK    2  A    between atoms: O_3  and  C_22
REMARK    3  A    between atoms: N_5  and  C_14
REMARK    4  A    between atoms: N_6  and  C_15
REMARK    5  A    between atoms: C_14  and  C_17
REMARK    6  A    between atoms: C_15  and  C_16
REMARK                            x       y       z     vdW  Elec       q    Type
REMARK                         _______ _______ _______ _____ _____    ______ ____
ROOT
ATOM      2  O   UNL     1      -2.615   3.639  25.449  0.00  0.00    -0.252 OA
ATOM      4  N   UNL     1      -1.333   1.801  24.745  0.00  0.00    -0.278 N 
ATOM      5  N   UNL     1       0.774   0.374  23.545  0.00  0.00    -0.295 NA
ATOM      6  N   UNL     1      -3.559   1.717  24.459  0.00  0.00    -0.281 N 
ATOM      8  C   UNL     1      -1.584   0.466  24.242  0.00  0.00    +0.109 C 
ATOM      9  C   UNL     1      -0.617   0.134  23.107  0.00  0.00    +0.109 C 
ATOM     10  C   UNL     1      -3.058   0.502  23.838  0.00  0.00    +0.133 C 
ATOM     11  C   UNL     1       0.024   2.193  25.064  0.00  0.00    +0.125 C 
ATOM     12  C   UNL     1       0.967   1.787  23.929  0.00  0.00    +0.104 C 
ATOM     13  C   UNL     1      -2.514   2.525  24.951  0.00  0.00    +0.305 C 
ENDROOT
BRANCH   5  14
ATOM     14  C   UNL     1       1.713   0.002  22.487  0.00  0.00    +0.122 C 
BRANCH  14  17
ATOM      1  F   UNL     1       3.712   2.035  22.438  0.00  0.00    -0.204 F 
ATOM      7  N   UNL     1       5.696  -0.561  24.009  0.00  0.00    -0.260 NA
ATOM     17  C   UNL     1       3.108  -0.193  23.018  0.00  0.00    +0.005 A 
ATOM     18  C   UNL     1       4.031   0.845  22.961  0.00  0.00    +0.146 A 
ATOM     19  C   UNL     1       3.477  -1.414  23.571  0.00  0.00    +0.027 A 
ATOM     20  C   UNL     1       5.300   0.613  23.465  0.00  0.00    +0.149 A 
ATOM     21  C   UNL     1       4.771  -1.547  24.048  0.00  0.00    +0.111 A 
ENDBRANCH  14  17
ENDBRANCH   5  14
BRANCH   6  15
ATOM     15  C   UNL     1      -4.958   2.079  24.415  0.00  0.00    +0.137 C 
BRANCH  15  16
ATOM     16  C   UNL     1      -5.662   1.742  25.716  0.00  0.00    +0.178 C 
BRANCH  16   3
ATOM      3  O   UNL     1      -5.905   2.938  26.445  0.00  0.00    -0.381 OA
ATOM     22  C   UNL     1      -5.855   4.081  25.604  0.00  0.00    +0.194 C 
ENDBRANCH  16   3
ENDBRANCH  15  16
ENDBRANCH   6  15
TORSDOF 5
ENDMDL
MODEL 2
REMARK VINA RESULT:      -3.3     15.424     18.027
REMARK  Name = 75537146
REMARK  6 active torsions:
REMARK  status: ('A' for Active; 'I' for Inactive)
REMARK    1  A    between atoms: O_3  and  C_16
REMARK    2  A    between atoms: O_3  and  C_22
REMARK    3  A    between atoms: N_5  and  C_14
REMARK    4  A    between atoms: N_6  and  C_15
REMARK    5  A    between atoms: C_14  and  C_17
REMARK    6  A    between atoms: C_15  and  C_16
REMARK                            x       y       z     vdW  Elec       q    Type
REMARK                         _______ _______ _______ _____ _____    ______ ____
ROOT
ATOM      2  O   UNL     1      15.109  -4.602  31.011  0.00  0.00    -0.252 OA
ATOM      4  N   UNL     1      13.304  -6.106  30.999  0.00  0.00    -0.278 N 
ATOM      5  N   UNL     1      11.131  -7.607  31.968  0.00  0.00    -0.295 NA
ATOM      6  N   UNL     1      15.197  -6.706  29.949  0.00  0.00    -0.281 N 
ATOM      8  C   UNL     1      12.982  -7.367  30.365  0.00  0.00    +0.109 C 
ATOM      9  C   UNL     1      12.283  -8.298  31.354  0.00  0.00    +0.109 C 
ATOM     10  C   UNL     1      14.331  -7.870  29.853  0.00  0.00    +0.133 C 
ATOM     11  C   UNL     1      12.283  -5.414  31.759  0.00  0.00    +0.125 C 
ATOM     12  C   UNL     1      11.569  -6.395  32.691  0.00  0.00    +0.104 C 
ATOM     13  C   UNL     1      14.599  -5.667  30.691  0.00  0.00    +0.305 C 
ENDROOT
BRANCH   5  14
ATOM     14  C   UNL     1      10.419  -8.509  32.873  0.00  0.00    +0.122 C 
BRANCH  14  17
ATOM      1  F   UNL     1       8.023  -6.963  32.871  0.00  0.00    -0.204 F 
ATOM      7  N   UNL     1       6.717  -9.886  31.170  0.00  0.00    -0.260 NA
ATOM     17  C   UNL     1       9.122  -8.989  32.278  0.00  0.00    +0.005 A 
ATOM     18  C   UNL     1       7.992  -8.179  32.314  0.00  0.00    +0.146 A 
ATOM     19  C   UNL     1       9.050 -10.247  31.689  0.00  0.00    +0.027 A 
ATOM     20  C   UNL     1       6.825  -8.669  31.751  0.00  0.00    +0.149 A 
ATOM     21  C   UNL     1       7.836 -10.645  31.154  0.00  0.00    +0.111 A 
ENDBRANCH  14  17
ENDBRANCH   5  14
BRANCH   6  15
ATOM     15  C   UNL     1      16.556  -6.720  29.457  0.00  0.00    +0.137 C 
BRANCH  15  16
ATOM     16  C   UNL     1      16.696  -5.904  28.185  0.00  0.00    +0.178 C 
BRANCH  16   3
ATOM      3  O   UNL     1      15.914  -6.496  27.156  0.00  0.00    -0.381 OA
ATOM     22  C   UNL     1      16.537  -7.659  26.630  0.00  0.00    +0.194 C 
ENDBRANCH  16   3
ENDBRANCH  15  16
ENDBRANCH   6  15
TORSDOF 5
ENDMDL
MODEL 3
REMARK VINA RESULT:      -2.8     16.039     17.047
REMARK  Name = 75537146
REMARK  6 active torsions:
REMARK  status: ('A' for Active; 'I' for Inactive)
REMARK    1  A    between atoms: O_3  and  C_16
REMARK    2  A    between atoms: O_3  and  C_22
REMARK    3  A    between atoms: N_5  and  C_14
REMARK    4  A    between atoms: N_6  and  C_15
REMARK    5  A    between atoms: C_14  and  C_17
REMARK    6  A    between atoms: C_15  and  C_16
REMARK                            x       y       z     vdW  Elec       q    Type
REMARK                         _______ _______ _______ _____ _____    ______ ____
ROOT
ATOM      2  O   UNL     1       8.576  -7.393  32.874  0.00  0.00    -0.252 OA
ATOM      4  N   UNL     1      10.895  -7.264  32.526  0.00  0.00    -0.278 N 
ATOM      5  N   UNL     1      13.347  -6.376  31.470  0.00  0.00    -0.295 NA
ATOM      6  N   UNL     1       9.943  -9.297  32.612  0.00  0.00    -0.281 N 
ATOM      8  C   UNL     1      12.008  -8.189  32.459  0.00  0.00    +0.109 C 
ATOM      9  C   UNL     1      12.960  -7.795  31.330  0.00  0.00    +0.109 C 
ATOM     10  C   UNL     1      11.337  -9.551  32.286  0.00  0.00    +0.133 C 
ATOM     11  C   UNL     1      11.157  -5.839  32.516  0.00  0.00    +0.125 C 
ATOM     12  C   UNL     1      12.160  -5.499  31.411  0.00  0.00    +0.104 C 
ATOM     13  C   UNL     1       9.668  -7.917  32.697  0.00  0.00    +0.305 C 
ENDROOT
BRANCH   5  14
ATOM     14  C   UNL     1      14.306  -6.005  30.429  0.00  0.00    +0.122 C 
BRANCH  14  17
ATOM      1  F   UNL     1      16.613  -5.153  28.987  0.00  0.00    -0.204 F 
ATOM      7  N   UNL     1      16.739  -2.664  31.621  0.00  0.00    -0.260 NA
ATOM     17  C   UNL     1      15.159  -4.837  30.844  0.00  0.00    +0.005 A 
ATOM     18  C   UNL     1      16.272  -4.478  30.091  0.00  0.00    +0.146 A 
ATOM     19  C   UNL     1      14.836  -4.110  31.985  0.00  0.00    +0.027 A 
ATOM     20  C   UNL     1      17.022  -3.395  30.518  0.00  0.00    +0.149 A 
ATOM     21  C   UNL     1      15.650  -3.043  32.328  0.00  0.00    +0.111 A 
ENDBRANCH  14  17
ENDBRANCH   5  14
BRANCH   6  15
ATOM     15  C   UNL     1       8.966 -10.360  32.679  0.00  0.00    +0.137 C 
BRANCH  15  16
ATOM     16  C   UNL     1       8.282 -10.573  31.341  0.00  0.00    +0.178 C 
BRANCH  16   3
ATOM      3  O   UNL     1       6.892 -10.781  31.549  0.00  0.00    -0.381 OA
ATOM     22  C   UNL     1       6.487 -10.351  32.841  0.00  0.00    +0.194 C 
ENDBRANCH  16   3
ENDBRANCH  15  16
ENDBRANCH   6  15
TORSDOF 5
ENDMDL
MODEL 4
REMARK VINA RESULT:      -2.8      3.707      7.879
REMARK  Name = 75537146
REMARK  6 active torsions:
REMARK  status: ('A' for Active; 'I' for Inactive)
REMARK    1  A    between atoms: O_3  and  C_16
REMARK    2  A    between atoms: O_3  and  C_22
REMARK    3  A    between atoms: N_5  and  C_14
REMARK    4  A    between atoms: N_6  and  C_15
REMARK    5  A    between atoms: C_14  and  C_17
REMARK    6  A    between atoms: C_15  and  C_16
REMARK                            x       y       z     vdW  Elec       q    Type
REMARK                         _______ _______ _______ _____ _____    ______ ____
ROOT
ATOM      2  O   UNL     1       1.210  -1.000  22.379  0.00  0.00    -0.252 OA
ATOM      4  N   UNL     1      -0.415  -0.509  24.003  0.00  0.00    -0.278 N 
ATOM      5  N   UNL     1      -2.956  -0.268  25.185  0.00  0.00    -0.295 NA
ATOM      6  N   UNL     1       1.231   0.980  23.660  0.00  0.00    -0.281 N 
ATOM      8  C   UNL     1      -0.625   0.504  25.016  0.00  0.00    +0.109 C 
ATOM      9  C   UNL     1      -2.093   0.925  25.052  0.00  0.00    +0.109 C 
ATOM     10  C   UNL     1       0.351   1.613  24.628  0.00  0.00    +0.133 C 
ATOM     11  C   UNL     1      -1.303  -1.652  23.949  0.00  0.00    +0.125 C 
ATOM     12  C   UNL     1      -2.759  -1.189  24.048  0.00  0.00    +0.104 C 
ATOM     13  C   UNL     1       0.737  -0.272  23.241  0.00  0.00    +0.305 C 
ENDROOT
BRANCH   5  14
ATOM     14  C   UNL     1      -4.361   0.128  25.281  0.00  0.00    +0.122 C 
BRANCH  14  17
ATOM      1  F   UNL     1      -6.215   1.720  26.751  0.00  0.00    -0.204 F 
ATOM      7  N   UNL     1      -4.875   4.352  24.650  0.00  0.00    -0.260 NA
ATOM     17  C   UNL     1      -4.543   1.606  25.062  0.00  0.00    +0.005 A 
ATOM     18  C   UNL     1      -5.468   2.319  25.817  0.00  0.00    +0.146 A 
ATOM     19  C   UNL     1      -3.784   2.266  24.101  0.00  0.00    +0.027 A 
ATOM     20  C   UNL     1      -5.594   3.677  25.575  0.00  0.00    +0.149 A 
ATOM     21  C   UNL     1      -3.985   3.626  23.934  0.00  0.00    +0.111 A 
ENDBRANCH  14  17
ENDBRANCH   5  14
BRANCH   6  15
ATOM     15  C   UNL     1       2.383   1.661  23.112  0.00  0.00    +0.137 C 
BRANCH  15  16
ATOM     16  C   UNL     1       3.476   0.682  22.724  0.00  0.00    +0.178 C 
BRANCH  16   3
ATOM      3  O   UNL     1       4.658   0.980  23.454  0.00  0.00    -0.381 OA
ATOM     22  C   UNL     1       5.376  -0.200  23.788  0.00  0.00    +0.194 C 
ENDBRANCH  16   3
ENDBRANCH  15  16
ENDBRANCH   6  15
TORSDOF 5
ENDMDL
MODEL 5
REMARK VINA RESULT:      -2.2     16.302     17.867
REMARK  Name = 75537146
REMARK  6 active torsions:
REMARK  status: ('A' for Active; 'I' for Inactive)
REMARK    1  A    between atoms: O_3  and  C_16
REMARK    2  A    between atoms: O_3  and  C_22
REMARK    3  A    between atoms: N_5  and  C_14
REMARK    4  A    between atoms: N_6  and  C_15
REMARK    5  A    between atoms: C_14  and  C_17
REMARK    6  A    between atoms: C_15  and  C_16
REMARK                            x       y       z     vdW  Elec       q    Type
REMARK                         _______ _______ _______ _____ _____    ______ ____
ROOT
ATOM      2  O   UNL     1      11.781  -5.352  31.724  0.00  0.00    -0.252 OA
ATOM      4  N   UNL     1      13.783  -6.472  31.217  0.00  0.00    -0.278 N 
ATOM      5  N   UNL     1      16.196  -7.069  29.901  0.00  0.00    -0.295 NA
ATOM      6  N   UNL     1      11.949  -7.703  31.628  0.00  0.00    -0.281 N 
ATOM      8  C   UNL     1      14.254  -7.841  31.201  0.00  0.00    +0.109 C 
ATOM      9  C   UNL     1      15.128  -8.089  29.973  0.00  0.00    +0.109 C 
ATOM     10  C   UNL     1      12.969  -8.667  31.251  0.00  0.00    +0.133 C 
ATOM     11  C   UNL     1      14.728  -5.395  31.005  0.00  0.00    +0.125 C 
ATOM     12  C   UNL     1      15.622  -5.712  29.804  0.00  0.00    +0.104 C 
ATOM     13  C   UNL     1      12.425  -6.378  31.549  0.00  0.00    +0.305 C 
ENDROOT
BRANCH   5  14
ATOM     14  C   UNL     1      17.076  -7.332  28.762  0.00  0.00    +0.122 C 
BRANCH  14  17
ATOM      1  F   UNL     1      15.654  -6.344  26.496  0.00  0.00    -0.204 F 
ATOM      7  N   UNL     1      15.203  -9.882  25.848  0.00  0.00    -0.260 NA
ATOM     17  C   UNL     1      16.420  -8.223  27.741  0.00  0.00    +0.005 A 
ATOM     18  C   UNL     1      15.742  -7.669  26.660  0.00  0.00    +0.146 A 
ATOM     19  C   UNL     1      16.490  -9.605  27.876  0.00  0.00    +0.027 A 
ATOM     20  C   UNL     1      15.157  -8.534  25.750  0.00  0.00    +0.149 A 
ATOM     21  C   UNL     1      15.871 -10.384  26.912  0.00  0.00    +0.111 A 
ENDBRANCH  14  17
ENDBRANCH   5  14
BRANCH   6  15
ATOM     15  C   UNL     1      10.584  -8.097  31.894  0.00  0.00    +0.137 C 
BRANCH  15  16
ATOM     16  C   UNL     1      10.487  -9.572  32.237  0.00  0.00    +0.178 C 
BRANCH  16   3
ATOM      3  O   UNL     1       9.276 -10.100  31.712  0.00  0.00    -0.381 OA
ATOM     22  C   UNL     1       8.156  -9.313  32.092  0.00  0.00    +0.194 C 
ENDBRANCH  16   3
ENDBRANCH  15  16
ENDBRANCH   6  15
TORSDOF 5
ENDMDL
MODEL 6
REMARK VINA RESULT:      -2.2     16.725     17.909
REMARK  Name = 75537146
REMARK  6 active torsions:
REMARK  status: ('A' for Active; 'I' for Inactive)
REMARK    1  A    between atoms: O_3  and  C_16
REMARK    2  A    between atoms: O_3  and  C_22
REMARK    3  A    between atoms: N_5  and  C_14
REMARK    4  A    between atoms: N_6  and  C_15
REMARK    5  A    between atoms: C_14  and  C_17
REMARK    6  A    between atoms: C_15  and  C_16
REMARK                            x       y       z     vdW  Elec       q    Type
REMARK                         _______ _______ _______ _____ _____    ______ ____
ROOT
ATOM      2  O   UNL     1      11.405  -4.404  32.500  0.00  0.00    -0.252 OA
ATOM      4  N   UNL     1      13.533  -5.371  32.271  0.00  0.00    -0.278 N 
ATOM      5  N   UNL     1      16.113  -5.827  31.247  0.00  0.00    -0.295 NA
ATOM      6  N   UNL     1      11.772  -6.733  32.569  0.00  0.00    -0.281 N 
ATOM      8  C   UNL     1      14.113  -6.693  32.389  0.00  0.00    +0.109 C 
ATOM      9  C   UNL     1      15.130  -6.929  31.274  0.00  0.00    +0.109 C 
ATOM     10  C   UNL     1      12.901  -7.624  32.360  0.00  0.00    +0.133 C 
ATOM     11  C   UNL     1      14.405  -4.229  32.089  0.00  0.00    +0.125 C 
ATOM     12  C   UNL     1      15.445  -4.532  31.007  0.00  0.00    +0.104 C 
ATOM     13  C   UNL     1      12.145  -5.378  32.457  0.00  0.00    +0.305 C 
ENDROOT
BRANCH   5  14
ATOM     14  C   UNL     1      17.128  -6.073  30.223  0.00  0.00    +0.122 C 
BRANCH  14  17
ATOM      1  F   UNL     1      17.405  -8.908  30.089  0.00  0.00    -0.204 F 
ATOM      7  N   UNL     1      15.587  -8.450  26.986  0.00  0.00    -0.260 NA
ATOM     17  C   UNL     1      16.590  -6.907  29.091  0.00  0.00    +0.005 A 
ATOM     18  C   UNL     1      16.763  -8.287  29.093  0.00  0.00    +0.146 A 
ATOM     19  C   UNL     1      15.916  -6.298  28.038  0.00  0.00    +0.027 A 
ATOM     20  C   UNL     1      16.247  -9.006  28.027  0.00  0.00    +0.149 A 
ATOM     21  C   UNL     1      15.438  -7.106  27.019  0.00  0.00    +0.111 A 
ENDBRANCH  14  17
ENDBRANCH   5  14
BRANCH   6  15
ATOM     15  C   UNL     1      10.423  -7.229  32.720  0.00  0.00    +0.137 C 
BRANCH  15  16
ATOM     16  C   UNL     1      10.306  -8.672  32.266  0.00  0.00    +0.178 C 
BRANCH  16   3
ATOM      3  O   UNL     1       8.941  -9.068  32.297  0.00  0.00    -0.381 OA
ATOM     22  C   UNL     1       8.761 -10.366  31.746  0.00  0.00    +0.194 C 
ENDBRANCH  16   3
ENDBRANCH  15  16
ENDBRANCH   6  15
TORSDOF 5
ENDMDL
MODEL 7
REMARK VINA RESULT:      -2.1      3.111      7.903
REMARK  Name = 75537146
REMARK  6 active torsions:
REMARK  status: ('A' for Active; 'I' for Inactive)
REMARK    1  A    between atoms: O_3  and  C_16
REMARK    2  A    between atoms: O_3  and  C_22
REMARK    3  A    between atoms: N_5  and  C_14
REMARK    4  A    between atoms: N_6  and  C_15
REMARK    5  A    between atoms: C_14  and  C_17
REMARK    6  A    between atoms: C_15  and  C_16
REMARK                            x       y       z     vdW  Elec       q    Type
REMARK                         _______ _______ _______ _____ _____    ______ ____
ROOT
ATOM      2  O   UNL     1       0.490  -1.491  23.864  0.00  0.00    -0.252 OA
ATOM      4  N   UNL     1      -0.084   0.624  24.712  0.00  0.00    -0.278 N 
ATOM      5  N   UNL     1      -1.703   2.774  25.528  0.00  0.00    -0.295 NA
ATOM      6  N   UNL     1       1.609   0.490  23.241  0.00  0.00    -0.281 N 
ATOM      8  C   UNL     1       0.450   1.969  24.650  0.00  0.00    +0.109 C 
ATOM      9  C   UNL     1      -0.681   2.983  24.482  0.00  0.00    +0.109 C 
ATOM     10  C   UNL     1       1.439   1.913  23.486  0.00  0.00    +0.133 C 
ATOM     11  C   UNL     1      -1.194   0.342  25.599  0.00  0.00    +0.125 C 
ATOM     12  C   UNL     1      -2.274   1.414  25.442  0.00  0.00    +0.104 C 
ATOM     13  C   UNL     1       0.653  -0.279  23.934  0.00  0.00    +0.305 C 
ENDROOT
BRANCH   5  14
ATOM     14  C   UNL     1      -2.761   3.778  25.414  0.00  0.00    +0.122 C 
BRANCH  14  17
ATOM      1  F   UNL     1      -3.720   2.563  23.019  0.00  0.00    -0.204 F 
ATOM      7  N   UNL     1      -6.651   1.974  25.071  0.00  0.00    -0.260 NA
ATOM     17  C   UNL     1      -4.122   3.147  25.292  0.00  0.00    +0.005 A 
ATOM     18  C   UNL     1      -4.523   2.572  24.090  0.00  0.00    +0.146 A 
ATOM     19  C   UNL     1      -4.985   3.135  26.383  0.00  0.00    +0.027 A 
ATOM     20  C   UNL     1      -5.785   2.004  24.032  0.00  0.00    +0.149 A 
ATOM     21  C   UNL     1      -6.226   2.542  26.223  0.00  0.00    +0.111 A 
ENDBRANCH  14  17
ENDBRANCH   5  14
BRANCH   6  15
ATOM     15  C   UNL     1       2.561  -0.012  22.276  0.00  0.00    +0.137 C 
BRANCH  15  16
ATOM     16  C   UNL     1       3.824   0.829  22.249  0.00  0.00    +0.178 C 
BRANCH  16   3
ATOM      3  O   UNL     1       4.436   0.803  23.531  0.00  0.00    -0.381 OA
ATOM     22  C   UNL     1       5.482  -0.157  23.591  0.00  0.00    +0.194 C 
ENDBRANCH  16   3
ENDBRANCH  15  16
ENDBRANCH   6  15
TORSDOF 5
ENDMDL
MODEL 8
REMARK VINA RESULT:      -1.7      3.231      5.371
REMARK  Name = 75537146
REMARK  6 active torsions:
REMARK  status: ('A' for Active; 'I' for Inactive)
REMARK    1  A    between atoms: O_3  and  C_16
REMARK    2  A    between atoms: O_3  and  C_22
REMARK    3  A    between atoms: N_5  and  C_14
REMARK    4  A    between atoms: N_6  and  C_15
REMARK    5  A    between atoms: C_14  and  C_17
REMARK    6  A    between atoms: C_15  and  C_16
REMARK                            x       y       z     vdW  Elec       q    Type
REMARK                         _______ _______ _______ _____ _____    ______ ____
ROOT
ATOM      2  O   UNL     1       0.000   4.149  23.114  0.00  0.00    -0.252 OA
ATOM      4  N   UNL     1       0.053   2.218  24.451  0.00  0.00    -0.278 N 
ATOM      5  N   UNL     1      -0.081  -0.508  25.132  0.00  0.00    -0.295 NA
ATOM      6  N   UNL     1      -1.049   4.017  25.222  0.00  0.00    -0.281 N 
ATOM      8  C   UNL     1      -0.352   1.848  25.791  0.00  0.00    +0.109 C 
ATOM      9  C   UNL     1      -0.986   0.458  25.791  0.00  0.00    +0.109 C 
ATOM     10  C   UNL     1      -1.288   2.980  26.212  0.00  0.00    +0.133 C 
ATOM     11  C   UNL     1       0.819   1.279  23.657  0.00  0.00    +0.125 C 
ATOM     12  C   UNL     1       0.184  -0.111  23.735  0.00  0.00    +0.104 C 
ATOM     13  C   UNL     1      -0.291   3.539  24.135  0.00  0.00    +0.305 C 
ENDROOT
BRANCH   5  14
ATOM     14  C   UNL     1      -0.652  -1.854  25.180  0.00  0.00    +0.122 C 
BRANCH  14  17
ATOM      1  F   UNL     1      -1.792  -3.754  23.386  0.00  0.00    -0.204 F 
ATOM      7  N   UNL     1      -4.809  -1.867  24.078  0.00  0.00    -0.260 NA
ATOM     17  C   UNL     1      -2.106  -1.860  24.793  0.00  0.00    +0.005 A 
ATOM     18  C   UNL     1      -2.593  -2.819  23.910  0.00  0.00    +0.146 A 
ATOM     19  C   UNL     1      -2.970  -0.906  25.318  0.00  0.00    +0.027 A 
ATOM     20  C   UNL     1      -3.939  -2.780  23.588  0.00  0.00    +0.149 A 
ATOM     21  C   UNL     1      -4.300  -0.951  24.933  0.00  0.00    +0.111 A 
ENDBRANCH  14  17
ENDBRANCH   5  14
BRANCH   6  15
ATOM     15  C   UNL     1      -1.664   5.322  25.316  0.00  0.00    +0.137 C 
BRANCH  15  16
ATOM     16  C   UNL     1      -3.152   5.217  25.597  0.00  0.00    +0.178 C 
BRANCH  16   3
ATOM      3  O   UNL     1      -3.739   4.286  24.699  0.00  0.00    -0.381 OA
ATOM     22  C   UNL     1      -4.796   3.563  25.313  0.00  0.00    +0.194 C 
ENDBRANCH  16   3
ENDBRANCH  15  16
ENDBRANCH   6  15
TORSDOF 5
ENDMDL
MODEL 9
REMARK VINA RESULT:      -1.5      3.858      5.423
REMARK  Name = 75537146
REMARK  6 active torsions:
REMARK  status: ('A' for Active; 'I' for Inactive)
REMARK    1  A    between atoms: O_3  and  C_16
REMARK    2  A    between atoms: O_3  and  C_22
REMARK    3  A    between atoms: N_5  and  C_14
REMARK    4  A    between atoms: N_6  and  C_15
REMARK    5  A    between atoms: C_14  and  C_17
REMARK    6  A    between atoms: C_15  and  C_16
REMARK                            x       y       z     vdW  Elec       q    Type
REMARK                         _______ _______ _______ _____ _____    ______ ____
ROOT
ATOM      2  O   UNL     1      -4.864   4.533  26.076  0.00  0.00    -0.252 OA
ATOM      4  N   UNL     1      -4.680   2.590  24.768  0.00  0.00    -0.278 N 
ATOM      5  N   UNL     1      -4.646  -0.148  24.123  0.00  0.00    -0.295 NA
ATOM      6  N   UNL     1      -3.170   4.225  24.464  0.00  0.00    -0.281 N 
ATOM      8  C   UNL     1      -3.881   2.142  23.646  0.00  0.00    +0.109 C 
ATOM      9  C   UNL     1      -3.459   0.687  23.841  0.00  0.00    +0.109 C 
ATOM     10  C   UNL     1      -2.727   3.143  23.600  0.00  0.00    +0.133 C 
ATOM     11  C   UNL     1      -5.782   1.769  25.226  0.00  0.00    +0.125 C 
ATOM     12  C   UNL     1      -5.332   0.311  25.348  0.00  0.00    +0.104 C 
ATOM     13  C   UNL     1      -4.312   3.868  25.209  0.00  0.00    +0.305 C 
ENDROOT
BRANCH   5  14
ATOM     14  C   UNL     1      -4.261  -1.554  24.251  0.00  0.00    +0.122 C 
BRANCH  14  17
ATOM      1  F   UNL     1      -2.504  -3.609  23.348  0.00  0.00    -0.204 F 
ATOM      7  N   UNL     1      -0.211  -1.979  25.636  0.00  0.00    -0.260 NA
ATOM     17  C   UNL     1      -2.844  -1.705  24.735  0.00  0.00    +0.005 A 
ATOM     18  C   UNL     1      -2.043  -2.733  24.249  0.00  0.00    +0.146 A 
ATOM     19  C   UNL     1      -2.329  -0.814  25.670  0.00  0.00    +0.027 A 
ATOM     20  C   UNL     1      -0.747  -2.826  24.727  0.00  0.00    +0.149 A 
ATOM     21  C   UNL     1      -1.019  -0.992  26.085  0.00  0.00    +0.111 A 
ENDBRANCH  14  17
ENDBRANCH   5  14
BRANCH   6  15
ATOM     15  C   UNL     1      -2.408   5.444  24.616  0.00  0.00    +0.137 C 
BRANCH  15  16
ATOM     16  C   UNL     1      -0.968   5.157  24.998  0.00  0.00    +0.178 C 
BRANCH  16   3
ATOM      3  O   UNL     1      -0.924   4.032  25.865  0.00  0.00    -0.381 OA
ATOM     22  C   UNL     1       0.060   3.094  25.454  0.00  0.00    +0.194 C 
ENDBRANCH  16   3
ENDBRANCH  15  16
ENDBRANCH   6  15
TORSDOF 5
ENDMDL
MODEL 10
REMARK VINA RESULT:      -1.5      3.328      7.022
REMARK  Name = 75537146
REMARK  6 active torsions:
REMARK  status: ('A' for Active; 'I' for Inactive)
REMARK    1  A    between atoms: O_3  and  C_16
REMARK    2  A    between atoms: O_3  and  C_22
REMARK    3  A    between atoms: N_5  and  C_14
REMARK    4  A    between atoms: N_6  and  C_15
REMARK    5  A    between atoms: C_14  and  C_17
REMARK    6  A    between atoms: C_15  and  C_16
REMARK                            x       y       z     vdW  Elec       q    Type
REMARK                         _______ _______ _______ _____ _____    ______ ____
ROOT
ATOM      2  O   UNL     1       0.892   3.252  25.583  0.00  0.00    -0.252 OA
ATOM      4  N   UNL     1      -1.063   2.417  24.584  0.00  0.00    -0.278 N 
ATOM      5  N   UNL     1      -3.665   1.366  24.382  0.00  0.00    -0.295 NA
ATOM      6  N   UNL     1       0.918   1.685  23.820  0.00  0.00    -0.281 N 
ATOM      8  C   UNL     1      -1.399   1.585  23.448  0.00  0.00    +0.109 C 
ATOM      9  C   UNL     1      -2.526   0.619  23.809  0.00  0.00    +0.109 C 
ATOM     10  C   UNL     1      -0.073   0.917  23.084  0.00  0.00    +0.133 C 
ATOM     11  C   UNL     1      -2.125   3.079  25.315  0.00  0.00    +0.125 C 
ATOM     12  C   UNL     1      -3.258   2.091  25.602  0.00  0.00    +0.104 C 
ATOM     13  C   UNL     1       0.320   2.545  24.764  0.00  0.00    +0.305 C 
ENDROOT
BRANCH   5  14
ATOM     14  C   UNL     1      -4.774   0.457  24.675  0.00  0.00    +0.122 C 
BRANCH  14  17
ATOM      1  F   UNL     1      -3.309  -0.844  26.747  0.00  0.00    -0.204 F 
ATOM      7  N   UNL     1      -3.562  -3.665  24.484  0.00  0.00    -0.260 NA
ATOM     17  C   UNL     1      -4.348  -0.985  24.610  0.00  0.00    +0.005 A 
ATOM     18  C   UNL     1      -3.635  -1.554  25.660  0.00  0.00    +0.146 A 
ATOM     19  C   UNL     1      -4.669  -1.756  23.498  0.00  0.00    +0.027 A 
ATOM     20  C   UNL     1      -3.269  -2.885  25.549  0.00  0.00    +0.149 A 
ATOM     21  C   UNL     1      -4.257  -3.078  23.483  0.00  0.00    +0.111 A 
ENDBRANCH  14  17
ENDBRANCH   5  14
BRANCH   6  15
ATOM     15  C   UNL     1       2.336   1.449  23.670  0.00  0.00    +0.137 C 
BRANCH  15  16
ATOM     16  C   UNL     1       2.615   0.358  22.652  0.00  0.00    +0.178 C 
BRANCH  16   3
ATOM      3  O   UNL     1       3.954   0.475  22.190  0.00  0.00    -0.381 OA
ATOM     22  C   UNL     1       4.885   0.387  23.259  0.00  0.00    +0.194 C 
ENDBRANCH  16   3
ENDBRANCH  15  16
ENDBRANCH   6  15
TORSDOF 5
ENDMDL
