MODEL 1
REMARK VINA RESULT:       0.4      0.000      0.000
REMARK  Name = 7049570
REMARK  13 active torsions:
REMARK  status: ('A' for Active; 'I' for Inactive)
REMARK    1  A    between atoms: S_1  and  C_21
REMARK    2  A    between atoms: S_1  and  C_27
REMARK    3  A    between atoms: O_7  and  C_23
REMARK    4  A    between atoms: O_7  and  C_28
REMARK    5  A    between atoms: N_10  and  C_13
REMARK    6  A    between atoms: N_11  and  C_19
REMARK    7  A    between atoms: N_12  and  C_26
REMARK    8  A    between atoms: C_14  and  C_17
REMARK    9  A    between atoms: C_18  and  C_21
REMARK   10  A    between atoms: C_19  and  C_20
REMARK   11  A    between atoms: C_19  and  C_23
REMARK   12  A    between atoms: C_20  and  C_24
REMARK   13  A    between atoms: C_20  and  C_25
REMARK                            x       y       z     vdW  Elec       q    Type
REMARK                         _______ _______ _______ _____ _____    ______ ____
ROOT
ATOM      5  O   UNL     1      -3.136  -0.939  26.129  0.00  0.00    -0.275 OA
ATOM      9  N   UNL     1      -2.983   0.190  24.113  0.00  0.00    -0.287 N 
ATOM     13  C   UNL     1      -1.472   1.806  23.259  0.00  0.00    +0.105 C 
ATOM     14  C   UNL     1      -1.992   1.170  24.549  0.00  0.00    +0.182 C 
ATOM     15  C   UNL     1      -2.650   1.664  22.292  0.00  0.00    +0.043 C 
ATOM     16  C   UNL     1      -3.296   0.345  22.696  0.00  0.00    +0.110 C 
ATOM     18  C   UNL     1      -3.421  -0.838  24.934  0.00  0.00    +0.226 C 
ENDROOT
BRANCH  13  10
ATOM      6  O   UNL     1       1.067   1.596  24.568  0.00  0.00    -0.252 OA
ATOM     10  N   UNL     1      -0.306   1.109  22.773  0.00  0.00    -0.294 N 
ATOM     12  N   UNL     1       1.847   0.314  22.764  0.00  0.00    -0.267 N 
ATOM     22  C   UNL     1       0.902   1.055  23.478  0.00  0.00    +0.304 C 
ATOM     34  H   UNL     1      -0.382   0.580  21.909  0.00  0.00    +0.151 HD
ATOM     36  H   UNL     1       1.551  -0.068  21.869  0.00  0.00    +0.156 HD
BRANCH  12  26
ATOM      2  F   UNL     1       3.862   2.228  22.553  0.00  0.00    -0.203 F 
ATOM      3  F   UNL     1       7.077  -0.820  24.210  0.00  0.00    -0.205 F 
ATOM     26  C   UNL     1       3.182   0.027  23.132  0.00  0.00    +0.070 A 
ATOM     29  C   UNL     1       4.168   1.007  23.014  0.00  0.00    +0.147 A 
ATOM     30  C   UNL     1       3.513  -1.240  23.614  0.00  0.00    +0.029 A 
ATOM     31  C   UNL     1       5.484   0.721  23.378  0.00  0.00    +0.078 A 
ATOM     32  C   UNL     1       4.829  -1.526  23.977  0.00  0.00    +0.040 A 
ATOM     33  C   UNL     1       5.815  -0.545  23.860  0.00  0.00    +0.126 A 
ENDBRANCH  12  26
ENDBRANCH  13  10
BRANCH  14  17
ATOM      4  O   UNL     1      -2.133   2.902  26.186  0.00  0.00    -0.274 OA
ATOM     11  N   UNL     1      -4.092   2.127  25.193  0.00  0.00    -0.301 N 
ATOM     17  C   UNL     1      -2.723   2.167  25.398  0.00  0.00    +0.236 C 
ATOM     35  H   UNL     1      -4.458   1.514  24.472  0.00  0.00    +0.150 HD
BRANCH  11  19
ATOM     19  C   UNL     1      -5.021   2.972  25.906  0.00  0.00    +0.184 C 
BRANCH  19  20
ATOM     20  C   UNL     1      -6.419   2.327  26.043  0.00  0.00    +0.014 C 
ATOM     24  C   UNL     1      -6.555   1.434  27.281  0.00  0.00    +0.009 C 
ATOM     25  C   UNL     1      -6.790   1.536  24.786  0.00  0.00    +0.009 C 
ENDBRANCH  19  20
BRANCH  19  23
ATOM      8  O   UNL     1      -5.903   5.211  25.674  0.00  0.00    -0.249 OA
ATOM     23  C   UNL     1      -5.112   4.360  25.281  0.00  0.00    +0.328 C 
BRANCH  23   7
ATOM      7  O   UNL     1      -4.228   4.525  24.258  0.00  0.00    -0.467 OA
ATOM     28  C   UNL     1      -3.085   5.335  24.547  0.00  0.00    +0.280 C 
ENDBRANCH  23   7
ENDBRANCH  19  23
ENDBRANCH  11  19
ENDBRANCH  14  17
BRANCH  18  21
ATOM     21  C   UNL     1      -4.305  -1.866  24.273  0.00  0.00    +0.164 C 
BRANCH  21   1
ATOM      1  S   UNL     1      -3.408  -3.424  24.246  0.00  0.00    -0.155 S 
ATOM     27  C   UNL     1      -1.719  -2.774  24.217  0.00  0.00    +0.085 C 
ENDBRANCH  21   1
ENDBRANCH  18  21
TORSDOF 9
ENDMDL
MODEL 2
REMARK VINA RESULT:       1.0      0.860      1.974
REMARK  Name = 7049570
REMARK  13 active torsions:
REMARK  status: ('A' for Active; 'I' for Inactive)
REMARK    1  A    between atoms: S_1  and  C_21
REMARK    2  A    between atoms: S_1  and  C_27
REMARK    3  A    between atoms: O_7  and  C_23
REMARK    4  A    between atoms: O_7  and  C_28
REMARK    5  A    between atoms: N_10  and  C_13
REMARK    6  A    between atoms: N_11  and  C_19
REMARK    7  A    between atoms: N_12  and  C_26
REMARK    8  A    between atoms: C_14  and  C_17
REMARK    9  A    between atoms: C_18  and  C_21
REMARK   10  A    between atoms: C_19  and  C_20
REMARK   11  A    between atoms: C_19  and  C_23
REMARK   12  A    between atoms: C_20  and  C_24
REMARK   13  A    between atoms: C_20  and  C_25
REMARK                            x       y       z     vdW  Elec       q    Type
REMARK                         _______ _______ _______ _____ _____    ______ ____
ROOT
ATOM      5  O   UNL     1      -3.184  -0.694  26.158  0.00  0.00    -0.275 OA
ATOM      9  N   UNL     1      -2.929   0.244  24.056  0.00  0.00    -0.287 N 
ATOM     13  C   UNL     1      -1.320   1.702  23.103  0.00  0.00    +0.105 C 
ATOM     14  C   UNL     1      -1.900   1.209  24.429  0.00  0.00    +0.182 C 
ATOM     15  C   UNL     1      -2.483   1.532  22.121  0.00  0.00    +0.043 C 
ATOM     16  C   UNL     1      -3.204   0.287  22.623  0.00  0.00    +0.110 C 
ATOM     18  C   UNL     1      -3.436  -0.685  24.952  0.00  0.00    +0.226 C 
ENDROOT
BRANCH  13  10
ATOM      6  O   UNL     1       1.268   1.696  24.330  0.00  0.00    -0.252 OA
ATOM     10  N   UNL     1      -0.181   0.907  22.709  0.00  0.00    -0.294 N 
ATOM     12  N   UNL     1       1.963   0.090  22.766  0.00  0.00    -0.267 N 
ATOM     22  C   UNL     1       1.054   0.965  23.366  0.00  0.00    +0.304 C 
ATOM     34  H   UNL     1      -0.297   0.230  21.963  0.00  0.00    +0.151 HD
ATOM     36  H   UNL     1       1.628  -0.446  21.969  0.00  0.00    +0.156 HD
BRANCH  12  26
ATOM      2  F   UNL     1       3.915   2.060  22.488  0.00  0.00    -0.203 F 
ATOM      3  F   UNL     1       7.238  -0.843  24.193  0.00  0.00    -0.205 F 
ATOM     26  C   UNL     1       3.309  -0.146  23.129  0.00  0.00    +0.070 A 
ATOM     29  C   UNL     1       4.263   0.861  22.978  0.00  0.00    +0.147 A 
ATOM     30  C   UNL     1       3.684  -1.389  23.639  0.00  0.00    +0.029 A 
ATOM     31  C   UNL     1       5.590   0.626  23.337  0.00  0.00    +0.078 A 
ATOM     32  C   UNL     1       5.011  -1.624  23.998  0.00  0.00    +0.040 A 
ATOM     33  C   UNL     1       5.964  -0.616  23.847  0.00  0.00    +0.126 A 
ENDBRANCH  12  26
ENDBRANCH  13  10
BRANCH  14  17
ATOM      4  O   UNL     1      -2.519   2.423  26.389  0.00  0.00    -0.274 OA
ATOM     11  N   UNL     1      -3.322   3.133  24.322  0.00  0.00    -0.301 N 
ATOM     17  C   UNL     1      -2.596   2.312  25.168  0.00  0.00    +0.236 C 
ATOM     35  H   UNL     1      -3.263   2.974  23.321  0.00  0.00    +0.150 HD
BRANCH  11  19
ATOM     19  C   UNL     1      -4.102   4.256  24.788  0.00  0.00    +0.184 C 
BRANCH  19  20
ATOM     20  C   UNL     1      -3.284   5.206  25.692  0.00  0.00    +0.014 C 
ATOM     24  C   UNL     1      -1.834   5.384  25.229  0.00  0.00    +0.009 C 
ATOM     25  C   UNL     1      -3.314   4.745  27.152  0.00  0.00    +0.009 C 
ENDBRANCH  19  20
BRANCH  19  23
ATOM      8  O   UNL     1      -6.291   4.579  25.762  0.00  0.00    -0.249 OA
ATOM     23  C   UNL     1      -5.384   3.804  25.478  0.00  0.00    +0.328 C 
BRANCH  23   7
ATOM      7  O   UNL     1      -5.388   2.466  25.734  0.00  0.00    -0.467 OA
ATOM     28  C   UNL     1      -6.337   1.692  24.992  0.00  0.00    +0.280 C 
ENDBRANCH  23   7
ENDBRANCH  19  23
ENDBRANCH  11  19
ENDBRANCH  14  17
BRANCH  18  21
ATOM     21  C   UNL     1      -4.358  -1.723  24.360  0.00  0.00    +0.164 C 
BRANCH  21   1
ATOM      1  S   UNL     1      -3.507  -3.306  24.417  0.00  0.00    -0.155 S 
ATOM     27  C   UNL     1      -1.801  -2.710  24.322  0.00  0.00    +0.085 C 
ENDBRANCH  21   1
ENDBRANCH  18  21
TORSDOF 9
ENDMDL
MODEL 3
REMARK VINA RESULT:       1.8      2.451      3.515
REMARK  Name = 7049570
REMARK  13 active torsions:
REMARK  status: ('A' for Active; 'I' for Inactive)
REMARK    1  A    between atoms: S_1  and  C_21
REMARK    2  A    between atoms: S_1  and  C_27
REMARK    3  A    between atoms: O_7  and  C_23
REMARK    4  A    between atoms: O_7  and  C_28
REMARK    5  A    between atoms: N_10  and  C_13
REMARK    6  A    between atoms: N_11  and  C_19
REMARK    7  A    between atoms: N_12  and  C_26
REMARK    8  A    between atoms: C_14  and  C_17
REMARK    9  A    between atoms: C_18  and  C_21
REMARK   10  A    between atoms: C_19  and  C_20
REMARK   11  A    between atoms: C_19  and  C_23
REMARK   12  A    between atoms: C_20  and  C_24
REMARK   13  A    between atoms: C_20  and  C_25
REMARK                            x       y       z     vdW  Elec       q    Type
REMARK                         _______ _______ _______ _____ _____    ______ ____
ROOT
ATOM      5  O   UNL     1      -0.485   3.517  25.324  0.00  0.00    -0.275 OA
ATOM      9  N   UNL     1      -1.207   1.317  25.329  0.00  0.00    -0.287 N 
ATOM     13  C   UNL     1      -1.461  -0.322  23.634  0.00  0.00    +0.105 C 
ATOM     14  C   UNL     1      -1.335   1.182  23.881  0.00  0.00    +0.182 C 
ATOM     15  C   UNL     1      -2.083  -0.845  24.931  0.00  0.00    +0.043 C 
ATOM     16  C   UNL     1      -1.494   0.057  26.008  0.00  0.00    +0.110 C 
ATOM     18  C   UNL     1      -0.717   2.468  25.927  0.00  0.00    +0.226 C 
ENDROOT
BRANCH  13  10
ATOM      6  O   UNL     1       1.090   0.937  23.971  0.00  0.00    -0.252 OA
ATOM     10  N   UNL     1      -0.167  -0.916  23.395  0.00  0.00    -0.294 N 
ATOM     12  N   UNL     1       2.121  -1.053  23.276  0.00  0.00    -0.267 N 
ATOM     22  C   UNL     1       1.037  -0.228  23.585  0.00  0.00    +0.304 C 
ATOM     34  H   UNL     1      -0.124  -1.897  23.138  0.00  0.00    +0.151 HD
ATOM     36  H   UNL     1       1.906  -1.998  22.966  0.00  0.00    +0.156 HD
BRANCH  12  26
ATOM      2  F   UNL     1       3.128   1.296  22.164  0.00  0.00    -0.203 F 
ATOM      3  F   UNL     1       7.520   0.180  23.521  0.00  0.00    -0.205 F 
ATOM     26  C   UNL     1       3.498  -0.736  23.337  0.00  0.00    +0.070 A 
ATOM     29  C   UNL     1       3.971   0.448  22.770  0.00  0.00    +0.147 A 
ATOM     30  C   UNL     1       4.385  -1.611  23.965  0.00  0.00    +0.029 A 
ATOM     31  C   UNL     1       5.329   0.757  22.833  0.00  0.00    +0.078 A 
ATOM     32  C   UNL     1       5.744  -1.302  24.026  0.00  0.00    +0.040 A 
ATOM     33  C   UNL     1       6.216  -0.117  23.460  0.00  0.00    +0.126 A 
ENDBRANCH  12  26
ENDBRANCH  13  10
BRANCH  14  17
ATOM      4  O   UNL     1      -2.793   2.277  22.340  0.00  0.00    -0.274 OA
ATOM     11  N   UNL     1      -3.429   2.116  24.575  0.00  0.00    -0.301 N 
ATOM     17  C   UNL     1      -2.589   1.909  23.494  0.00  0.00    +0.236 C 
ATOM     35  H   UNL     1      -3.177   1.715  25.471  0.00  0.00    +0.150 HD
BRANCH  11  19
ATOM     19  C   UNL     1      -4.690   2.813  24.471  0.00  0.00    +0.184 C 
BRANCH  19  20
ATOM     20  C   UNL     1      -4.663   4.189  25.173  0.00  0.00    +0.014 C 
ATOM     24  C   UNL     1      -3.721   4.234  26.381  0.00  0.00    +0.009 C 
ATOM     25  C   UNL     1      -6.069   4.627  25.590  0.00  0.00    +0.009 C 
ENDBRANCH  19  20
BRANCH  19  23
ATOM      8  O   UNL     1      -6.904   1.847  24.359  0.00  0.00    -0.249 OA
ATOM     23  C   UNL     1      -5.849   1.959  24.974  0.00  0.00    +0.328 C 
BRANCH  23   7
ATOM      7  O   UNL     1      -5.568   1.358  26.164  0.00  0.00    -0.467 OA
ATOM     28  C   UNL     1      -6.596   1.431  27.156  0.00  0.00    +0.280 C 
ENDBRANCH  23   7
ENDBRANCH  19  23
ENDBRANCH  11  19
ENDBRANCH  14  17
BRANCH  18  21
ATOM     21  C   UNL     1      -0.479   2.377  27.415  0.00  0.00    +0.164 C 
BRANCH  21   1
ATOM      1  S   UNL     1       1.260   2.724  27.712  0.00  0.00    -0.155 S 
ATOM     27  C   UNL     1       1.306   2.416  29.495  0.00  0.00    +0.085 C 
ENDBRANCH  21   1
ENDBRANCH  18  21
TORSDOF 9
ENDMDL
