MODEL 1
REMARK VINA RESULT:       1.5      0.000      0.000
REMARK  Name = 26742334
REMARK  9 active torsions:
REMARK  status: ('A' for Active; 'I' for Inactive)
REMARK    1  A    between atoms: O_2  and  C_22
REMARK    2  A    between atoms: O_2  and  C_29
REMARK    3  A    between atoms: N_4  and  C_19
REMARK    4  A    between atoms: N_5  and  C_16
REMARK    5  A    between atoms: N_7  and  C_24
REMARK    6  A    between atoms: C_9  and  C_15
REMARK    7  A    between atoms: C_10  and  C_16
REMARK    8  A    between atoms: C_18  and  C_21
REMARK    9  A    between atoms: C_24  and  C_28
REMARK                            x       y       z     vdW  Elec       q    Type
REMARK                         _______ _______ _______ _____ _____    ______ ____
ROOT
ATOM      3  N   UNL     1      -1.796   4.971  25.930  0.00  0.00    -0.297 NA
ATOM      8  C   UNL     1      -2.902   4.196  23.704  0.00  0.00    +0.002 C 
ATOM      9  C   UNL     1      -3.659   3.602  24.922  0.00  0.00    +0.055 C 
ATOM     10  C   UNL     1      -0.760   4.433  25.009  0.00  0.00    +0.074 C 
ATOM     11  C   UNL     1      -1.417   3.782  23.773  0.00  0.00    +0.024 C 
ATOM     12  C   UNL     1      -2.952   5.732  23.855  0.00  0.00    +0.019 C 
ATOM     13  C   UNL     1      -2.829   3.938  26.194  0.00  0.00    +0.094 C 
ATOM     14  C   UNL     1      -2.451   6.119  25.257  0.00  0.00    +0.085 C 
ENDROOT
BRANCH   9  15
ATOM      4  N   UNL     1      -5.303   1.694  25.237  0.00  0.00    -0.270 N 
ATOM      6  N   UNL     1      -5.463   0.365  25.119  0.00  0.00    -0.171 NA
ATOM     15  C   UNL     1      -4.067   2.136  24.870  0.00  0.00    +0.044 A 
ATOM     17  C   UNL     1      -3.368   1.018  24.484  0.00  0.00    +0.053 A 
ATOM     18  C   UNL     1      -4.277  -0.042  24.658  0.00  0.00    +0.096 A 
ATOM     19  C   UNL     1      -6.403   2.495  25.723  0.00  0.00    +0.172 C 
BRANCH  18  21
ATOM     21  C   UNL     1      -4.034  -1.437  24.395  0.00  0.00    +0.044 A 
ATOM     22  C   UNL     1      -2.942  -2.093  24.962  0.00  0.00    +0.129 A 
ATOM     23  C   UNL     1      -4.908  -2.132  23.559  0.00  0.00    +0.014 A 
ATOM     25  C   UNL     1      -2.724  -3.445  24.695  0.00  0.00    +0.046 A 
ATOM     26  C   UNL     1      -4.690  -3.483  23.291  0.00  0.00    +0.001 A 
ATOM     27  C   UNL     1      -3.598  -4.140  23.858  0.00  0.00    +0.004 A 
BRANCH  22   2
ATOM      2  O   UNL     1      -2.071  -1.439  25.782  0.00  0.00    -0.494 OA
ATOM     29  C   UNL     1      -0.680  -1.625  25.529  0.00  0.00    +0.277 C 
ENDBRANCH  22   2
ENDBRANCH  18  21
ENDBRANCH   9  15
BRANCH  10  16
ATOM     16  C   UNL     1       0.205   3.477  25.712  0.00  0.00    +0.124 C 
BRANCH  16   5
ATOM      1  O   UNL     1       1.926   2.469  23.642  0.00  0.00    -0.253 OA
ATOM      5  N   UNL     1       0.159   2.176  25.119  0.00  0.00    -0.298 N 
ATOM      7  N   UNL     1       0.777   0.452  23.709  0.00  0.00    -0.295 N 
ATOM     20  C   UNL     1       1.036   1.760  24.111  0.00  0.00    +0.300 C 
ATOM     35  H   UNL     1      -0.575   1.539  25.411  0.00  0.00    +0.150 HD
ATOM     36  H   UNL     1       0.035  -0.060  24.175  0.00  0.00    +0.151 HD
BRANCH   7  24
ATOM     24  C   UNL     1       1.535  -0.225  22.684  0.00  0.00    +0.141 C 
BRANCH  24  28
ATOM     28  C   UNL     1       2.995  -0.307  23.026  0.00  0.00    -0.030 A 
ATOM     30  C   UNL     1       3.500  -1.445  23.655  0.00  0.00    +0.005 A 
ATOM     31  C   UNL     1       3.845   0.753  22.715  0.00  0.00    +0.005 A 
ATOM     32  C   UNL     1       4.857  -1.522  23.973  0.00  0.00    +0.000 A 
ATOM     33  C   UNL     1       5.200   0.677  23.032  0.00  0.00    +0.000 A 
ATOM     34  C   UNL     1       5.707  -0.461  23.661  0.00  0.00    +0.000 A 
ENDBRANCH  24  28
ENDBRANCH   7  24
ENDBRANCH  16   5
ENDBRANCH  10  16
TORSDOF 7
ENDMDL
MODEL 2
REMARK VINA RESULT:       3.3      1.577      5.462
REMARK  Name = 26742334
REMARK  9 active torsions:
REMARK  status: ('A' for Active; 'I' for Inactive)
REMARK    1  A    between atoms: O_2  and  C_22
REMARK    2  A    between atoms: O_2  and  C_29
REMARK    3  A    between atoms: N_4  and  C_19
REMARK    4  A    between atoms: N_5  and  C_16
REMARK    5  A    between atoms: N_7  and  C_24
REMARK    6  A    between atoms: C_9  and  C_15
REMARK    7  A    between atoms: C_10  and  C_16
REMARK    8  A    between atoms: C_18  and  C_21
REMARK    9  A    between atoms: C_24  and  C_28
REMARK                            x       y       z     vdW  Elec       q    Type
REMARK                         _______ _______ _______ _____ _____    ______ ____
ROOT
ATOM      3  N   UNL     1      -3.255  -2.654  23.721  0.00  0.00    -0.297 NA
ATOM      8  C   UNL     1      -3.024  -1.572  26.079  0.00  0.00    +0.002 C 
ATOM      9  C   UNL     1      -3.966  -0.723  25.181  0.00  0.00    +0.055 C 
ATOM     10  C   UNL     1      -1.819  -2.541  24.090  0.00  0.00    +0.074 C 
ATOM     11  C   UNL     1      -1.653  -1.718  25.386  0.00  0.00    +0.024 C 
ATOM     12  C   UNL     1      -3.643  -2.984  26.163  0.00  0.00    +0.019 C 
ATOM     13  C   UNL     1      -3.893  -1.314  23.744  0.00  0.00    +0.094 C 
ATOM     14  C   UNL     1      -3.921  -3.500  24.741  0.00  0.00    +0.085 C 
ENDROOT
BRANCH   9  15
ATOM      4  N   UNL     1      -4.834   1.651  25.408  0.00  0.00    -0.270 N 
ATOM      6  N   UNL     1      -4.478   2.946  25.377  0.00  0.00    -0.171 NA
ATOM     15  C   UNL     1      -3.799   0.790  25.192  0.00  0.00    +0.044 A 
ATOM     17  C   UNL     1      -2.688   1.576  25.007  0.00  0.00    +0.053 A 
ATOM     18  C   UNL     1      -3.166   2.895  25.131  0.00  0.00    +0.096 A 
ATOM     19  C   UNL     1      -6.215   1.304  25.653  0.00  0.00    +0.172 C 
BRANCH  18  21
ATOM     21  C   UNL     1      -2.395   4.105  25.019  0.00  0.00    +0.044 A 
ATOM     22  C   UNL     1      -1.005   4.060  24.908  0.00  0.00    +0.129 A 
ATOM     23  C   UNL     1      -3.055   5.333  25.024  0.00  0.00    +0.014 A 
ATOM     25  C   UNL     1      -0.275   5.245  24.800  0.00  0.00    +0.046 A 
ATOM     26  C   UNL     1      -2.325   6.517  24.917  0.00  0.00    +0.001 A 
ATOM     27  C   UNL     1      -0.936   6.473  24.805  0.00  0.00    +0.004 A 
BRANCH  22   2
ATOM      2  O   UNL     1      -0.333   2.874  24.901  0.00  0.00    -0.494 OA
ATOM     29  C   UNL     1       0.230   2.442  26.138  0.00  0.00    +0.277 C 
ENDBRANCH  22   2
ENDBRANCH  18  21
ENDBRANCH   9  15
BRANCH  10  16
ATOM     16  C   UNL     1      -0.966  -1.985  22.948  0.00  0.00    +0.124 C 
BRANCH  16   5
ATOM      1  O   UNL     1       1.392  -0.958  21.664  0.00  0.00    -0.253 OA
ATOM      5  N   UNL     1      -0.145  -0.905  23.403  0.00  0.00    -0.298 N 
ATOM      7  N   UNL     1       1.610   0.599  23.373  0.00  0.00    -0.295 N 
ATOM     20  C   UNL     1       0.993  -0.463  22.717  0.00  0.00    +0.300 C 
ATOM     35  H   UNL     1      -0.372  -0.468  24.290  0.00  0.00    +0.150 HD
ATOM     36  H   UNL     1       1.188   0.953  24.226  0.00  0.00    +0.151 HD
BRANCH   7  24
ATOM     24  C   UNL     1       2.803   1.245  22.882  0.00  0.00    +0.141 C 
BRANCH  24  28
ATOM     28  C   UNL     1       4.048   0.507  23.283  0.00  0.00    -0.030 A 
ATOM     30  C   UNL     1       3.989  -0.859  23.561  0.00  0.00    +0.005 A 
ATOM     31  C   UNL     1       5.262   1.186  23.378  0.00  0.00    +0.005 A 
ATOM     32  C   UNL     1       5.146  -1.545  23.933  0.00  0.00    +0.000 A 
ATOM     33  C   UNL     1       6.418   0.501  23.750  0.00  0.00    +0.000 A 
ATOM     34  C   UNL     1       6.360  -0.865  24.028  0.00  0.00    +0.000 A 
ENDBRANCH  24  28
ENDBRANCH   7  24
ENDBRANCH  16   5
ENDBRANCH  10  16
TORSDOF 7
ENDMDL
MODEL 3
REMARK VINA RESULT:       5.5      1.562      5.469
REMARK  Name = 26742334
REMARK  9 active torsions:
REMARK  status: ('A' for Active; 'I' for Inactive)
REMARK    1  A    between atoms: O_2  and  C_22
REMARK    2  A    between atoms: O_2  and  C_29
REMARK    3  A    between atoms: N_4  and  C_19
REMARK    4  A    between atoms: N_5  and  C_16
REMARK    5  A    between atoms: N_7  and  C_24
REMARK    6  A    between atoms: C_9  and  C_15
REMARK    7  A    between atoms: C_10  and  C_16
REMARK    8  A    between atoms: C_18  and  C_21
REMARK    9  A    between atoms: C_24  and  C_28
REMARK                            x       y       z     vdW  Elec       q    Type
REMARK                         _______ _______ _______ _____ _____    ______ ____
ROOT
ATOM      3  N   UNL     1      -4.086   4.827  25.074  0.00  0.00    -0.297 NA
ATOM      8  C   UNL     1      -2.754   3.496  26.873  0.00  0.00    +0.002 C 
ATOM      9  C   UNL     1      -1.812   3.946  25.723  0.00  0.00    +0.055 C 
ATOM     10  C   UNL     1      -4.785   3.552  25.383  0.00  0.00    +0.074 C 
ATOM     11  C   UNL     1      -3.910   2.658  26.289  0.00  0.00    +0.024 C 
ATOM     12  C   UNL     1      -3.377   4.779  27.466  0.00  0.00    +0.019 C 
ATOM     13  C   UNL     1      -2.706   4.550  24.602  0.00  0.00    +0.094 C 
ATOM     14  C   UNL     1      -3.995   5.612  26.330  0.00  0.00    +0.085 C 
ENDROOT
BRANCH   9  15
ATOM      4  N   UNL     1       0.230   2.452  25.918  0.00  0.00    -0.270 N 
ATOM      6  N   UNL     1       1.003   1.575  25.256  0.00  0.00    -0.171 NA
ATOM     15  C   UNL     1      -0.808   2.940  25.181  0.00  0.00    +0.044 A 
ATOM     17  C   UNL     1      -0.708   2.339  23.950  0.00  0.00    +0.053 A 
ATOM     18  C   UNL     1       0.425   1.509  24.054  0.00  0.00    +0.096 A 
ATOM     19  C   UNL     1       0.556   2.787  27.286  0.00  0.00    +0.172 C 
BRANCH  18  21
ATOM     21  C   UNL     1       0.966   0.657  23.027  0.00  0.00    +0.044 A 
ATOM     22  C   UNL     1       2.335   0.638  22.762  0.00  0.00    +0.129 A 
ATOM     23  C   UNL     1       0.102  -0.156  22.294  0.00  0.00    +0.014 A 
ATOM     25  C   UNL     1       2.841  -0.196  21.763  0.00  0.00    +0.046 A 
ATOM     26  C   UNL     1       0.607  -0.988  21.295  0.00  0.00    +0.001 A 
ATOM     27  C   UNL     1       1.976  -1.008  21.030  0.00  0.00    +0.004 A 
BRANCH  22   2
ATOM      2  O   UNL     1       3.203   1.421  23.463  0.00  0.00    -0.494 OA
ATOM     29  C   UNL     1       4.579   1.047  23.435  0.00  0.00    +0.277 C 
ENDBRANCH  22   2
ENDBRANCH  18  21
ENDBRANCH   9  15
BRANCH  10  16
ATOM     16  C   UNL     1      -5.237   2.815  24.121  0.00  0.00    +0.124 C 
BRANCH  16   5
ATOM      1  O   UNL     1      -3.431   0.689  23.429  0.00  0.00    -0.253 OA
ATOM      5  N   UNL     1      -5.418   1.420  24.381  0.00  0.00    -0.298 N 
ATOM      7  N   UNL     1      -4.905  -0.833  24.381  0.00  0.00    -0.295 N 
ATOM     20  C   UNL     1      -4.487   0.443  24.011  0.00  0.00    +0.300 C 
ATOM     35  H   UNL     1      -6.284   1.120  24.816  0.00  0.00    +0.150 HD
ATOM     36  H   UNL     1      -5.783  -0.930  24.880  0.00  0.00    +0.151 HD
BRANCH   7  24
ATOM     24  C   UNL     1      -4.133  -2.025  24.119  0.00  0.00    +0.141 C 
BRANCH  24  28
ATOM     28  C   UNL     1      -2.747  -1.933  24.690  0.00  0.00    -0.030 A 
ATOM     30  C   UNL     1      -2.474  -1.029  25.717  0.00  0.00    +0.005 A 
ATOM     31  C   UNL     1      -1.732  -2.752  24.194  0.00  0.00    +0.005 A 
ATOM     32  C   UNL     1      -1.187  -0.945  26.248  0.00  0.00    +0.000 A 
ATOM     33  C   UNL     1      -0.446  -2.668  24.725  0.00  0.00    +0.000 A 
ATOM     34  C   UNL     1      -0.173  -1.764  25.752  0.00  0.00    +0.000 A 
ENDBRANCH  24  28
ENDBRANCH   7  24
ENDBRANCH  16   5
ENDBRANCH  10  16
TORSDOF 7
ENDMDL
