MODEL 1
REMARK VINA RESULT:      -4.6      0.000      0.000
REMARK  Name = 45784114
REMARK  12 active torsions:
REMARK  status: ('A' for Active; 'I' for Inactive)
REMARK    1  A    between atoms: N_3  and  C_15
REMARK    2  A    between atoms: N_3  and  C_21
REMARK    3  A    between atoms: N_7  and  C_27
REMARK    4  A    between atoms: C_8  and  C_12
REMARK    5  A    between atoms: C_9  and  C_15
REMARK    6  A    between atoms: C_11  and  C_16
REMARK    7  A    between atoms: C_12  and  C_17
REMARK    8  A    between atoms: C_12  and  C_18
REMARK    9  A    between atoms: C_13  and  C_19
REMARK   10  A    between atoms: C_16  and  C_20
REMARK   11  A    between atoms: C_22  and  C_26
REMARK   12  A    between atoms: C_28  and  C_29
REMARK                            x       y       z     vdW  Elec       q    Type
REMARK                         _______ _______ _______ _____ _____    ______ ____
ROOT
ATOM      8  C   UNL     1      -3.874   0.379  25.001  0.00  0.00    +0.000 C 
ATOM      9  C   UNL     1      -3.089   0.397  23.666  0.00  0.00    +0.032 C 
ATOM     10  C   UNL     1      -5.171   1.191  24.872  0.00  0.00    +0.012 C 
ATOM     11  C   UNL     1      -4.906   2.657  24.482  0.00  0.00    +0.024 C 
ATOM     13  C   UNL     1      -3.923   2.764  23.333  0.00  0.00    -0.073 C 
ATOM     14  C   UNL     1      -3.129   1.740  22.974  0.00  0.00    -0.022 C 
ATOM     19  C   UNL     1      -3.906   4.063  22.576  0.00  0.00    +0.039 C 
ENDROOT
BRANCH   8  12
ATOM     12  C   UNL     1      -4.197  -1.049  25.452  0.00  0.00    -0.013 C 
ATOM     17  C   UNL     1      -4.258  -1.985  24.249  0.00  0.00    +0.007 C 
ATOM     18  C   UNL     1      -3.164  -1.535  26.464  0.00  0.00    +0.007 C 
ENDBRANCH   8  12
BRANCH   9  15
ATOM     15  C   UNL     1      -1.631  -0.027  23.874  0.00  0.00    +0.109 C 
BRANCH  15   3
ATOM      3  N   UNL     1      -0.759   0.945  23.273  0.00  0.00    -0.342 N 
ATOM     30  H   UNL     1      -1.143   1.814  22.920  0.00  0.00    +0.146 HD
BRANCH   3  21
ATOM      6  N   UNL     1       2.864   1.556  23.424  0.00  0.00    -0.238 NA
ATOM     21  C   UNL     1       0.606   0.756  23.094  0.00  0.00    +0.046 A 
ATOM     23  C   UNL     1       1.092  -0.368  22.434  0.00  0.00    +0.028 A 
ATOM     24  C   UNL     1       1.525   1.679  23.566  0.00  0.00    +0.135 A 
ATOM     25  C   UNL     1       2.464  -0.531  22.269  0.00  0.00    +0.045 A 
ATOM     27  C   UNL     1       3.299   0.450  22.778  0.00  0.00    +0.125 A 
BRANCH  27   7
ATOM      2  O   UNL     1       5.397  -0.540  24.698  0.00  0.00    -0.276 OA
ATOM      7  N   UNL     1       4.678   0.277  22.608  0.00  0.00    -0.271 N 
ATOM     28  C   UNL     1       5.608  -0.190  23.541  0.00  0.00    +0.215 C 
ATOM     29  C   UNL     1       7.001  -0.234  22.963  0.00  0.00    +0.109 C 
ATOM     31  H   UNL     1       5.039   0.523  21.689  0.00  0.00    +0.156 HD
ENDBRANCH  27   7
ENDBRANCH   3  21
ENDBRANCH  15   3
ENDBRANCH   9  15
BRANCH  11  16
ATOM     16  C   UNL     1      -4.430   3.472  25.689  0.00  0.00    +0.105 C 
BRANCH  16  20
ATOM      1  O   UNL     1      -2.151   2.744  26.167  0.00  0.00    -0.425 OA
ATOM      4  N   UNL     1      -2.283   4.736  25.156  0.00  0.00    -0.112 NA
ATOM      5  N   UNL     1      -0.947   4.452  25.366  0.00  0.00    -0.113 NA
ATOM     20  C   UNL     1      -2.948   3.713  25.639  0.00  0.00    +0.218 A 
ATOM     22  C   UNL     1      -0.916   3.280  25.957  0.00  0.00    +0.214 A 
ATOM     26  C   UNL     1       0.235   2.492  26.414  0.00  0.00    +0.111 C 
ENDBRANCH  16  20
ENDBRANCH  11  16
TORSDOF 7
ENDMDL
MODEL 2
REMARK VINA RESULT:      -4.1      2.165      4.620
REMARK  Name = 45784114
REMARK  12 active torsions:
REMARK  status: ('A' for Active; 'I' for Inactive)
REMARK    1  A    between atoms: N_3  and  C_15
REMARK    2  A    between atoms: N_3  and  C_21
REMARK    3  A    between atoms: N_7  and  C_27
REMARK    4  A    between atoms: C_8  and  C_12
REMARK    5  A    between atoms: C_9  and  C_15
REMARK    6  A    between atoms: C_11  and  C_16
REMARK    7  A    between atoms: C_12  and  C_17
REMARK    8  A    between atoms: C_12  and  C_18
REMARK    9  A    between atoms: C_13  and  C_19
REMARK   10  A    between atoms: C_16  and  C_20
REMARK   11  A    between atoms: C_22  and  C_26
REMARK   12  A    between atoms: C_28  and  C_29
REMARK                            x       y       z     vdW  Elec       q    Type
REMARK                         _______ _______ _______ _____ _____    ______ ____
ROOT
ATOM      8  C   UNL     1      -3.747   2.501  24.157  0.00  0.00    +0.000 C 
ATOM      9  C   UNL     1      -4.549   3.671  24.779  0.00  0.00    +0.032 C 
ATOM     10  C   UNL     1      -4.654   1.277  23.955  0.00  0.00    +0.012 C 
ATOM     11  C   UNL     1      -5.281   0.791  25.276  0.00  0.00    +0.024 C 
ATOM     13  C   UNL     1      -5.860   1.938  26.079  0.00  0.00    -0.073 C 
ATOM     14  C   UNL     1      -5.533   3.219  25.834  0.00  0.00    -0.022 C 
ATOM     19  C   UNL     1      -6.863   1.582  27.141  0.00  0.00    +0.039 C 
ENDROOT
BRANCH   8  12
ATOM     12  C   UNL     1      -3.106   2.897  22.824  0.00  0.00    -0.013 C 
ATOM     17  C   UNL     1      -2.406   1.697  22.193  0.00  0.00    +0.007 C 
ATOM     18  C   UNL     1      -4.155   3.470  21.877  0.00  0.00    +0.007 C 
ENDBRANCH   8  12
BRANCH   9  15
ATOM     15  C   UNL     1      -3.613   4.729  25.374  0.00  0.00    +0.109 C 
BRANCH  15   3
ATOM      3  N   UNL     1      -2.570   4.081  26.121  0.00  0.00    -0.342 N 
ATOM     30  H   UNL     1      -2.575   4.127  27.134  0.00  0.00    +0.146 HD
BRANCH   3  21
ATOM      6  N   UNL     1       0.357   3.446  23.988  0.00  0.00    -0.238 NA
ATOM     21  C   UNL     1      -1.498   3.416  25.539  0.00  0.00    +0.046 A 
ATOM     23  C   UNL     1      -1.194   2.105  25.889  0.00  0.00    +0.028 A 
ATOM     24  C   UNL     1      -0.699   4.036  24.592  0.00  0.00    +0.135 A 
ATOM     25  C   UNL     1      -0.114   1.463  25.289  0.00  0.00    +0.045 A 
ATOM     27  C   UNL     1       0.622   2.171  24.354  0.00  0.00    +0.125 A 
BRANCH  27   7
ATOM      2  O   UNL     1       0.706  -0.262  22.581  0.00  0.00    -0.276 OA
ATOM      7  N   UNL     1       1.707   1.519  23.757  0.00  0.00    -0.271 N 
ATOM     28  C   UNL     1       1.685   0.386  22.938  0.00  0.00    +0.215 C 
ATOM     29  C   UNL     1       3.073  -0.003  22.491  0.00  0.00    +0.109 C 
ATOM     31  H   UNL     1       2.620   1.926  23.947  0.00  0.00    +0.156 HD
ENDBRANCH  27   7
ENDBRANCH   3  21
ENDBRANCH  15   3
ENDBRANCH   9  15
BRANCH  11  16
ATOM     16  C   UNL     1      -4.268  -0.004  26.107  0.00  0.00    +0.105 C 
BRANCH  16  20
ATOM      1  O   UNL     1      -2.275  -1.259  25.471  0.00  0.00    -0.425 OA
ATOM      4  N   UNL     1      -4.136  -1.894  24.404  0.00  0.00    -0.112 NA
ATOM      5  N   UNL     1      -3.093  -2.680  23.949  0.00  0.00    -0.113 NA
ATOM     20  C   UNL     1      -3.612  -1.079  25.290  0.00  0.00    +0.218 A 
ATOM     22  C   UNL     1      -2.027  -2.275  24.599  0.00  0.00    +0.214 A 
ATOM     26  C   UNL     1      -0.642  -2.754  24.515  0.00  0.00    +0.111 C 
ENDBRANCH  16  20
ENDBRANCH  11  16
TORSDOF 7
ENDMDL
MODEL 3
REMARK VINA RESULT:      -1.9      2.204      4.025
REMARK  Name = 45784114
REMARK  12 active torsions:
REMARK  status: ('A' for Active; 'I' for Inactive)
REMARK    1  A    between atoms: N_3  and  C_15
REMARK    2  A    between atoms: N_3  and  C_21
REMARK    3  A    between atoms: N_7  and  C_27
REMARK    4  A    between atoms: C_8  and  C_12
REMARK    5  A    between atoms: C_9  and  C_15
REMARK    6  A    between atoms: C_11  and  C_16
REMARK    7  A    between atoms: C_12  and  C_17
REMARK    8  A    between atoms: C_12  and  C_18
REMARK    9  A    between atoms: C_13  and  C_19
REMARK   10  A    between atoms: C_16  and  C_20
REMARK   11  A    between atoms: C_22  and  C_26
REMARK   12  A    between atoms: C_28  and  C_29
REMARK                            x       y       z     vdW  Elec       q    Type
REMARK                         _______ _______ _______ _____ _____    ______ ____
ROOT
ATOM      8  C   UNL     1      -1.144   1.327  24.701  0.00  0.00    +0.000 C 
ATOM      9  C   UNL     1      -0.221   0.145  24.312  0.00  0.00    +0.032 C 
ATOM     10  C   UNL     1      -2.112   0.908  25.818  0.00  0.00    +0.012 C 
ATOM     11  C   UNL     1      -2.995  -0.285  25.407  0.00  0.00    +0.024 C 
ATOM     13  C   UNL     1      -2.183  -1.391  24.764  0.00  0.00    -0.073 C 
ATOM     14  C   UNL     1      -0.940  -1.184  24.294  0.00  0.00    -0.022 C 
ATOM     19  C   UNL     1      -2.814  -2.755  24.717  0.00  0.00    +0.039 C 
ENDROOT
BRANCH   8  12
ATOM     12  C   UNL     1      -0.340   2.554  25.144  0.00  0.00    -0.013 C 
ATOM     17  C   UNL     1      -1.180   3.819  25.007  0.00  0.00    +0.007 C 
ATOM     18  C   UNL     1       0.147   2.381  26.579  0.00  0.00    +0.007 C 
ENDBRANCH   8  12
BRANCH   9  15
ATOM     15  C   UNL     1       0.444   0.385  22.953  0.00  0.00    +0.109 C 
BRANCH  15   3
ATOM      3  N   UNL     1       1.475  -0.595  22.744  0.00  0.00    -0.342 N 
ATOM     30  H   UNL     1       1.226  -1.528  22.436  0.00  0.00    +0.146 HD
BRANCH   3  21
ATOM      6  N   UNL     1       4.930  -1.157  23.872  0.00  0.00    -0.238 NA
ATOM     21  C   UNL     1       2.824  -0.365  22.985  0.00  0.00    +0.046 A 
ATOM     23  C   UNL     1       3.425   0.831  22.607  0.00  0.00    +0.028 A 
ATOM     24  C   UNL     1       3.613  -1.318  23.608  0.00  0.00    +0.135 A 
ATOM     25  C   UNL     1       4.777   1.034  22.861  0.00  0.00    +0.045 A 
ATOM     27  C   UNL     1       5.478   0.018  23.490  0.00  0.00    +0.125 A 
BRANCH  27   7
ATOM      2  O   UNL     1       7.917  -1.115  22.133  0.00  0.00    -0.276 OA
ATOM      7  N   UNL     1       6.839   0.231  23.740  0.00  0.00    -0.271 N 
ATOM     28  C   UNL     1       7.934  -0.325  23.073  0.00  0.00    +0.215 C 
ATOM     29  C   UNL     1       9.241   0.163  23.646  0.00  0.00    +0.109 C 
ATOM     31  H   UNL     1       7.048   0.872  24.503  0.00  0.00    +0.156 HD
ENDBRANCH  27   7
ENDBRANCH   3  21
ENDBRANCH  15   3
ENDBRANCH   9  15
BRANCH  11  16
ATOM     16  C   UNL     1      -4.135   0.164  24.487  0.00  0.00    +0.105 C 
BRANCH  16  20
ATOM      1  O   UNL     1      -4.539   2.558  24.725  0.00  0.00    -0.425 OA
ATOM      4  N   UNL     1      -5.915   1.272  25.934  0.00  0.00    -0.112 NA
ATOM      5  N   UNL     1      -6.253   2.593  26.163  0.00  0.00    -0.113 NA
ATOM     20  C   UNL     1      -4.911   1.300  25.089  0.00  0.00    +0.218 A 
ATOM     22  C   UNL     1      -5.425   3.308  25.438  0.00  0.00    +0.214 A 
ATOM     26  C   UNL     1      -5.324   4.766  25.296  0.00  0.00    +0.111 C 
ENDBRANCH  16  20
ENDBRANCH  11  16
TORSDOF 7
ENDMDL
