MODEL 1
REMARK VINA RESULT:      -4.1      0.000      0.000
REMARK  Name = 45784092
REMARK  12 active torsions:
REMARK  status: ('A' for Active; 'I' for Inactive)
REMARK    1  A    between atoms: N_2  and  C_15
REMARK    2  A    between atoms: N_2  and  C_21
REMARK    3  A    between atoms: N_5  and  C_31
REMARK    4  A    between atoms: C_8  and  C_12
REMARK    5  A    between atoms: C_9  and  C_15
REMARK    6  A    between atoms: C_11  and  C_16
REMARK    7  A    between atoms: C_12  and  C_17
REMARK    8  A    between atoms: C_12  and  C_18
REMARK    9  A    between atoms: C_13  and  C_19
REMARK   10  A    between atoms: C_16  and  C_20
REMARK   11  A    between atoms: C_21  and  C_22
REMARK   12  A    between atoms: C_23  and  C_26
REMARK                            x       y       z     vdW  Elec       q    Type
REMARK                         _______ _______ _______ _____ _____    ______ ____
ROOT
ATOM      8  C   UNL     1      -2.245   3.553  25.713  0.00  0.00    +0.000 C 
ATOM      9  C   UNL     1      -3.566   3.762  24.936  0.00  0.00    +0.029 C 
ATOM     10  C   UNL     1      -1.690   2.144  25.462  0.00  0.00    +0.012 C 
ATOM     11  C   UNL     1      -1.462   1.833  23.968  0.00  0.00    +0.024 C 
ATOM     13  C   UNL     1      -2.560   2.384  23.071  0.00  0.00    -0.073 C 
ATOM     14  C   UNL     1      -3.497   3.235  23.526  0.00  0.00    -0.023 C 
ATOM     19  C   UNL     1      -2.534   1.990  21.619  0.00  0.00    +0.039 C 
ENDROOT
BRANCH   8  12
ATOM     12  C   UNL     1      -1.210   4.629  25.355  0.00  0.00    -0.013 C 
ATOM     17  C   UNL     1      -0.221   4.093  24.325  0.00  0.00    +0.007 C 
ATOM     18  C   UNL     1      -1.905   5.883  24.836  0.00  0.00    +0.007 C 
ENDBRANCH   8  12
BRANCH   9  15
ATOM     15  C   UNL     1      -4.754   3.116  25.657  0.00  0.00    +0.089 C 
BRANCH  15   2
ATOM      2  N   UNL     1      -5.126   1.867  25.015  0.00  0.00    -0.311 NA
ATOM     32  H   UNL     1      -4.523   1.680  24.215  0.00  0.00    +0.122 HD
BRANCH   2  21
ATOM     21  C   UNL     1      -5.067   0.755  25.955  0.00  0.00    +0.116 C 
BRANCH  21  22
ATOM      6  N   UNL     1      -3.173  -2.702  24.233  0.00  0.00    -0.263 NA
ATOM     22  C   UNL     1      -4.404  -0.455  25.353  0.00  0.00    -0.031 A 
ATOM     24  C   UNL     1      -3.503  -1.203  26.102  0.00  0.00    +0.024 A 
ATOM     25  C   UNL     1      -4.690  -0.829  24.044  0.00  0.00    +0.024 A 
ATOM     27  C   UNL     1      -2.920  -2.307  25.501  0.00  0.00    +0.111 A 
ATOM     28  C   UNL     1      -4.054  -1.949  23.536  0.00  0.00    +0.111 A 
ENDBRANCH  21  22
ENDBRANCH   2  21
ENDBRANCH  15   2
ENDBRANCH   9  15
BRANCH  11  16
ATOM     16  C   UNL     1      -1.263   0.321  23.807  0.00  0.00    +0.105 C 
BRANCH  16  20
ATOM      1  O   UNL     1       1.158   0.019  23.890  0.00  0.00    -0.419 OA
ATOM      3  N   UNL     1       0.266  -0.279  21.859  0.00  0.00    -0.112 NA
ATOM      4  N   UNL     1       1.631  -0.479  21.761  0.00  0.00    -0.106 NA
ATOM     20  C   UNL     1       0.035   0.008  23.119  0.00  0.00    +0.218 A 
ATOM     23  C   UNL     1       2.110  -0.294  22.969  0.00  0.00    +0.266 A 
BRANCH  23  26
ATOM      5  N   UNL     1       4.424   0.556  23.057  0.00  0.00    -0.329 N 
ATOM      7  N   UNL     1       5.512  -1.139  23.991  0.00  0.00    -0.243 NA
ATOM     26  C   UNL     1       3.485  -0.410  23.287  0.00  0.00    +0.125 A 
ATOM     29  C   UNL     1       4.181  -1.446  23.863  0.00  0.00    +0.143 A 
ATOM     30  C   UNL     1       5.625   0.074  23.496  0.00  0.00    +0.199 A 
ATOM     31  C   UNL     1       4.213   1.856  22.462  0.00  0.00    +0.150 C 
ENDBRANCH  23  26
ENDBRANCH  16  20
ENDBRANCH  11  16
TORSDOF 8
ENDMDL
MODEL 2
REMARK VINA RESULT:      -2.0      1.505      4.316
REMARK  Name = 45784092
REMARK  12 active torsions:
REMARK  status: ('A' for Active; 'I' for Inactive)
REMARK    1  A    between atoms: N_2  and  C_15
REMARK    2  A    between atoms: N_2  and  C_21
REMARK    3  A    between atoms: N_5  and  C_31
REMARK    4  A    between atoms: C_8  and  C_12
REMARK    5  A    between atoms: C_9  and  C_15
REMARK    6  A    between atoms: C_11  and  C_16
REMARK    7  A    between atoms: C_12  and  C_17
REMARK    8  A    between atoms: C_12  and  C_18
REMARK    9  A    between atoms: C_13  and  C_19
REMARK   10  A    between atoms: C_16  and  C_20
REMARK   11  A    between atoms: C_21  and  C_22
REMARK   12  A    between atoms: C_23  and  C_26
REMARK                            x       y       z     vdW  Elec       q    Type
REMARK                         _______ _______ _______ _____ _____    ______ ____
ROOT
ATOM      8  C   UNL     1      -4.041  -0.928  24.095  0.00  0.00    +0.000 C 
ATOM      9  C   UNL     1      -4.423  -0.012  25.282  0.00  0.00    +0.029 C 
ATOM     10  C   UNL     1      -2.982  -0.253  23.214  0.00  0.00    +0.012 C 
ATOM     11  C   UNL     1      -1.706   0.145  23.986  0.00  0.00    +0.024 C 
ATOM     13  C   UNL     1      -1.999   0.698  25.373  0.00  0.00    -0.073 C 
ATOM     14  C   UNL     1      -3.222   0.627  25.929  0.00  0.00    -0.023 C 
ATOM     19  C   UNL     1      -0.848   1.282  26.145  0.00  0.00    +0.039 C 
ENDROOT
BRANCH   8  12
ATOM     12  C   UNL     1      -3.564  -2.303  24.583  0.00  0.00    -0.013 C 
ATOM     17  C   UNL     1      -4.331  -3.415  23.875  0.00  0.00    +0.007 C 
ATOM     18  C   UNL     1      -2.063  -2.455  24.360  0.00  0.00    +0.007 C 
ENDBRANCH   8  12
BRANCH   9  15
ATOM     15  C   UNL     1      -5.408   1.083  24.856  0.00  0.00    +0.089 C 
BRANCH  15   2
ATOM      2  N   UNL     1      -5.758   1.926  25.987  0.00  0.00    -0.311 NA
ATOM     32  H   UNL     1      -5.166   1.713  26.790  0.00  0.00    +0.122 HD
BRANCH   2  21
ATOM     21  C   UNL     1      -5.645   3.338  25.643  0.00  0.00    +0.116 C 
BRANCH  21  22
ATOM      6  N   UNL     1      -1.580   4.465  24.802  0.00  0.00    -0.263 NA
ATOM     22  C   UNL     1      -4.222   3.732  25.348  0.00  0.00    -0.031 A 
ATOM     24  C   UNL     1      -3.734   3.664  24.048  0.00  0.00    +0.024 A 
ATOM     25  C   UNL     1      -3.392   4.167  26.375  0.00  0.00    +0.024 A 
ATOM     27  C   UNL     1      -2.418   4.037  23.830  0.00  0.00    +0.111 A 
ATOM     28  C   UNL     1      -2.092   4.518  26.052  0.00  0.00    +0.111 A 
ENDBRANCH  21  22
ENDBRANCH   2  21
ENDBRANCH  15   2
ENDBRANCH   9  15
BRANCH  11  16
ATOM     16  C   UNL     1      -0.891   1.113  23.119  0.00  0.00    +0.105 C 
BRANCH  16  20
ATOM      1  O   UNL     1       1.514   0.843  23.432  0.00  0.00    -0.419 OA
ATOM      3  N   UNL     1       0.678  -0.320  21.713  0.00  0.00    -0.112 NA
ATOM      4  N   UNL     1       2.038  -0.563  21.773  0.00  0.00    -0.106 NA
ATOM     20  C   UNL     1       0.417   0.505  22.700  0.00  0.00    +0.218 A 
ATOM     23  C   UNL     1       2.484   0.136  22.790  0.00  0.00    +0.266 A 
BRANCH  23  26
ATOM      5  N   UNL     1       4.514  -0.905  23.729  0.00  0.00    -0.329 N 
ATOM      7  N   UNL     1       5.986   0.754  23.619  0.00  0.00    -0.243 NA
ATOM     26  C   UNL     1       3.845   0.154  23.184  0.00  0.00    +0.125 A 
ATOM     29  C   UNL     1       4.774   1.166  23.127  0.00  0.00    +0.143 A 
ATOM     30  C   UNL     1       5.796  -0.498  23.973  0.00  0.00    +0.199 A 
ATOM     31  C   UNL     1       3.989  -2.222  24.005  0.00  0.00    +0.150 C 
ENDBRANCH  23  26
ENDBRANCH  16  20
ENDBRANCH  11  16
TORSDOF 8
ENDMDL
MODEL 3
REMARK VINA RESULT:      -1.4      1.606      3.096
REMARK  Name = 45784092
REMARK  12 active torsions:
REMARK  status: ('A' for Active; 'I' for Inactive)
REMARK    1  A    between atoms: N_2  and  C_15
REMARK    2  A    between atoms: N_2  and  C_21
REMARK    3  A    between atoms: N_5  and  C_31
REMARK    4  A    between atoms: C_8  and  C_12
REMARK    5  A    between atoms: C_9  and  C_15
REMARK    6  A    between atoms: C_11  and  C_16
REMARK    7  A    between atoms: C_12  and  C_17
REMARK    8  A    between atoms: C_12  and  C_18
REMARK    9  A    between atoms: C_13  and  C_19
REMARK   10  A    between atoms: C_16  and  C_20
REMARK   11  A    between atoms: C_21  and  C_22
REMARK   12  A    between atoms: C_23  and  C_26
REMARK                            x       y       z     vdW  Elec       q    Type
REMARK                         _______ _______ _______ _____ _____    ______ ____
ROOT
ATOM      8  C   UNL     1      -4.238   2.527  25.070  0.00  0.00    +0.000 C 
ATOM      9  C   UNL     1      -4.008   3.329  23.767  0.00  0.00    +0.029 C 
ATOM     10  C   UNL     1      -2.898   2.198  25.743  0.00  0.00    +0.012 C 
ATOM     11  C   UNL     1      -2.046   3.446  26.052  0.00  0.00    +0.024 C 
ATOM     13  C   UNL     1      -2.100   4.493  24.949  0.00  0.00    -0.073 C 
ATOM     14  C   UNL     1      -2.977   4.416  23.932  0.00  0.00    -0.023 C 
ATOM     19  C   UNL     1      -1.171   5.670  25.062  0.00  0.00    +0.039 C 
ENDROOT
BRANCH   8  12
ATOM     12  C   UNL     1      -5.171   3.277  26.030  0.00  0.00    -0.013 C 
ATOM     17  C   UNL     1      -5.798   4.480  25.332  0.00  0.00    +0.007 C 
ATOM     18  C   UNL     1      -6.249   2.340  26.564  0.00  0.00    +0.007 C 
ENDBRANCH   8  12
BRANCH   9  15
ATOM     15  C   UNL     1      -3.596   2.417  22.607  0.00  0.00    +0.089 C 
BRANCH  15   2
ATOM      2  N   UNL     1      -3.202   1.108  23.098  0.00  0.00    -0.311 NA
ATOM     32  H   UNL     1      -2.546   1.198  23.874  0.00  0.00    +0.122 HD
BRANCH   2  21
ATOM     21  C   UNL     1      -4.363   0.331  23.514  0.00  0.00    +0.116 C 
BRANCH  21  22
ATOM      6  N   UNL     1      -3.229  -3.267  25.580  0.00  0.00    -0.263 NA
ATOM     22  C   UNL     1      -3.967  -0.929  24.236  0.00  0.00    -0.031 A 
ATOM     24  C   UNL     1      -4.007  -2.153  23.579  0.00  0.00    +0.024 A 
ATOM     25  C   UNL     1      -3.558  -0.872  25.564  0.00  0.00    +0.024 A 
ATOM     27  C   UNL     1      -3.633  -3.282  24.289  0.00  0.00    +0.111 A 
ATOM     28  C   UNL     1      -3.203  -2.058  26.185  0.00  0.00    +0.111 A 
ENDBRANCH  21  22
ENDBRANCH   2  21
ENDBRANCH  15   2
ENDBRANCH   9  15
BRANCH  11  16
ATOM     16  C   UNL     1      -0.616   2.996  26.375  0.00  0.00    +0.105 C 
BRANCH  16  20
ATOM      1  O   UNL     1       1.003   2.138  24.762  0.00  0.00    -0.419 OA
ATOM      3  N   UNL     1      -0.712   0.758  25.161  0.00  0.00    -0.112 NA
ATOM      4  N   UNL     1       0.119   0.151  24.237  0.00  0.00    -0.106 NA
ATOM     20  C   UNL     1      -0.157   1.914  25.439  0.00  0.00    +0.218 A 
ATOM     23  C   UNL     1       1.106   0.993  24.034  0.00  0.00    +0.266 A 
BRANCH  23  26
ATOM      5  N   UNL     1       2.080  -0.003  21.998  0.00  0.00    -0.329 N 
ATOM      7  N   UNL     1       4.197   0.655  22.121  0.00  0.00    -0.243 NA
ATOM     26  C   UNL     1       2.177   0.735  23.144  0.00  0.00    +0.125 A 
ATOM     29  C   UNL     1       3.493   1.130  23.198  0.00  0.00    +0.143 A 
ATOM     30  C   UNL     1       3.317  -0.024  21.418  0.00  0.00    +0.199 A 
ATOM     31  C   UNL     1       0.900  -0.652  21.474  0.00  0.00    +0.150 C 
ENDBRANCH  23  26
ENDBRANCH  16  20
ENDBRANCH  11  16
TORSDOF 8
ENDMDL
MODEL 4
REMARK VINA RESULT:      -0.7      1.557      6.378
REMARK  Name = 45784092
REMARK  12 active torsions:
REMARK  status: ('A' for Active; 'I' for Inactive)
REMARK    1  A    between atoms: N_2  and  C_15
REMARK    2  A    between atoms: N_2  and  C_21
REMARK    3  A    between atoms: N_5  and  C_31
REMARK    4  A    between atoms: C_8  and  C_12
REMARK    5  A    between atoms: C_9  and  C_15
REMARK    6  A    between atoms: C_11  and  C_16
REMARK    7  A    between atoms: C_12  and  C_17
REMARK    8  A    between atoms: C_12  and  C_18
REMARK    9  A    between atoms: C_13  and  C_19
REMARK   10  A    between atoms: C_16  and  C_20
REMARK   11  A    between atoms: C_21  and  C_22
REMARK   12  A    between atoms: C_23  and  C_26
REMARK                            x       y       z     vdW  Elec       q    Type
REMARK                         _______ _______ _______ _____ _____    ______ ____
ROOT
ATOM      8  C   UNL     1      -0.431   3.417  23.774  0.00  0.00    +0.000 C 
ATOM      9  C   UNL     1      -0.203   2.560  25.041  0.00  0.00    +0.029 C 
ATOM     10  C   UNL     1      -1.928   3.499  23.443  0.00  0.00    +0.012 C 
ATOM     11  C   UNL     1      -2.780   4.059  24.601  0.00  0.00    +0.024 C 
ATOM     13  C   UNL     1      -2.335   3.555  25.965  0.00  0.00    -0.073 C 
ATOM     14  C   UNL     1      -1.186   2.878  26.139  0.00  0.00    -0.023 C 
ATOM     19  C   UNL     1      -3.202   3.893  27.147  0.00  0.00    +0.039 C 
ENDROOT
BRANCH   8  12
ATOM     12  C   UNL     1       0.182   4.815  23.927  0.00  0.00    -0.013 C 
ATOM     17  C   UNL     1       0.573   5.378  22.564  0.00  0.00    +0.007 C 
ATOM     18  C   UNL     1      -0.794   5.748  24.637  0.00  0.00    +0.007 C 
ENDBRANCH   8  12
BRANCH   9  15
ATOM     15  C   UNL     1      -0.264   1.061  24.729  0.00  0.00    +0.089 C 
BRANCH  15   2
ATOM      2  N   UNL     1       0.180   0.801  23.370  0.00  0.00    -0.311 NA
ATOM     32  H   UNL     1       0.760   1.567  23.029  0.00  0.00    +0.122 HD
BRANCH   2  21
ATOM     21  C   UNL     1       0.914  -0.456  23.289  0.00  0.00    +0.116 C 
BRANCH  21  22
ATOM      6  N   UNL     1       5.167   0.176  23.165  0.00  0.00    -0.263 NA
ATOM     22  C   UNL     1       2.403  -0.234  23.245  0.00  0.00    -0.031 A 
ATOM     24  C   UNL     1       2.917   0.964  22.761  0.00  0.00    +0.024 A 
ATOM     25  C   UNL     1       3.269  -1.227  23.689  0.00  0.00    +0.024 A 
ATOM     27  C   UNL     1       4.293   1.117  22.741  0.00  0.00    +0.111 A 
ATOM     28  C   UNL     1       4.630  -0.975  23.629  0.00  0.00    +0.111 A 
ENDBRANCH  21  22
ENDBRANCH   2  21
ENDBRANCH  15   2
ENDBRANCH   9  15
BRANCH  11  16
ATOM     16  C   UNL     1      -4.256   3.763  24.309  0.00  0.00    +0.105 C 
BRANCH  16  20
ATOM      1  O   UNL     1      -3.802   1.366  24.249  0.00  0.00    -0.419 OA
ATOM      3  N   UNL     1      -5.632   1.922  25.410  0.00  0.00    -0.112 NA
ATOM      4  N   UNL     1      -5.497   0.547  25.458  0.00  0.00    -0.106 NA
ATOM     20  C   UNL     1      -4.621   2.358  24.695  0.00  0.00    +0.218 A 
ATOM     23  C   UNL     1      -4.416   0.267  24.768  0.00  0.00    +0.266 A 
BRANCH  23  26
ATOM      5  N   UNL     1      -2.832  -1.575  25.194  0.00  0.00    -0.329 N 
ATOM      7  N   UNL     1      -3.633  -3.193  23.902  0.00  0.00    -0.243 NA
ATOM     26  C   UNL     1      -3.933  -1.051  24.579  0.00  0.00    +0.125 A 
ATOM     29  C   UNL     1      -4.410  -2.068  23.786  0.00  0.00    +0.143 A 
ATOM     30  C   UNL     1      -2.691  -2.863  24.758  0.00  0.00    +0.199 A 
ATOM     31  C   UNL     1      -1.960  -0.913  26.138  0.00  0.00    +0.150 C 
ENDBRANCH  23  26
ENDBRANCH  16  20
ENDBRANCH  11  16
TORSDOF 8
ENDMDL
