MODEL 1
REMARK VINA RESULT:      -7.1      0.000      0.000
REMARK  Name = 75536560
REMARK  7 active torsions:
REMARK  status: ('A' for Active; 'I' for Inactive)
REMARK    1  A    between atoms: O_3  and  C_8
REMARK    2  A    between atoms: N_5  and  C_16
REMARK    3  A    between atoms: N_6  and  C_10
REMARK    4  A    between atoms: N_6  and  C_18
REMARK    5  A    between atoms: C_7  and  C_16
REMARK    6  A    between atoms: C_9  and  C_17
REMARK    7  A    between atoms: C_18  and  C_19
REMARK                            x       y       z     vdW  Elec       q    Type
REMARK                         _______ _______ _______ _____ _____    ______ ____
ROOT
ATOM      2  O   UNL     1       0.521   2.452  23.522  0.00  0.00    -0.371 OA
ATOM      7  C   UNL     1       0.431   1.302  24.380  0.00  0.00    +0.165 C 
ATOM      8  C   UNL     1      -0.579   1.663  25.461  0.00  0.00    +0.164 C 
ATOM     10  C   UNL     1      -0.299   3.143  25.641  0.00  0.00    +0.111 C 
ATOM     15  C   UNL     1      -0.054   3.579  24.207  0.00  0.00    +0.181 C 
ENDROOT
BRANCH   8   3
ATOM      3  O   UNL     1      -0.371   0.919  26.647  0.00  0.00    -0.388 OA
ATOM     27  H   UNL     1      -0.658   1.460  27.402  0.00  0.00    +0.210 HD
ENDBRANCH   8   3
BRANCH  10   6
ATOM      6  N   UNL     1      -1.386   3.870  26.276  0.00  0.00    -0.305 NA
ATOM     26  H   UNL     1      -0.997   4.612  26.855  0.00  0.00    +0.123 HD
BRANCH   6  18
ATOM     18  C   UNL     1      -2.274   4.461  25.282  0.00  0.00    +0.116 C 
BRANCH  18  19
ATOM      1  F   UNL     1      -7.016   1.480  24.666  0.00  0.00    -0.205 F 
ATOM     19  C   UNL     1      -3.541   3.664  25.117  0.00  0.00    -0.033 A 
ATOM     20  C   UNL     1      -4.490   3.646  26.140  0.00  0.00    +0.008 A 
ATOM     21  C   UNL     1      -3.766   2.945  23.943  0.00  0.00    +0.008 A 
ATOM     22  C   UNL     1      -5.664   2.908  25.988  0.00  0.00    +0.038 A 
ATOM     23  C   UNL     1      -4.939   2.207  23.791  0.00  0.00    +0.038 A 
ATOM     24  C   UNL     1      -5.889   2.188  24.814  0.00  0.00    +0.123 A 
ENDBRANCH  18  19
ENDBRANCH   6  18
ENDBRANCH  10   6
BRANCH   7  16
ATOM     16  C   UNL     1       0.030   0.084  23.567  0.00  0.00    +0.138 C 
BRANCH  16   5
ATOM      4  O   UNL     1      -0.182  -2.042  25.533  0.00  0.00    -0.276 OA
ATOM      5  N   UNL     1      -1.170  -0.514  24.079  0.00  0.00    -0.313 N 
ATOM     17  C   UNL     1      -1.177  -1.533  25.024  0.00  0.00    +0.216 C 
ATOM     25  H   UNL     1      -2.055  -0.163  23.724  0.00  0.00    +0.149 HD
BRANCH  17   9
ATOM      9  C   UNL     1      -2.564  -1.957  25.402  0.00  0.00    +0.075 C 
ATOM     11  C   UNL     1      -3.082  -3.014  24.420  0.00  0.00    +0.013 C 
ATOM     12  C   UNL     1      -3.532  -0.777  25.312  0.00  0.00    +0.013 C 
ATOM     13  C   UNL     1      -4.390  -2.460  23.865  0.00  0.00    +0.001 C 
ATOM     14  C   UNL     1      -4.230  -0.954  23.970  0.00  0.00    +0.001 C 
ENDBRANCH  17   9
ENDBRANCH  16   5
ENDBRANCH   7  16
TORSDOF 7
ENDMDL
MODEL 2
REMARK VINA RESULT:      -5.8      2.787      4.720
REMARK  Name = 75536560
REMARK  7 active torsions:
REMARK  status: ('A' for Active; 'I' for Inactive)
REMARK    1  A    between atoms: O_3  and  C_8
REMARK    2  A    between atoms: N_5  and  C_16
REMARK    3  A    between atoms: N_6  and  C_10
REMARK    4  A    between atoms: N_6  and  C_18
REMARK    5  A    between atoms: C_7  and  C_16
REMARK    6  A    between atoms: C_9  and  C_17
REMARK    7  A    between atoms: C_18  and  C_19
REMARK                            x       y       z     vdW  Elec       q    Type
REMARK                         _______ _______ _______ _____ _____    ______ ____
ROOT
ATOM      2  O   UNL     1      -4.903   3.217  26.486  0.00  0.00    -0.371 OA
ATOM      7  C   UNL     1      -5.250   3.036  25.103  0.00  0.00    +0.165 C 
ATOM      8  C   UNL     1      -3.970   3.272  24.313  0.00  0.00    +0.164 C 
ATOM     10  C   UNL     1      -3.311   4.358  25.143  0.00  0.00    +0.111 C 
ATOM     15  C   UNL     1      -3.638   3.899  26.553  0.00  0.00    +0.181 C 
ENDROOT
BRANCH   8   3
ATOM      3  O   UNL     1      -4.238   3.685  22.986  0.00  0.00    -0.388 OA
ATOM     27  H   UNL     1      -3.605   4.384  22.750  0.00  0.00    +0.210 HD
ENDBRANCH   8   3
BRANCH  10   6
ATOM      6  N   UNL     1      -1.883   4.488  24.906  0.00  0.00    -0.305 NA
ATOM     26  H   UNL     1      -1.574   5.405  25.226  0.00  0.00    +0.123 HD
BRANCH   6  18
ATOM     18  C   UNL     1      -1.136   3.461  25.623  0.00  0.00    +0.116 C 
BRANCH  18  19
ATOM      1  F   UNL     1       0.937  -0.447  22.133  0.00  0.00    -0.205 F 
ATOM     19  C   UNL     1      -0.582   2.417  24.691  0.00  0.00    -0.033 A 
ATOM     20  C   UNL     1      -1.404   1.841  23.722  0.00  0.00    +0.008 A 
ATOM     21  C   UNL     1       0.753   2.026  24.796  0.00  0.00    +0.008 A 
ATOM     22  C   UNL     1      -0.891   0.873  22.858  0.00  0.00    +0.038 A 
ATOM     23  C   UNL     1       1.266   1.058  23.932  0.00  0.00    +0.038 A 
ATOM     24  C   UNL     1       0.444   0.482  22.963  0.00  0.00    +0.123 A 
ENDBRANCH  18  19
ENDBRANCH   6  18
ENDBRANCH  10   6
BRANCH   7  16
ATOM     16  C   UNL     1      -5.835   1.650  24.897  0.00  0.00    +0.138 C 
BRANCH  16   5
ATOM      4  O   UNL     1      -4.158  -0.302  23.553  0.00  0.00    -0.276 OA
ATOM      5  N   UNL     1      -5.014   0.641  25.503  0.00  0.00    -0.313 N 
ATOM     17  C   UNL     1      -4.240  -0.256  24.778  0.00  0.00    +0.216 C 
ATOM     25  H   UNL     1      -5.007   0.593  26.518  0.00  0.00    +0.149 HD
BRANCH  17   9
ATOM      9  C   UNL     1      -3.461  -1.186  25.658  0.00  0.00    +0.075 C 
ATOM     11  C   UNL     1      -2.070  -0.608  25.942  0.00  0.00    +0.013 C 
ATOM     12  C   UNL     1      -3.233  -2.527  24.958  0.00  0.00    +0.013 C 
ATOM     13  C   UNL     1      -1.076  -1.674  25.493  0.00  0.00    +0.001 C 
ATOM     14  C   UNL     1      -1.816  -2.437  24.408  0.00  0.00    +0.001 C 
ENDBRANCH  17   9
ENDBRANCH  16   5
ENDBRANCH   7  16
TORSDOF 7
ENDMDL
MODEL 3
REMARK VINA RESULT:      -5.6      1.495      2.219
REMARK  Name = 75536560
REMARK  7 active torsions:
REMARK  status: ('A' for Active; 'I' for Inactive)
REMARK    1  A    between atoms: O_3  and  C_8
REMARK    2  A    between atoms: N_5  and  C_16
REMARK    3  A    between atoms: N_6  and  C_10
REMARK    4  A    between atoms: N_6  and  C_18
REMARK    5  A    between atoms: C_7  and  C_16
REMARK    6  A    between atoms: C_9  and  C_17
REMARK    7  A    between atoms: C_18  and  C_19
REMARK                            x       y       z     vdW  Elec       q    Type
REMARK                         _______ _______ _______ _____ _____    ______ ____
ROOT
ATOM      2  O   UNL     1      -0.208   4.034  23.848  0.00  0.00    -0.371 OA
ATOM      7  C   UNL     1       0.248   3.065  24.808  0.00  0.00    +0.165 C 
ATOM      8  C   UNL     1      -0.920   2.835  25.759  0.00  0.00    +0.164 C 
ATOM     10  C   UNL     1      -1.533   4.222  25.810  0.00  0.00    +0.111 C 
ATOM     15  C   UNL     1      -1.391   4.667  24.365  0.00  0.00    +0.181 C 
ENDROOT
BRANCH   8   3
ATOM      3  O   UNL     1      -0.485   2.382  27.026  0.00  0.00    -0.388 OA
ATOM     27  H   UNL     1      -0.819   1.478  27.159  0.00  0.00    +0.210 HD
ENDBRANCH   8   3
BRANCH  10   6
ATOM      6  N   UNL     1      -2.910   4.235  26.275  0.00  0.00    -0.305 NA
ATOM     26  H   UNL     1      -3.083   5.104  26.779  0.00  0.00    +0.123 HD
BRANCH   6  18
ATOM     18  C   UNL     1      -3.842   4.141  25.158  0.00  0.00    +0.116 C 
BRANCH  18  19
ATOM      1  F   UNL     1      -4.991  -1.214  23.830  0.00  0.00    -0.205 F 
ATOM     19  C   UNL     1      -4.149   2.709  24.803  0.00  0.00    -0.033 A 
ATOM     20  C   UNL     1      -3.381   2.049  23.844  0.00  0.00    +0.008 A 
ATOM     21  C   UNL     1      -5.201   2.045  25.434  0.00  0.00    +0.008 A 
ATOM     22  C   UNL     1      -3.666   0.724  23.515  0.00  0.00    +0.038 A 
ATOM     23  C   UNL     1      -5.486   0.720  25.105  0.00  0.00    +0.038 A 
ATOM     24  C   UNL     1      -4.718   0.059  24.145  0.00  0.00    +0.123 A 
ENDBRANCH  18  19
ENDBRANCH   6  18
ENDBRANCH  10   6
BRANCH   7  16
ATOM     16  C   UNL     1       0.696   1.804  24.091  0.00  0.00    +0.138 C 
BRANCH  16   5
ATOM      4  O   UNL     1      -0.097  -0.715  22.885  0.00  0.00    -0.276 OA
ATOM      5  N   UNL     1       0.223   0.627  24.762  0.00  0.00    -0.313 N 
ATOM     17  C   UNL     1      -0.136  -0.541  24.101  0.00  0.00    +0.216 C 
ATOM     25  H   UNL     1       0.154   0.662  25.775  0.00  0.00    +0.149 HD
BRANCH  17   9
ATOM      9  C   UNL     1      -0.571  -1.624  25.041  0.00  0.00    +0.075 C 
ATOM     11  C   UNL     1      -1.688  -2.461  24.406  0.00  0.00    +0.013 C 
ATOM     12  C   UNL     1      -1.158  -1.026  26.319  0.00  0.00    +0.013 C 
ATOM     13  C   UNL     1      -2.856  -2.406  25.385  0.00  0.00    +0.001 C 
ATOM     14  C   UNL     1      -2.666  -1.090  26.117  0.00  0.00    +0.001 C 
ENDBRANCH  17   9
ENDBRANCH  16   5
ENDBRANCH   7  16
TORSDOF 7
ENDMDL
MODEL 4
REMARK VINA RESULT:      -5.3      1.572      4.711
REMARK  Name = 75536560
REMARK  7 active torsions:
REMARK  status: ('A' for Active; 'I' for Inactive)
REMARK    1  A    between atoms: O_3  and  C_8
REMARK    2  A    between atoms: N_5  and  C_16
REMARK    3  A    between atoms: N_6  and  C_10
REMARK    4  A    between atoms: N_6  and  C_18
REMARK    5  A    between atoms: C_7  and  C_16
REMARK    6  A    between atoms: C_9  and  C_17
REMARK    7  A    between atoms: C_18  and  C_19
REMARK                            x       y       z     vdW  Elec       q    Type
REMARK                         _______ _______ _______ _____ _____    ______ ____
ROOT
ATOM      2  O   UNL     1      -1.066  -0.660  26.310  0.00  0.00    -0.371 OA
ATOM      7  C   UNL     1      -0.526  -1.235  25.108  0.00  0.00    +0.165 C 
ATOM      8  C   UNL     1      -1.724  -1.695  24.288  0.00  0.00    +0.164 C 
ATOM     10  C   UNL     1      -2.675  -2.140  25.383  0.00  0.00    +0.111 C 
ATOM     15  C   UNL     1      -2.437  -1.075  26.440  0.00  0.00    +0.181 C 
ENDROOT
BRANCH   8   3
ATOM      3  O   UNL     1      -1.383  -2.743  23.400  0.00  0.00    -0.388 OA
ATOM     27  H   UNL     1      -0.580  -2.485  22.917  0.00  0.00    +0.210 HD
ENDBRANCH   8   3
BRANCH  10   6
ATOM      6  N   UNL     1      -4.062  -2.215  24.957  0.00  0.00    -0.305 NA
ATOM     26  H   UNL     1      -4.663  -1.915  25.724  0.00  0.00    +0.123 HD
BRANCH   6  18
ATOM     18  C   UNL     1      -4.304  -1.357  23.803  0.00  0.00    +0.116 C 
BRANCH  18  19
ATOM      1  F   UNL     1      -5.184   3.998  25.318  0.00  0.00    -0.205 F 
ATOM     19  C   UNL     1      -4.539   0.074  24.208  0.00  0.00    -0.033 A 
ATOM     20  C   UNL     1      -5.468   0.373  25.204  0.00  0.00    +0.008 A 
ATOM     21  C   UNL     1      -3.828   1.101  23.586  0.00  0.00    +0.008 A 
ATOM     22  C   UNL     1      -5.687   1.698  25.580  0.00  0.00    +0.038 A 
ATOM     23  C   UNL     1      -4.046   2.426  23.961  0.00  0.00    +0.038 A 
ATOM     24  C   UNL     1      -4.976   2.725  24.958  0.00  0.00    +0.123 A 
ENDBRANCH  18  19
ENDBRANCH   6  18
ENDBRANCH  10   6
BRANCH   7  16
ATOM     16  C   UNL     1       0.336  -0.212  24.390  0.00  0.00    +0.138 C 
BRANCH  16   5
ATOM      4  O   UNL     1      -0.762   2.239  23.287  0.00  0.00    -0.276 OA
ATOM      5  N   UNL     1       0.260   1.072  25.025  0.00  0.00    -0.313 N 
ATOM     17  C   UNL     1      -0.285   2.197  24.418  0.00  0.00    +0.216 C 
ATOM     25  H   UNL     1       0.626   1.149  25.970  0.00  0.00    +0.149 HD
BRANCH  17   9
ATOM      9  C   UNL     1      -0.262   3.401  25.311  0.00  0.00    +0.075 C 
ATOM     11  C   UNL     1      -1.459   3.375  26.269  0.00  0.00    +0.013 C 
ATOM     12  C   UNL     1      -0.400   4.684  24.490  0.00  0.00    +0.013 C 
ATOM     13  C   UNL     1      -2.198   4.690  26.048  0.00  0.00    +0.001 C 
ATOM     14  C   UNL     1      -1.869   5.065  24.614  0.00  0.00    +0.001 C 
ENDBRANCH  17   9
ENDBRANCH  16   5
ENDBRANCH   7  16
TORSDOF 7
ENDMDL
MODEL 5
REMARK VINA RESULT:      -5.3      2.747      4.947
REMARK  Name = 75536560
REMARK  7 active torsions:
REMARK  status: ('A' for Active; 'I' for Inactive)
REMARK    1  A    between atoms: O_3  and  C_8
REMARK    2  A    between atoms: N_5  and  C_16
REMARK    3  A    between atoms: N_6  and  C_10
REMARK    4  A    between atoms: N_6  and  C_18
REMARK    5  A    between atoms: C_7  and  C_16
REMARK    6  A    between atoms: C_9  and  C_17
REMARK    7  A    between atoms: C_18  and  C_19
REMARK                            x       y       z     vdW  Elec       q    Type
REMARK                         _______ _______ _______ _____ _____    ______ ____
ROOT
ATOM      2  O   UNL     1      -1.151   1.951  22.953  0.00  0.00    -0.371 OA
ATOM      7  C   UNL     1      -0.897   2.708  24.148  0.00  0.00    +0.165 C 
ATOM      8  C   UNL     1      -2.212   2.737  24.915  0.00  0.00    +0.164 C 
ATOM     10  C   UNL     1      -3.213   2.792  23.776  0.00  0.00    +0.111 C 
ATOM     15  C   UNL     1      -2.574   1.853  22.768  0.00  0.00    +0.181 C 
ENDROOT
BRANCH   8   3
ATOM      3  O   UNL     1      -2.297   3.859  25.773  0.00  0.00    -0.388 OA
ATOM     27  H   UNL     1      -1.439   4.317  25.763  0.00  0.00    +0.210 HD
ENDBRANCH   8   3
BRANCH  10   6
ATOM      6  N   UNL     1      -4.555   2.384  24.159  0.00  0.00    -0.305 NA
ATOM     26  H   UNL     1      -4.974   1.857  23.393  0.00  0.00    +0.123 HD
BRANCH   6  18
ATOM     18  C   UNL     1      -4.529   1.546  25.351  0.00  0.00    +0.116 C 
BRANCH  18  19
ATOM      1  F   UNL     1      -2.913  -3.723  24.177  0.00  0.00    -0.205 F 
ATOM     19  C   UNL     1      -4.097   0.138  25.037  0.00  0.00    -0.033 A 
ATOM     20  C   UNL     1      -3.024  -0.431  25.723  0.00  0.00    +0.008 A 
ATOM     21  C   UNL     1      -4.770  -0.597  24.061  0.00  0.00    +0.008 A 
ATOM     22  C   UNL     1      -2.623  -1.735  25.433  0.00  0.00    +0.038 A 
ATOM     23  C   UNL     1      -4.370  -1.901  23.771  0.00  0.00    +0.038 A 
ATOM     24  C   UNL     1      -3.296  -2.470  24.456  0.00  0.00    +0.123 A 
ENDBRANCH  18  19
ENDBRANCH   6  18
ENDBRANCH  10   6
BRANCH   7  16
ATOM     16  C   UNL     1       0.240   2.071  24.928  0.00  0.00    +0.138 C 
BRANCH  16   5
ATOM      4  O   UNL     1       0.512  -0.615  23.861  0.00  0.00    -0.276 OA
ATOM      5  N   UNL     1       1.264   1.582  24.052  0.00  0.00    -0.313 N 
ATOM     17  C   UNL     1       1.317   0.272  23.588  0.00  0.00    +0.216 C 
ATOM     25  H   UNL     1       1.983   2.238  23.760  0.00  0.00    +0.149 HD
BRANCH  17   9
ATOM      9  C   UNL     1       2.475   0.033  22.668  0.00  0.00    +0.075 C 
ATOM     11  C   UNL     1       3.324  -1.138  23.176  0.00  0.00    +0.013 C 
ATOM     12  C   UNL     1       3.400   1.251  22.637  0.00  0.00    +0.013 C 
ATOM     13  C   UNL     1       4.739  -0.591  23.328  0.00  0.00    +0.001 C 
ATOM     14  C   UNL     1       4.539   0.893  23.583  0.00  0.00    +0.001 C 
ENDBRANCH  17   9
ENDBRANCH  16   5
ENDBRANCH   7  16
TORSDOF 7
ENDMDL
MODEL 6
REMARK VINA RESULT:      -5.2      2.407      5.008
REMARK  Name = 75536560
REMARK  7 active torsions:
REMARK  status: ('A' for Active; 'I' for Inactive)
REMARK    1  A    between atoms: O_3  and  C_8
REMARK    2  A    between atoms: N_5  and  C_16
REMARK    3  A    between atoms: N_6  and  C_10
REMARK    4  A    between atoms: N_6  and  C_18
REMARK    5  A    between atoms: C_7  and  C_16
REMARK    6  A    between atoms: C_9  and  C_17
REMARK    7  A    between atoms: C_18  and  C_19
REMARK                            x       y       z     vdW  Elec       q    Type
REMARK                         _______ _______ _______ _____ _____    ______ ____
ROOT
ATOM      2  O   UNL     1      -3.263   3.969  23.557  0.00  0.00    -0.371 OA
ATOM      7  C   UNL     1      -3.394   4.451  24.905  0.00  0.00    +0.165 C 
ATOM      8  C   UNL     1      -4.182   3.386  25.657  0.00  0.00    +0.164 C 
ATOM     10  C   UNL     1      -5.124   2.898  24.571  0.00  0.00    +0.111 C 
ATOM     15  C   UNL     1      -4.213   2.908  23.356  0.00  0.00    +0.181 C 
ENDROOT
BRANCH   8   3
ATOM      3  O   UNL     1      -4.865   3.925  26.772  0.00  0.00    -0.388 OA
ATOM     27  H   UNL     1      -5.733   4.245  26.473  0.00  0.00    +0.210 HD
ENDBRANCH   8   3
BRANCH  10   6
ATOM      6  N   UNL     1      -5.696   1.589  24.840  0.00  0.00    -0.305 NA
ATOM     26  H   UNL     1      -5.704   1.046  23.977  0.00  0.00    +0.123 HD
BRANCH   6  18
ATOM     18  C   UNL     1      -4.918   0.872  25.844  0.00  0.00    +0.116 C 
BRANCH  18  19
ATOM      1  F   UNL     1      -2.770  -3.920  23.801  0.00  0.00    -0.205 F 
ATOM     19  C   UNL     1      -4.344  -0.409  25.298  0.00  0.00    -0.033 A 
ATOM     20  C   UNL     1      -4.590  -0.774  23.974  0.00  0.00    +0.008 A 
ATOM     21  C   UNL     1      -3.567  -1.229  26.116  0.00  0.00    +0.008 A 
ATOM     22  C   UNL     1      -4.059  -1.960  23.468  0.00  0.00    +0.038 A 
ATOM     23  C   UNL     1      -3.036  -2.415  25.610  0.00  0.00    +0.038 A 
ATOM     24  C   UNL     1      -3.281  -2.781  24.286  0.00  0.00    +0.123 A 
ENDBRANCH  18  19
ENDBRANCH   6  18
ENDBRANCH  10   6
BRANCH   7  16
ATOM     16  C   UNL     1      -2.020   4.709  25.495  0.00  0.00    +0.138 C 
BRANCH  16   5
ATOM      4  O   UNL     1      -0.002   3.780  23.625  0.00  0.00    -0.276 OA
ATOM      5  N   UNL     1      -1.249   3.501  25.573  0.00  0.00    -0.313 N 
ATOM     17  C   UNL     1      -0.300   3.135  24.627  0.00  0.00    +0.216 C 
ATOM     25  H   UNL     1      -1.416   2.891  26.368  0.00  0.00    +0.149 HD
BRANCH  17   9
ATOM      9  C   UNL     1       0.376   1.839  24.961  0.00  0.00    +0.075 C 
ATOM     11  C   UNL     1       1.139   1.308  23.743  0.00  0.00    +0.013 C 
ATOM     12  C   UNL     1      -0.656   0.769  25.319  0.00  0.00    +0.013 C 
ATOM     13  C   UNL     1       0.599  -0.095  23.492  0.00  0.00    +0.001 C 
ATOM     14  C   UNL     1      -0.813  -0.055  24.047  0.00  0.00    +0.001 C 
ENDBRANCH  17   9
ENDBRANCH  16   5
ENDBRANCH   7  16
TORSDOF 7
ENDMDL
MODEL 7
REMARK VINA RESULT:      -5.2      2.162      4.818
REMARK  Name = 75536560
REMARK  7 active torsions:
REMARK  status: ('A' for Active; 'I' for Inactive)
REMARK    1  A    between atoms: O_3  and  C_8
REMARK    2  A    between atoms: N_5  and  C_16
REMARK    3  A    between atoms: N_6  and  C_10
REMARK    4  A    between atoms: N_6  and  C_18
REMARK    5  A    between atoms: C_7  and  C_16
REMARK    6  A    between atoms: C_9  and  C_17
REMARK    7  A    between atoms: C_18  and  C_19
REMARK                            x       y       z     vdW  Elec       q    Type
REMARK                         _______ _______ _______ _____ _____    ______ ____
ROOT
ATOM      2  O   UNL     1      -0.009   3.810  26.413  0.00  0.00    -0.371 OA
ATOM      7  C   UNL     1      -0.252   4.235  25.061  0.00  0.00    +0.165 C 
ATOM      8  C   UNL     1      -0.537   2.968  24.267  0.00  0.00    +0.164 C 
ATOM     10  C   UNL     1       0.385   1.978  24.954  0.00  0.00    +0.111 C 
ATOM     15  C   UNL     1       0.243   2.394  26.408  0.00  0.00    +0.181 C 
ENDROOT
BRANCH   8   3
ATOM      3  O   UNL     1      -0.241   3.129  22.893  0.00  0.00    -0.388 OA
ATOM     27  H   UNL     1       0.432   3.826  22.805  0.00  0.00    +0.210 HD
ENDBRANCH   8   3
BRANCH  10   6
ATOM      6  N   UNL     1       0.026   0.589  24.724  0.00  0.00    -0.305 NA
ATOM     26  H   UNL     1       0.877   0.030  24.661  0.00  0.00    +0.123 HD
BRANCH   6  18
ATOM     18  C   UNL     1      -0.799   0.073  25.810  0.00  0.00    +0.116 C 
BRANCH  18  19
ATOM      1  F   UNL     1      -4.296  -3.979  24.047  0.00  0.00    -0.205 F 
ATOM     19  C   UNL     1      -1.734  -1.010  25.339  0.00  0.00    -0.033 A 
ATOM     20  C   UNL     1      -3.010  -1.117  25.890  0.00  0.00    +0.008 A 
ATOM     21  C   UNL     1      -1.322  -1.905  24.351  0.00  0.00    +0.008 A 
ATOM     22  C   UNL     1      -3.876  -2.120  25.454  0.00  0.00    +0.038 A 
ATOM     23  C   UNL     1      -2.188  -2.908  23.915  0.00  0.00    +0.038 A 
ATOM     24  C   UNL     1      -3.465  -3.016  24.467  0.00  0.00    +0.123 A 
ENDBRANCH  18  19
ENDBRANCH   6  18
ENDBRANCH  10   6
BRANCH   7  16
ATOM     16  C   UNL     1      -1.397   5.232  25.034  0.00  0.00    +0.138 C 
BRANCH  16   5
ATOM      4  O   UNL     1      -3.403   4.083  26.791  0.00  0.00    -0.276 OA
ATOM      5  N   UNL     1      -2.629   4.600  24.655  0.00  0.00    -0.313 N 
ATOM     17  C   UNL     1      -3.534   4.075  25.570  0.00  0.00    +0.216 C 
ATOM     25  H   UNL     1      -2.839   4.542  23.663  0.00  0.00    +0.149 HD
BRANCH  17   9
ATOM      9  C   UNL     1      -4.749   3.496  24.909  0.00  0.00    +0.075 C 
ATOM     11  C   UNL     1      -5.509   2.597  25.891  0.00  0.00    +0.013 C 
ATOM     12  C   UNL     1      -4.349   2.603  23.733  0.00  0.00    +0.013 C 
ATOM     13  C   UNL     1      -5.618   1.236  25.211  0.00  0.00    +0.001 C 
ATOM     14  C   UNL     1      -4.415   1.186  24.286  0.00  0.00    +0.001 C 
ENDBRANCH  17   9
ENDBRANCH  16   5
ENDBRANCH   7  16
TORSDOF 7
ENDMDL
MODEL 8
REMARK VINA RESULT:      -5.2      3.970      7.080
REMARK  Name = 75536560
REMARK  7 active torsions:
REMARK  status: ('A' for Active; 'I' for Inactive)
REMARK    1  A    between atoms: O_3  and  C_8
REMARK    2  A    between atoms: N_5  and  C_16
REMARK    3  A    between atoms: N_6  and  C_10
REMARK    4  A    between atoms: N_6  and  C_18
REMARK    5  A    between atoms: C_7  and  C_16
REMARK    6  A    between atoms: C_9  and  C_17
REMARK    7  A    between atoms: C_18  and  C_19
REMARK                            x       y       z     vdW  Elec       q    Type
REMARK                         _______ _______ _______ _____ _____    ______ ____
ROOT
ATOM      2  O   UNL     1      -2.004  -1.949  24.267  0.00  0.00    -0.371 OA
ATOM      7  C   UNL     1      -2.204  -1.006  25.333  0.00  0.00    +0.165 C 
ATOM      8  C   UNL     1      -1.341   0.202  24.991  0.00  0.00    +0.164 C 
ATOM     10  C   UNL     1      -0.150  -0.466  24.330  0.00  0.00    +0.111 C 
ATOM     15  C   UNL     1      -0.828  -1.567  23.532  0.00  0.00    +0.181 C 
ENDROOT
BRANCH   8   3
ATOM      3  O   UNL     1      -0.984   0.938  26.146  0.00  0.00    -0.388 OA
ATOM     27  H   UNL     1      -0.192   0.530  26.535  0.00  0.00    +0.210 HD
ENDBRANCH   8   3
BRANCH  10   6
ATOM      6  N   UNL     1       0.637   0.432  23.501  0.00  0.00    -0.305 NA
ATOM     26  H   UNL     1       1.228   1.007  24.102  0.00  0.00    +0.123 HD
BRANCH   6  18
ATOM     18  C   UNL     1       1.483  -0.312  22.576  0.00  0.00    +0.116 C 
BRANCH  18  19
ATOM      1  F   UNL     1       6.918  -0.065  24.044  0.00  0.00    -0.205 F 
ATOM     19  C   UNL     1       2.935  -0.246  22.969  0.00  0.00    -0.033 A 
ATOM     20  C   UNL     1       3.671   0.913  22.724  0.00  0.00    +0.008 A 
ATOM     21  C   UNL     1       3.544  -1.344  23.576  0.00  0.00    +0.008 A 
ATOM     22  C   UNL     1       5.016   0.975  23.086  0.00  0.00    +0.038 A 
ATOM     23  C   UNL     1       4.889  -1.283  23.939  0.00  0.00    +0.038 A 
ATOM     24  C   UNL     1       5.626  -0.123  23.694  0.00  0.00    +0.123 A 
ENDBRANCH  18  19
ENDBRANCH   6  18
ENDBRANCH  10   6
BRANCH   7  16
ATOM     16  C   UNL     1      -3.680  -0.674  25.456  0.00  0.00    +0.138 C 
BRANCH  16   5
ATOM      4  O   UNL     1      -5.956   0.993  26.140  0.00  0.00    -0.276 OA
ATOM      5  N   UNL     1      -3.956   0.656  24.995  0.00  0.00    -0.313 N 
ATOM     17  C   UNL     1      -5.077   1.384  25.377  0.00  0.00    +0.216 C 
ATOM     25  H   UNL     1      -3.288   1.078  24.356  0.00  0.00    +0.149 HD
BRANCH  17   9
ATOM      9  C   UNL     1      -5.109   2.753  24.769  0.00  0.00    +0.075 C 
ATOM     11  C   UNL     1      -3.955   2.920  23.774  0.00  0.00    +0.013 C 
ATOM     12  C   UNL     1      -4.907   3.824  25.842  0.00  0.00    +0.013 C 
ATOM     13  C   UNL     1      -3.176   4.145  24.241  0.00  0.00    +0.001 C 
ATOM     14  C   UNL     1      -3.436   4.203  25.736  0.00  0.00    +0.001 C 
ENDBRANCH  17   9
ENDBRANCH  16   5
ENDBRANCH   7  16
TORSDOF 7
ENDMDL
MODEL 9
REMARK VINA RESULT:      -4.2      2.883      5.881
REMARK  Name = 75536560
REMARK  7 active torsions:
REMARK  status: ('A' for Active; 'I' for Inactive)
REMARK    1  A    between atoms: O_3  and  C_8
REMARK    2  A    between atoms: N_5  and  C_16
REMARK    3  A    between atoms: N_6  and  C_10
REMARK    4  A    between atoms: N_6  and  C_18
REMARK    5  A    between atoms: C_7  and  C_16
REMARK    6  A    between atoms: C_9  and  C_17
REMARK    7  A    between atoms: C_18  and  C_19
REMARK                            x       y       z     vdW  Elec       q    Type
REMARK                         _______ _______ _______ _____ _____    ______ ____
ROOT
ATOM      2  O   UNL     1      -4.121   3.406  24.051  0.00  0.00    -0.371 OA
ATOM      7  C   UNL     1      -4.672   3.768  25.328  0.00  0.00    +0.165 C 
ATOM      8  C   UNL     1      -5.094   2.461  25.988  0.00  0.00    +0.164 C 
ATOM     10  C   UNL     1      -5.554   1.661  24.784  0.00  0.00    +0.111 C 
ATOM     15  C   UNL     1      -4.520   2.059  23.745  0.00  0.00    +0.181 C 
ENDROOT
BRANCH   8   3
ATOM      3  O   UNL     1      -6.123   2.660  26.939  0.00  0.00    -0.388 OA
ATOM     27  H   UNL     1      -6.969   2.729  26.464  0.00  0.00    +0.210 HD
ENDBRANCH   8   3
BRANCH  10   6
ATOM      6  N   UNL     1      -5.598   0.227  25.020  0.00  0.00    -0.305 NA
ATOM     26  H   UNL     1      -6.569  -0.086  24.989  0.00  0.00    +0.123 HD
BRANCH   6  18
ATOM     18  C   UNL     1      -4.837  -0.495  24.008  0.00  0.00    +0.116 C 
BRANCH  18  19
ATOM      1  F   UNL     1       0.171  -2.185  25.961  0.00  0.00    -0.205 F 
ATOM     19  C   UNL     1      -3.498  -0.947  24.530  0.00  0.00    -0.033 A 
ATOM     20  C   UNL     1      -2.501  -1.344  23.639  0.00  0.00    +0.008 A 
ATOM     21  C   UNL     1      -3.257  -0.969  25.903  0.00  0.00    +0.008 A 
ATOM     22  C   UNL     1      -1.261  -1.762  24.122  0.00  0.00    +0.038 A 
ATOM     23  C   UNL     1      -2.017  -1.387  26.387  0.00  0.00    +0.038 A 
ATOM     24  C   UNL     1      -1.019  -1.784  25.496  0.00  0.00    +0.123 A 
ENDBRANCH  18  19
ENDBRANCH   6  18
ENDBRANCH  10   6
BRANCH   7  16
ATOM     16  C   UNL     1      -3.643   4.542  26.132  0.00  0.00    +0.138 C 
BRANCH  16   5
ATOM      4  O   UNL     1      -1.348   5.767  24.844  0.00  0.00    -0.276 OA
ATOM      5  N   UNL     1      -2.330   3.983  25.975  0.00  0.00    -0.313 N 
ATOM     17  C   UNL     1      -1.286   4.646  25.340  0.00  0.00    +0.216 C 
ATOM     25  H   UNL     1      -2.169   3.054  26.353  0.00  0.00    +0.149 HD
BRANCH  17   9
ATOM      9  C   UNL     1      -0.017   3.847  25.335  0.00  0.00    +0.075 C 
ATOM     11  C   UNL     1       0.156   3.135  23.989  0.00  0.00    +0.013 C 
ATOM     12  C   UNL     1      -0.067   2.749  26.398  0.00  0.00    +0.013 C 
ATOM     13  C   UNL     1       0.305   1.653  24.319  0.00  0.00    +0.001 C 
ATOM     14  C   UNL     1      -0.441   1.488  25.631  0.00  0.00    +0.001 C 
ENDBRANCH  17   9
ENDBRANCH  16   5
ENDBRANCH   7  16
TORSDOF 7
ENDMDL
MODEL 10
REMARK VINA RESULT:      -3.9      2.222      5.016
REMARK  Name = 75536560
REMARK  7 active torsions:
REMARK  status: ('A' for Active; 'I' for Inactive)
REMARK    1  A    between atoms: O_3  and  C_8
REMARK    2  A    between atoms: N_5  and  C_16
REMARK    3  A    between atoms: N_6  and  C_10
REMARK    4  A    between atoms: N_6  and  C_18
REMARK    5  A    between atoms: C_7  and  C_16
REMARK    6  A    between atoms: C_9  and  C_17
REMARK    7  A    between atoms: C_18  and  C_19
REMARK                            x       y       z     vdW  Elec       q    Type
REMARK                         _______ _______ _______ _____ _____    ______ ____
ROOT
ATOM      2  O   UNL     1      -2.141  -2.687  24.287  0.00  0.00    -0.371 OA
ATOM      7  C   UNL     1      -2.802  -1.559  24.885  0.00  0.00    +0.165 C 
ATOM      8  C   UNL     1      -2.042  -0.327  24.412  0.00  0.00    +0.164 C 
ATOM     10  C   UNL     1      -0.623  -0.863  24.357  0.00  0.00    +0.111 C 
ATOM     15  C   UNL     1      -0.851  -2.263  23.814  0.00  0.00    +0.181 C 
ENDROOT
BRANCH   8   3
ATOM      3  O   UNL     1      -2.183   0.756  25.311  0.00  0.00    -0.388 OA
ATOM     27  H   UNL     1      -3.119   0.822  25.566  0.00  0.00    +0.210 HD
ENDBRANCH   8   3
BRANCH  10   6
ATOM      6  N   UNL     1       0.268  -0.071  23.524  0.00  0.00    -0.305 NA
ATOM     26  H   UNL     1      -0.290   0.491  22.881  0.00  0.00    +0.123 HD
BRANCH   6  18
ATOM     18  C   UNL     1       1.093   0.818  24.334  0.00  0.00    +0.116 C 
BRANCH  18  19
ATOM      1  F   UNL     1      -1.523   5.686  25.434  0.00  0.00    -0.205 F 
ATOM     19  C   UNL     1       0.394   2.119  24.628  0.00  0.00    -0.033 A 
ATOM     20  C   UNL     1       0.057   2.980  23.584  0.00  0.00    +0.008 A 
ATOM     21  C   UNL     1       0.083   2.462  25.944  0.00  0.00    +0.008 A 
ATOM     22  C   UNL     1      -0.590   4.186  23.856  0.00  0.00    +0.038 A 
ATOM     23  C   UNL     1      -0.564   3.667  26.216  0.00  0.00    +0.038 A 
ATOM     24  C   UNL     1      -0.900   4.529  25.172  0.00  0.00    +0.123 A 
ENDBRANCH  18  19
ENDBRANCH   6  18
ENDBRANCH  10   6
BRANCH   7  16
ATOM     16  C   UNL     1      -4.267  -1.550  24.488  0.00  0.00    +0.138 C 
BRANCH  16   5
ATOM      4  O   UNL     1      -5.096   0.509  26.359  0.00  0.00    -0.276 OA
ATOM      5  N   UNL     1      -4.716  -0.223  24.180  0.00  0.00    -0.313 N 
ATOM     17  C   UNL     1      -5.095   0.702  25.146  0.00  0.00    +0.216 C 
ATOM     25  H   UNL     1      -4.752   0.044  23.200  0.00  0.00    +0.149 HD
BRANCH  17   9
ATOM      9  C   UNL     1      -5.498   2.019  24.555  0.00  0.00    +0.075 C 
ATOM     11  C   UNL     1      -4.387   2.555  23.645  0.00  0.00    +0.013 C 
ATOM     12  C   UNL     1      -5.695   3.066  25.653  0.00  0.00    +0.013 C 
ATOM     13  C   UNL     1      -4.042   3.941  24.181  0.00  0.00    +0.001 C 
ATOM     14  C   UNL     1      -4.401   3.869  25.655  0.00  0.00    +0.001 C 
ENDBRANCH  17   9
ENDBRANCH  16   5
ENDBRANCH   7  16
TORSDOF 7
ENDMDL
