MODEL 1
REMARK VINA RESULT:      -2.6      0.000      0.000
REMARK  Name = 75366999
REMARK  9 active torsions:
REMARK  status: ('A' for Active; 'I' for Inactive)
REMARK    1  A    between atoms: O_3  and  C_12
REMARK    2  A    between atoms: O_6  and  C_21
REMARK    3  A    between atoms: O_6  and  C_25
REMARK    4  A    between atoms: N_7  and  C_16
REMARK    5  A    between atoms: N_9  and  C_22
REMARK    6  A    between atoms: C_10  and  C_15
REMARK    7  A    between atoms: C_11  and  C_16
REMARK    8  A    between atoms: C_15  and  C_17
REMARK    9  A    between atoms: C_20  and  C_21
REMARK                            x       y       z     vdW  Elec       q    Type
REMARK                         _______ _______ _______ _____ _____    ______ ____
ROOT
ATOM      2  O   UNL     1      -3.121   0.428  24.745  0.00  0.00    -0.369 OA
ATOM     10  C   UNL     1      -3.970  -0.580  24.193  0.00  0.00    +0.125 C 
ATOM     11  C   UNL     1      -1.717   0.228  24.531  0.00  0.00    +0.164 C 
ATOM     12  C   UNL     1      -1.264  -1.143  25.051  0.00  0.00    +0.145 C 
ATOM     13  C   UNL     1      -3.630  -1.951  24.776  0.00  0.00    +0.034 C 
ATOM     14  C   UNL     1      -2.156  -2.278  24.555  0.00  0.00    +0.036 C 
ENDROOT
BRANCH  12   3
ATOM      3  O   UNL     1      -1.323  -1.135  26.481  0.00  0.00    -0.389 OA
ATOM     34  H   UNL     1      -0.421  -1.280  26.812  0.00  0.00    +0.210 HD
ENDBRANCH  12   3
BRANCH  10  15
ATOM     15  C   UNL     1      -5.409  -0.195  24.518  0.00  0.00    +0.090 C 
BRANCH  15  17
ATOM      4  O   UNL     1      -6.075   2.780  26.440  0.00  0.00    -0.356 OA
ATOM      8  N   UNL     1      -6.201   1.417  26.199  0.00  0.00    -0.083 NA
ATOM     17  C   UNL     1      -5.499   1.196  25.084  0.00  0.00    +0.086 A 
ATOM     18  C   UNL     1      -4.914   2.370  24.581  0.00  0.00    +0.074 A 
ATOM     20  C   UNL     1      -5.307   3.336  25.469  0.00  0.00    +0.175 A 
BRANCH  20  21
ATOM     21  C   UNL     1      -5.071   4.782  25.569  0.00  0.00    +0.306 C 
BRANCH  21   6
ATOM      6  O   UNL     1      -3.963   5.046  26.434  0.00  0.00    -0.484 OA
BRANCH   6  25
ATOM     25  C   UNL     1      -2.733   4.652  25.986  0.00  0.00    +0.121 A 
ATOM     28  C   UNL     1      -2.188   3.442  26.416  0.00  0.00    +0.045 A 
ATOM     29  C   UNL     1      -2.023   5.461  25.099  0.00  0.00    +0.045 A 
ATOM     31  C   UNL     1      -0.933   3.040  25.959  0.00  0.00    +0.004 A 
ATOM     32  C   UNL     1      -0.768   5.058  24.642  0.00  0.00    +0.004 A 
ATOM     33  C   UNL     1      -0.223   3.849  25.072  0.00  0.00    +0.000 A 
ENDBRANCH   6  25
ENDBRANCH  21   6
ENDBRANCH  20  21
ENDBRANCH  15  17
ENDBRANCH  10  15
BRANCH  11  16
ATOM     16  C   UNL     1      -1.344   0.463  23.069  0.00  0.00    +0.140 C 
BRANCH  16   7
ATOM      5  O   UNL     1       1.214   1.216  24.116  0.00  0.00    -0.253 OA
ATOM      7  N   UNL     1      -0.082  -0.136  22.758  0.00  0.00    -0.297 N 
ATOM      9  N   UNL     1       2.198  -0.480  22.826  0.00  0.00    -0.269 N 
ATOM     19  C   UNL     1       1.138   0.288  23.313  0.00  0.00    +0.304 C 
ATOM     35  H   UNL     1      -0.063  -0.878  22.066  0.00  0.00    +0.150 HD
ATOM     36  H   UNL     1       1.961  -1.216  22.164  0.00  0.00    +0.156 HD
BRANCH   9  22
ATOM      1  F   UNL     1       7.581  -0.034  24.068  0.00  0.00    -0.205 F 
ATOM     22  C   UNL     1       3.571  -0.366  23.142  0.00  0.00    +0.035 A 
ATOM     23  C   UNL     1       4.263   0.807  22.837  0.00  0.00    +0.026 A 
ATOM     24  C   UNL     1       4.234  -1.426  23.760  0.00  0.00    +0.026 A 
ATOM     26  C   UNL     1       5.618   0.918  23.150  0.00  0.00    +0.040 A 
ATOM     27  C   UNL     1       5.590  -1.314  24.073  0.00  0.00    +0.040 A 
ATOM     30  C   UNL     1       6.281  -0.141  23.768  0.00  0.00    +0.124 A 
ENDBRANCH   9  22
ENDBRANCH  16   7
ENDBRANCH  11  16
TORSDOF 9
ENDMDL
MODEL 2
REMARK VINA RESULT:      -1.6      2.640      7.522
REMARK  Name = 75366999
REMARK  9 active torsions:
REMARK  status: ('A' for Active; 'I' for Inactive)
REMARK    1  A    between atoms: O_3  and  C_12
REMARK    2  A    between atoms: O_6  and  C_21
REMARK    3  A    between atoms: O_6  and  C_25
REMARK    4  A    between atoms: N_7  and  C_16
REMARK    5  A    between atoms: N_9  and  C_22
REMARK    6  A    between atoms: C_10  and  C_15
REMARK    7  A    between atoms: C_11  and  C_16
REMARK    8  A    between atoms: C_15  and  C_17
REMARK    9  A    between atoms: C_20  and  C_21
REMARK                            x       y       z     vdW  Elec       q    Type
REMARK                         _______ _______ _______ _____ _____    ______ ____
ROOT
ATOM      2  O   UNL     1      -2.303   3.918  26.332  0.00  0.00    -0.369 OA
ATOM     10  C   UNL     1      -1.652   3.165  25.306  0.00  0.00    +0.125 C 
ATOM     11  C   UNL     1      -3.214   4.922  25.866  0.00  0.00    +0.164 C 
ATOM     12  C   UNL     1      -2.526   5.894  24.898  0.00  0.00    +0.145 C 
ATOM     13  C   UNL     1      -0.854   4.087  24.385  0.00  0.00    +0.034 C 
ATOM     14  C   UNL     1      -1.754   5.170  23.798  0.00  0.00    +0.036 C 
ENDROOT
BRANCH  12   3
ATOM      3  O   UNL     1      -1.593   6.692  25.633  0.00  0.00    -0.389 OA
ATOM     34  H   UNL     1      -1.503   6.299  26.517  0.00  0.00    +0.210 HD
ENDBRANCH  12   3
BRANCH  10  15
ATOM     15  C   UNL     1      -0.736   2.157  25.990  0.00  0.00    +0.090 C 
BRANCH  15  17
ATOM      4  O   UNL     1      -0.049  -0.925  24.253  0.00  0.00    -0.356 OA
ATOM      8  N   UNL     1      -0.591  -0.203  25.309  0.00  0.00    -0.083 NA
ATOM     17  C   UNL     1      -0.295   1.073  25.044  0.00  0.00    +0.086 A 
ATOM     18  C   UNL     1       0.425   1.215  23.846  0.00  0.00    +0.074 A 
ATOM     20  C   UNL     1       0.554  -0.069  23.388  0.00  0.00    +0.175 A 
BRANCH  20  21
ATOM     21  C   UNL     1       1.184  -0.669  22.206  0.00  0.00    +0.306 C 
BRANCH  21   6
ATOM      6  O   UNL     1       2.355   0.066  21.841  0.00  0.00    -0.484 OA
BRANCH   6  25
ATOM     25  C   UNL     1       3.454  -0.103  22.637  0.00  0.00    +0.121 A 
ATOM     28  C   UNL     1       3.692  -1.335  23.245  0.00  0.00    +0.045 A 
ATOM     29  C   UNL     1       4.336   0.959  22.841  0.00  0.00    +0.045 A 
ATOM     31  C   UNL     1       4.813  -1.507  24.057  0.00  0.00    +0.004 A 
ATOM     32  C   UNL     1       5.457   0.785  23.653  0.00  0.00    +0.004 A 
ATOM     33  C   UNL     1       5.695  -0.447  24.261  0.00  0.00    +0.000 A 
ENDBRANCH   6  25
ENDBRANCH  21   6
ENDBRANCH  20  21
ENDBRANCH  15  17
ENDBRANCH  10  15
BRANCH  11  16
ATOM     16  C   UNL     1      -4.476   4.292  25.281  0.00  0.00    +0.140 C 
BRANCH  16   7
ATOM      5  O   UNL     1      -3.663   1.987  23.787  0.00  0.00    -0.253 OA
ATOM      7  N   UNL     1      -4.601   2.924  25.682  0.00  0.00    -0.297 N 
ATOM      9  N   UNL     1      -4.426   0.629  25.542  0.00  0.00    -0.269 N 
ATOM     19  C   UNL     1      -4.177   1.840  24.893  0.00  0.00    +0.304 C 
ATOM     35  H   UNL     1      -5.060   2.726  26.566  0.00  0.00    +0.150 HD
ATOM     36  H   UNL     1      -4.859   0.684  26.462  0.00  0.00    +0.156 HD
BRANCH   9  22
ATOM      1  F   UNL     1      -3.322  -4.493  23.732  0.00  0.00    -0.205 F 
ATOM     22  C   UNL     1      -4.145  -0.678  25.080  0.00  0.00    +0.035 A 
ATOM     23  C   UNL     1      -4.599  -1.088  23.826  0.00  0.00    +0.026 A 
ATOM     24  C   UNL     1      -3.412  -1.557  25.878  0.00  0.00    +0.026 A 
ATOM     26  C   UNL     1      -4.321  -2.377  23.372  0.00  0.00    +0.040 A 
ATOM     27  C   UNL     1      -3.134  -2.846  25.422  0.00  0.00    +0.040 A 
ATOM     30  C   UNL     1      -3.589  -3.256  24.169  0.00  0.00    +0.124 A 
ENDBRANCH   9  22
ENDBRANCH  16   7
ENDBRANCH  11  16
TORSDOF 9
ENDMDL
MODEL 3
REMARK VINA RESULT:      -0.2     15.158     18.220
REMARK  Name = 75366999
REMARK  9 active torsions:
REMARK  status: ('A' for Active; 'I' for Inactive)
REMARK    1  A    between atoms: O_3  and  C_12
REMARK    2  A    between atoms: O_6  and  C_21
REMARK    3  A    between atoms: O_6  and  C_25
REMARK    4  A    between atoms: N_7  and  C_16
REMARK    5  A    between atoms: N_9  and  C_22
REMARK    6  A    between atoms: C_10  and  C_15
REMARK    7  A    between atoms: C_11  and  C_16
REMARK    8  A    between atoms: C_15  and  C_17
REMARK    9  A    between atoms: C_20  and  C_21
REMARK                            x       y       z     vdW  Elec       q    Type
REMARK                         _______ _______ _______ _____ _____    ______ ____
ROOT
ATOM      2  O   UNL     1      -6.163  -9.255  11.554  0.00  0.00    -0.369 OA
ATOM     10  C   UNL     1      -5.701 -10.581  11.288  0.00  0.00    +0.125 C 
ATOM     11  C   UNL     1      -7.383  -8.890  10.895  0.00  0.00    +0.164 C 
ATOM     12  C   UNL     1      -7.276  -9.083   9.377  0.00  0.00    +0.145 C 
ATOM     13  C   UNL     1      -5.467 -10.780   9.791  0.00  0.00    +0.034 C 
ATOM     14  C   UNL     1      -6.733 -10.460   9.002  0.00  0.00    +0.036 C 
ENDROOT
BRANCH  12   3
ATOM      3  O   UNL     1      -6.378  -8.102   8.849  0.00  0.00    -0.389 OA
ATOM     34  H   UNL     1      -5.508  -8.252   9.256  0.00  0.00    +0.210 HD
ENDBRANCH  12   3
BRANCH  10  15
ATOM     15  C   UNL     1      -4.408 -10.781  12.070  0.00  0.00    +0.090 C 
BRANCH  15  17
ATOM      4  O   UNL     1      -2.240  -8.651  10.132  0.00  0.00    -0.356 OA
ATOM      8  N   UNL     1      -3.490  -9.164  10.458  0.00  0.00    -0.083 NA
ATOM     17  C   UNL     1      -3.262 -10.026  11.453  0.00  0.00    +0.086 A 
ATOM     18  C   UNL     1      -1.901 -10.098  11.794  0.00  0.00    +0.074 A 
ATOM     20  C   UNL     1      -1.302  -9.215  10.935  0.00  0.00    +0.175 A 
BRANCH  20  21
ATOM     21  C   UNL     1       0.085  -8.784  10.723  0.00  0.00    +0.306 C 
BRANCH  21   6
ATOM      6  O   UNL     1       0.733  -8.561  11.979  0.00  0.00    -0.484 OA
BRANCH   6  25
ATOM     25  C   UNL     1       1.612  -7.515  12.034  0.00  0.00    +0.121 A 
ATOM     28  C   UNL     1       2.982  -7.748  11.916  0.00  0.00    +0.045 A 
ATOM     29  C   UNL     1       1.137  -6.215  12.208  0.00  0.00    +0.045 A 
ATOM     31  C   UNL     1       3.878  -6.680  11.973  0.00  0.00    +0.004 A 
ATOM     32  C   UNL     1       2.034  -5.148  12.264  0.00  0.00    +0.004 A 
ATOM     33  C   UNL     1       3.404  -5.381  12.146  0.00  0.00    +0.000 A 
ENDBRANCH   6  25
ENDBRANCH  21   6
ENDBRANCH  20  21
ENDBRANCH  15  17
ENDBRANCH  10  15
BRANCH  11  16
ATOM     16  C   UNL     1      -8.577  -9.619  11.506  0.00  0.00    +0.140 C 
BRANCH  16   7
ATOM      5  O   UNL     1      -9.830  -9.161  14.041  0.00  0.00    -0.253 OA
ATOM      7  N   UNL     1      -8.227 -10.223  12.756  0.00  0.00    -0.297 N 
ATOM      9  N   UNL     1      -8.330 -10.682  15.013  0.00  0.00    -0.269 N 
ATOM     19  C   UNL     1      -8.890  -9.949  13.964  0.00  0.00    +0.304 C 
ATOM     35  H   UNL     1      -7.428 -10.849  12.776  0.00  0.00    +0.150 HD
ATOM     36  H   UNL     1      -7.553 -11.295  14.777  0.00  0.00    +0.156 HD
BRANCH   9  22
ATOM      1  F   UNL     1      -9.834 -10.694  20.349  0.00  0.00    -0.205 F 
ATOM     22  C   UNL     1      -8.715 -10.684  16.374  0.00  0.00    +0.035 A 
ATOM     23  C   UNL     1     -10.065 -10.623  16.719  0.00  0.00    +0.026 A 
ATOM     24  C   UNL     1      -7.743 -10.749  17.372  0.00  0.00    +0.026 A 
ATOM     26  C   UNL     1     -10.443 -10.626  18.061  0.00  0.00    +0.040 A 
ATOM     27  C   UNL     1      -8.121 -10.752  18.716  0.00  0.00    +0.040 A 
ATOM     30  C   UNL     1      -9.471 -10.690  19.060  0.00  0.00    +0.124 A 
ENDBRANCH   9  22
ENDBRANCH  16   7
ENDBRANCH  11  16
TORSDOF 9
ENDMDL
MODEL 4
REMARK VINA RESULT:       0.2      1.475      2.088
REMARK  Name = 75366999
REMARK  9 active torsions:
REMARK  status: ('A' for Active; 'I' for Inactive)
REMARK    1  A    between atoms: O_3  and  C_12
REMARK    2  A    between atoms: O_6  and  C_21
REMARK    3  A    between atoms: O_6  and  C_25
REMARK    4  A    between atoms: N_7  and  C_16
REMARK    5  A    between atoms: N_9  and  C_22
REMARK    6  A    between atoms: C_10  and  C_15
REMARK    7  A    between atoms: C_11  and  C_16
REMARK    8  A    between atoms: C_15  and  C_17
REMARK    9  A    between atoms: C_20  and  C_21
REMARK                            x       y       z     vdW  Elec       q    Type
REMARK                         _______ _______ _______ _____ _____    ______ ____
ROOT
ATOM      2  O   UNL     1      -3.343  -0.435  25.217  0.00  0.00    -0.369 OA
ATOM     10  C   UNL     1      -4.305  -0.299  24.169  0.00  0.00    +0.125 C 
ATOM     11  C   UNL     1      -2.307  -1.395  24.974  0.00  0.00    +0.164 C 
ATOM     12  C   UNL     1      -2.891  -2.777  24.656  0.00  0.00    +0.145 C 
ATOM     13  C   UNL     1      -5.000  -1.634  23.899  0.00  0.00    +0.034 C 
ATOM     14  C   UNL     1      -3.974  -2.719  23.581  0.00  0.00    +0.036 C 
ENDROOT
BRANCH  12   3
ATOM      3  O   UNL     1      -3.484  -3.311  25.844  0.00  0.00    -0.389 OA
ATOM     34  H   UNL     1      -4.114  -2.652  26.179  0.00  0.00    +0.210 HD
ENDBRANCH  12   3
BRANCH  10  15
ATOM     15  C   UNL     1      -5.312   0.757  24.606  0.00  0.00    +0.090 C 
BRANCH  15  17
ATOM      4  O   UNL     1      -3.841   3.973  23.912  0.00  0.00    -0.356 OA
ATOM      8  N   UNL     1      -4.372   2.753  23.515  0.00  0.00    -0.083 NA
ATOM     17  C   UNL     1      -4.696   2.129  24.652  0.00  0.00    +0.086 A 
ATOM     18  C   UNL     1      -4.395   2.901  25.787  0.00  0.00    +0.074 A 
ATOM     20  C   UNL     1      -3.859   4.049  25.267  0.00  0.00    +0.175 A 
BRANCH  20  21
ATOM     21  C   UNL     1      -3.328   5.283  25.861  0.00  0.00    +0.306 C 
BRANCH  21   6
ATOM      6  O   UNL     1      -1.970   5.483  25.460  0.00  0.00    -0.484 OA
BRANCH   6  25
ATOM     25  C   UNL     1      -1.192   4.363  25.366  0.00  0.00    +0.121 A 
ATOM     28  C   UNL     1      -0.505   4.088  24.184  0.00  0.00    +0.045 A 
ATOM     29  C   UNL     1      -1.087   3.495  26.453  0.00  0.00    +0.045 A 
ATOM     31  C   UNL     1       0.290   2.945  24.088  0.00  0.00    +0.004 A 
ATOM     32  C   UNL     1      -0.292   2.352  26.356  0.00  0.00    +0.004 A 
ATOM     33  C   UNL     1       0.395   2.077  25.175  0.00  0.00    +0.000 A 
ENDBRANCH   6  25
ENDBRANCH  21   6
ENDBRANCH  20  21
ENDBRANCH  15  17
ENDBRANCH  10  15
BRANCH  11  16
ATOM     16  C   UNL     1      -1.335  -0.899  23.905  0.00  0.00    +0.140 C 
BRANCH  16   7
ATOM      5  O   UNL     1       1.041   0.132  22.681  0.00  0.00    -0.253 OA
ATOM      7  N   UNL     1       0.015  -1.230  24.245  0.00  0.00    -0.297 N 
ATOM      9  N   UNL     1       2.319  -1.189  24.141  0.00  0.00    -0.269 N 
ATOM     19  C   UNL     1       1.136  -0.681  23.598  0.00  0.00    +0.304 C 
ATOM     35  H   UNL     1       0.169  -1.932  24.963  0.00  0.00    +0.150 HD
ATOM     36  H   UNL     1       2.221  -1.857  24.902  0.00  0.00    +0.156 HD
BRANCH   9  22
ATOM      1  F   UNL     1       7.527   0.003  22.664  0.00  0.00    -0.205 F 
ATOM     22  C   UNL     1       3.648  -0.885  23.765  0.00  0.00    +0.035 A 
ATOM     23  C   UNL     1       4.674  -1.793  24.031  0.00  0.00    +0.026 A 
ATOM     24  C   UNL     1       3.933   0.322  23.128  0.00  0.00    +0.026 A 
ATOM     26  C   UNL     1       5.984  -1.492  23.659  0.00  0.00    +0.040 A 
ATOM     27  C   UNL     1       5.244   0.623  22.756  0.00  0.00    +0.040 A 
ATOM     30  C   UNL     1       6.269  -0.285  23.022  0.00  0.00    +0.124 A 
ENDBRANCH   9  22
ENDBRANCH  16   7
ENDBRANCH  11  16
TORSDOF 9
ENDMDL
MODEL 5
REMARK VINA RESULT:       1.3     14.747     17.827
REMARK  Name = 75366999
REMARK  9 active torsions:
REMARK  status: ('A' for Active; 'I' for Inactive)
REMARK    1  A    between atoms: O_3  and  C_12
REMARK    2  A    between atoms: O_6  and  C_21
REMARK    3  A    between atoms: O_6  and  C_25
REMARK    4  A    between atoms: N_7  and  C_16
REMARK    5  A    between atoms: N_9  and  C_22
REMARK    6  A    between atoms: C_10  and  C_15
REMARK    7  A    between atoms: C_11  and  C_16
REMARK    8  A    between atoms: C_15  and  C_17
REMARK    9  A    between atoms: C_20  and  C_21
REMARK                            x       y       z     vdW  Elec       q    Type
REMARK                         _______ _______ _______ _____ _____    ______ ____
ROOT
ATOM      2  O   UNL     1      -4.599  -9.451  11.851  0.00  0.00    -0.369 OA
ATOM     10  C   UNL     1      -3.813 -10.182  10.907  0.00  0.00    +0.125 C 
ATOM     11  C   UNL     1      -5.765  -8.816  11.313  0.00  0.00    +0.164 C 
ATOM     12  C   UNL     1      -5.406  -7.890  10.144  0.00  0.00    +0.145 C 
ATOM     13  C   UNL     1      -3.333  -9.266   9.782  0.00  0.00    +0.034 C 
ATOM     14  C   UNL     1      -4.516  -8.575   9.110  0.00  0.00    +0.036 C 
ENDROOT
BRANCH  12   3
ATOM      3  O   UNL     1      -4.692  -6.760  10.654  0.00  0.00    -0.389 OA
ATOM     34  H   UNL     1      -4.073  -6.469   9.964  0.00  0.00    +0.210 HD
ENDBRANCH  12   3
BRANCH  10  15
ATOM     15  C   UNL     1      -2.631 -10.781  11.660  0.00  0.00    +0.090 C 
BRANCH  15  17
ATOM      4  O   UNL     1      -0.541  -8.495  13.503  0.00  0.00    -0.356 OA
ATOM      8  N   UNL     1      -1.471  -9.525  13.429  0.00  0.00    -0.083 NA
ATOM     17  C   UNL     1      -1.670  -9.720  12.123  0.00  0.00    +0.086 A 
ATOM     18  C   UNL     1      -0.900  -8.851  11.331  0.00  0.00    +0.074 A 
ATOM     20  C   UNL     1      -0.209  -8.102  12.247  0.00  0.00    +0.175 A 
BRANCH  20  21
ATOM     21  C   UNL     1       0.769  -7.013  12.139  0.00  0.00    +0.306 C 
BRANCH  21   6
ATOM      6  O   UNL     1       1.954  -7.472  11.483  0.00  0.00    -0.484 OA
BRANCH   6  25
ATOM     25  C   UNL     1       3.143  -7.023  11.987  0.00  0.00    +0.121 A 
ATOM     28  C   UNL     1       4.247  -7.873  12.032  0.00  0.00    +0.045 A 
ATOM     29  C   UNL     1       3.249  -5.714  12.458  0.00  0.00    +0.045 A 
ATOM     31  C   UNL     1       5.460  -7.414  12.547  0.00  0.00    +0.004 A 
ATOM     32  C   UNL     1       4.462  -5.256  12.972  0.00  0.00    +0.004 A 
ATOM     33  C   UNL     1       5.567  -6.106  13.017  0.00  0.00    +0.000 A 
ENDBRANCH   6  25
ENDBRANCH  21   6
ENDBRANCH  20  21
ENDBRANCH  15  17
ENDBRANCH  10  15
BRANCH  11  16
ATOM     16  C   UNL     1      -6.835  -9.844  10.951  0.00  0.00    +0.140 C 
BRANCH  16   7
ATOM      5  O   UNL     1      -7.875  -8.637  13.332  0.00  0.00    -0.253 OA
ATOM      7  N   UNL     1      -7.310 -10.524  12.118  0.00  0.00    -0.297 N 
ATOM      9  N   UNL     1      -8.197 -10.781  14.232  0.00  0.00    -0.269 N 
ATOM     19  C   UNL     1      -7.809  -9.862  13.254  0.00  0.00    +0.304 C 
ATOM     35  H   UNL     1      -7.241 -11.537  12.143  0.00  0.00    +0.150 HD
ATOM     36  H   UNL     1      -8.077 -11.766  14.005  0.00  0.00    +0.156 HD
BRANCH   9  22
ATOM      1  F   UNL     1     -10.347  -9.727  19.231  0.00  0.00    -0.205 F 
ATOM     22  C   UNL     1      -8.745 -10.513  15.508  0.00  0.00    +0.035 A 
ATOM     23  C   UNL     1      -7.911 -10.437  16.624  0.00  0.00    +0.026 A 
ATOM     24  C   UNL     1     -10.120 -10.324  15.649  0.00  0.00    +0.026 A 
ATOM     26  C   UNL     1      -8.453 -10.172  17.881  0.00  0.00    +0.040 A 
ATOM     27  C   UNL     1     -10.661 -10.059  16.908  0.00  0.00    +0.040 A 
ATOM     30  C   UNL     1      -9.828  -9.982  18.024  0.00  0.00    +0.124 A 
ENDBRANCH   9  22
ENDBRANCH  16   7
ENDBRANCH  11  16
TORSDOF 9
ENDMDL
MODEL 6
REMARK VINA RESULT:       1.3      2.570      6.856
REMARK  Name = 75366999
REMARK  9 active torsions:
REMARK  status: ('A' for Active; 'I' for Inactive)
REMARK    1  A    between atoms: O_3  and  C_12
REMARK    2  A    between atoms: O_6  and  C_21
REMARK    3  A    between atoms: O_6  and  C_25
REMARK    4  A    between atoms: N_7  and  C_16
REMARK    5  A    between atoms: N_9  and  C_22
REMARK    6  A    between atoms: C_10  and  C_15
REMARK    7  A    between atoms: C_11  and  C_16
REMARK    8  A    between atoms: C_15  and  C_17
REMARK    9  A    between atoms: C_20  and  C_21
REMARK                            x       y       z     vdW  Elec       q    Type
REMARK                         _______ _______ _______ _____ _____    ______ ____
ROOT
ATOM      2  O   UNL     1      -2.755  -0.998  24.242  0.00  0.00    -0.369 OA
ATOM     10  C   UNL     1      -2.583  -1.291  25.630  0.00  0.00    +0.125 C 
ATOM     11  C   UNL     1      -3.986  -1.457  23.669  0.00  0.00    +0.164 C 
ATOM     12  C   UNL     1      -4.174  -2.964  23.884  0.00  0.00    +0.145 C 
ATOM     13  C   UNL     1      -2.645  -2.798  25.874  0.00  0.00    +0.034 C 
ATOM     14  C   UNL     1      -3.951  -3.377  25.337  0.00  0.00    +0.036 C 
ENDROOT
BRANCH  12   3
ATOM      3  O   UNL     1      -3.221  -3.666  23.080  0.00  0.00    -0.389 OA
ATOM     34  H   UNL     1      -2.425  -3.804  23.622  0.00  0.00    +0.210 HD
ENDBRANCH  12   3
BRANCH  10  15
ATOM     15  C   UNL     1      -1.232  -0.728  26.054  0.00  0.00    +0.090 C 
BRANCH  15  17
ATOM      4  O   UNL     1       0.690   1.008  23.547  0.00  0.00    -0.356 OA
ATOM      8  N   UNL     1      -0.053   0.971  24.721  0.00  0.00    -0.083 NA
ATOM     17  C   UNL     1      -0.407  -0.309  24.867  0.00  0.00    +0.086 A 
ATOM     18  C   UNL     1       0.080  -1.118  23.827  0.00  0.00    +0.074 A 
ATOM     20  C   UNL     1       0.761  -0.242  23.024  0.00  0.00    +0.175 A 
BRANCH  20  21
ATOM     21  C   UNL     1       1.515  -0.386  21.772  0.00  0.00    +0.306 C 
BRANCH  21   6
ATOM      6  O   UNL     1       2.676   0.448  21.793  0.00  0.00    -0.484 OA
BRANCH   6  25
ATOM     25  C   UNL     1       3.676   0.079  22.648  0.00  0.00    +0.121 A 
ATOM     28  C   UNL     1       4.663   0.997  23.006  0.00  0.00    +0.045 A 
ATOM     29  C   UNL     1       3.709  -1.217  23.163  0.00  0.00    +0.045 A 
ATOM     31  C   UNL     1       5.684   0.620  23.879  0.00  0.00    +0.004 A 
ATOM     32  C   UNL     1       4.729  -1.593  24.037  0.00  0.00    +0.004 A 
ATOM     33  C   UNL     1       5.717  -0.676  24.394  0.00  0.00    +0.000 A 
ENDBRANCH   6  25
ENDBRANCH  21   6
ENDBRANCH  20  21
ENDBRANCH  15  17
ENDBRANCH  10  15
BRANCH  11  16
ATOM     16  C   UNL     1      -5.169  -0.631  24.171  0.00  0.00    +0.140 C 
BRANCH  16   7
ATOM      5  O   UNL     1      -3.232   1.294  23.303  0.00  0.00    -0.253 OA
ATOM      7  N   UNL     1      -4.721   0.519  24.895  0.00  0.00    -0.297 N 
ATOM      9  N   UNL     1      -3.528   2.445  25.327  0.00  0.00    -0.269 N 
ATOM     19  C   UNL     1      -3.764   1.424  24.404  0.00  0.00    +0.304 C 
ATOM     35  H   UNL     1      -5.084   0.664  25.833  0.00  0.00    +0.150 HD
ATOM     36  H   UNL     1      -4.056   2.406  26.196  0.00  0.00    +0.156 HD
BRANCH   9  22
ATOM      1  F   UNL     1      -0.044   6.730  24.850  0.00  0.00    -0.205 F 
ATOM     22  C   UNL     1      -2.640   3.539  25.205  0.00  0.00    +0.035 A 
ATOM     23  C   UNL     1      -3.134   4.843  25.209  0.00  0.00    +0.026 A 
ATOM     24  C   UNL     1      -1.269   3.312  25.081  0.00  0.00    +0.026 A 
ATOM     26  C   UNL     1      -2.257   5.921  25.089  0.00  0.00    +0.040 A 
ATOM     27  C   UNL     1      -0.392   4.391  24.960  0.00  0.00    +0.040 A 
ATOM     30  C   UNL     1      -0.886   5.696  24.965  0.00  0.00    +0.124 A 
ENDBRANCH   9  22
ENDBRANCH  16   7
ENDBRANCH  11  16
TORSDOF 9
ENDMDL
