MODEL 1
REMARK VINA RESULT:      -4.5      0.000      0.000
REMARK  Name = 51137527
REMARK  7 active torsions:
REMARK  status: ('A' for Active; 'I' for Inactive)
REMARK    1  A    between atoms: N_4  and  C_12
REMARK    2  A    between atoms: N_7  and  C_24
REMARK    3  A    between atoms: N_7  and  C_27
REMARK    4  A    between atoms: N_7  and  C_28
REMARK    5  A    between atoms: C_8  and  C_13
REMARK    6  A    between atoms: C_12  and  C_14
REMARK    7  A    between atoms: C_15  and  C_18
REMARK                            x       y       z     vdW  Elec       q    Type
REMARK                         _______ _______ _______ _____ _____    ______ ____
ROOT
ATOM      4  N   UNL     1      17.109  -5.669  26.821  0.00  0.00    -0.297 NA
ATOM      8  C   UNL     1      16.613  -7.786  27.701  0.00  0.00    +0.092 C 
ATOM      9  C   UNL     1      15.552  -7.402  26.654  0.00  0.00    +0.029 C 
ATOM     10  C   UNL     1      17.331  -6.470  28.027  0.00  0.00    +0.097 C 
ATOM     11  C   UNL     1      15.707  -5.898  26.470  0.00  0.00    +0.085 C 
ENDROOT
BRANCH   8  13
ATOM      3  O   UNL     1      14.744  -8.334  29.184  0.00  0.00    -0.420 OA
ATOM      5  N   UNL     1      16.697  -9.229  29.809  0.00  0.00    -0.112 NA
ATOM      6  N   UNL     1      15.737  -9.615  30.726  0.00  0.00    -0.107 NA
ATOM     13  C   UNL     1      16.072  -8.483  28.927  0.00  0.00    +0.222 A 
ATOM     15  C   UNL     1      14.613  -9.069  30.322  0.00  0.00    +0.248 A 
BRANCH  15  18
ATOM     18  C   UNL     1      13.294  -9.128  30.882  0.00  0.00    +0.039 A 
ATOM     22  C   UNL     1      12.650 -10.358  31.019  0.00  0.00    +0.015 A 
ATOM     23  C   UNL     1      12.658  -7.957  31.292  0.00  0.00    +0.015 A 
ATOM     24  C   UNL     1      10.730  -9.244  31.975  0.00  0.00    +0.029 A 
ATOM     25  C   UNL     1      11.367 -10.415  31.565  0.00  0.00    +0.024 A 
ATOM     26  C   UNL     1      11.376  -8.015  31.838  0.00  0.00    +0.024 A 
BRANCH  24   7
ATOM      7  N   UNL     1       9.433  -9.303  32.525  0.00  0.00    -0.336 N 
ATOM     27  C   UNL     1       8.678  -8.086  32.757  0.00  0.00    +0.129 C 
ATOM     28  C   UNL     1       8.840 -10.579  32.873  0.00  0.00    +0.129 C 
ENDBRANCH  24   7
ENDBRANCH  15  18
ENDBRANCH   8  13
BRANCH   4  12
ATOM     12  C   UNL     1      17.405  -4.259  27.028  0.00  0.00    +0.119 C 
BRANCH  12  14
ATOM      1  F   UNL     1      16.751  -0.011  24.717  0.00  0.00    -0.202 F 
ATOM      2  F   UNL     1      16.798  -1.270  22.291  0.00  0.00    -0.202 F 
ATOM     14  C   UNL     1      17.243  -3.461  25.762  0.00  0.00    -0.030 A 
ATOM     16  C   UNL     1      17.068  -2.078  25.828  0.00  0.00    +0.046 A 
ATOM     17  C   UNL     1      17.267  -4.103  24.524  0.00  0.00    +0.008 A 
ATOM     19  C   UNL     1      16.919  -1.338  24.654  0.00  0.00    +0.159 A 
ATOM     20  C   UNL     1      17.117  -3.363  23.352  0.00  0.00    +0.041 A 
ATOM     21  C   UNL     1      16.942  -1.981  23.417  0.00  0.00    +0.158 A 
ENDBRANCH  12  14
ENDBRANCH   4  12
TORSDOF 5
ENDMDL
MODEL 2
REMARK VINA RESULT:      -3.8      1.339      2.095
REMARK  Name = 51137527
REMARK  7 active torsions:
REMARK  status: ('A' for Active; 'I' for Inactive)
REMARK    1  A    between atoms: N_4  and  C_12
REMARK    2  A    between atoms: N_7  and  C_24
REMARK    3  A    between atoms: N_7  and  C_27
REMARK    4  A    between atoms: N_7  and  C_28
REMARK    5  A    between atoms: C_8  and  C_13
REMARK    6  A    between atoms: C_12  and  C_14
REMARK    7  A    between atoms: C_15  and  C_18
REMARK                            x       y       z     vdW  Elec       q    Type
REMARK                         _______ _______ _______ _____ _____    ______ ____
ROOT
ATOM      4  N   UNL     1      16.888  -7.271  27.681  0.00  0.00    -0.297 NA
ATOM      8  C   UNL     1      16.029  -9.128  28.829  0.00  0.00    +0.092 C 
ATOM      9  C   UNL     1      15.191  -8.872  27.564  0.00  0.00    +0.029 C 
ATOM     10  C   UNL     1      16.831  -7.836  29.032  0.00  0.00    +0.097 C 
ATOM     11  C   UNL     1      15.540  -7.451  27.141  0.00  0.00    +0.085 C 
ENDROOT
BRANCH   8  13
ATOM      3  O   UNL     1      13.905  -9.221  30.043  0.00  0.00    -0.420 OA
ATOM      5  N   UNL     1      15.626 -10.132  31.145  0.00  0.00    -0.112 NA
ATOM      6  N   UNL     1      14.500 -10.252  31.938  0.00  0.00    -0.107 NA
ATOM     13  C   UNL     1      15.232  -9.525  30.050  0.00  0.00    +0.222 A 
ATOM     15  C   UNL     1      13.520  -9.706  31.255  0.00  0.00    +0.248 A 
BRANCH  15  18
ATOM     18  C   UNL     1      12.133  -9.547  31.583  0.00  0.00    +0.039 A 
ATOM     22  C   UNL     1      11.592  -8.269  31.721  0.00  0.00    +0.015 A 
ATOM     23  C   UNL     1      11.325 -10.670  31.762  0.00  0.00    +0.015 A 
ATOM     24  C   UNL     1       9.434  -9.237  32.218  0.00  0.00    +0.029 A 
ATOM     25  C   UNL     1      10.242  -8.114  32.039  0.00  0.00    +0.024 A 
ATOM     26  C   UNL     1       9.976 -10.515  32.080  0.00  0.00    +0.024 A 
BRANCH  24   7
ATOM      7  N   UNL     1       8.070  -9.080  32.541  0.00  0.00    -0.336 N 
ATOM     27  C   UNL     1       7.186 -10.229  32.569  0.00  0.00    +0.129 C 
ATOM     28  C   UNL     1       7.534  -7.768  32.842  0.00  0.00    +0.129 C 
ENDBRANCH  24   7
ENDBRANCH  15  18
ENDBRANCH   8  13
BRANCH   4  12
ATOM     12  C   UNL     1      17.305  -5.878  27.679  0.00  0.00    +0.119 C 
BRANCH  12  14
ATOM      1  F   UNL     1      17.020  -2.044  24.672  0.00  0.00    -0.202 F 
ATOM      2  F   UNL     1      17.247  -3.679  22.491  0.00  0.00    -0.202 F 
ATOM     14  C   UNL     1      17.289  -5.290  26.292  0.00  0.00    -0.030 A 
ATOM     16  C   UNL     1      17.159  -3.912  26.121  0.00  0.00    +0.046 A 
ATOM     17  C   UNL     1      17.405  -6.124  25.180  0.00  0.00    +0.008 A 
ATOM     19  C   UNL     1      17.146  -3.368  24.837  0.00  0.00    +0.159 A 
ATOM     20  C   UNL     1      17.391  -5.579  23.897  0.00  0.00    +0.041 A 
ATOM     21  C   UNL     1      17.260  -4.202  23.724  0.00  0.00    +0.158 A 
ENDBRANCH  12  14
ENDBRANCH   4  12
TORSDOF 5
ENDMDL
MODEL 3
REMARK VINA RESULT:      -0.5      3.476      4.184
REMARK  Name = 51137527
REMARK  7 active torsions:
REMARK  status: ('A' for Active; 'I' for Inactive)
REMARK    1  A    between atoms: N_4  and  C_12
REMARK    2  A    between atoms: N_7  and  C_24
REMARK    3  A    between atoms: N_7  and  C_27
REMARK    4  A    between atoms: N_7  and  C_28
REMARK    5  A    between atoms: C_8  and  C_13
REMARK    6  A    between atoms: C_12  and  C_14
REMARK    7  A    between atoms: C_15  and  C_18
REMARK                            x       y       z     vdW  Elec       q    Type
REMARK                         _______ _______ _______ _____ _____    ______ ____
ROOT
ATOM      4  N   UNL     1      17.172  -8.185  27.638  0.00  0.00    -0.297 NA
ATOM      8  C   UNL     1      16.415  -9.899  29.047  0.00  0.00    +0.092 C 
ATOM      9  C   UNL     1      15.723 -10.016  27.678  0.00  0.00    +0.029 C 
ATOM     10  C   UNL     1      17.012  -8.486  29.062  0.00  0.00    +0.097 C 
ATOM     11  C   UNL     1      15.940  -8.664  27.011  0.00  0.00    +0.085 C 
ENDROOT
BRANCH   8  13
ATOM      3  O   UNL     1      14.189  -9.962  30.064  0.00  0.00    -0.420 OA
ATOM      5  N   UNL     1      15.837 -10.596  31.438  0.00  0.00    -0.112 NA
ATOM      6  N   UNL     1      14.645 -10.678  32.134  0.00  0.00    -0.107 NA
ATOM     13  C   UNL     1      15.522 -10.174  30.235  0.00  0.00    +0.222 A 
ATOM     15  C   UNL     1      13.711 -10.298  31.294  0.00  0.00    +0.248 A 
BRANCH  15  18
ATOM     18  C   UNL     1      12.291 -10.187  31.467  0.00  0.00    +0.039 A 
ATOM     22  C   UNL     1      11.528  -9.486  30.533  0.00  0.00    +0.015 A 
ATOM     23  C   UNL     1      11.675 -10.781  32.568  0.00  0.00    +0.015 A 
ATOM     24  C   UNL     1       9.530  -9.972  31.803  0.00  0.00    +0.029 A 
ATOM     25  C   UNL     1      10.147  -9.378  30.702  0.00  0.00    +0.024 A 
ATOM     26  C   UNL     1      10.294 -10.673  32.737  0.00  0.00    +0.024 A 
BRANCH  24   7
ATOM      7  N   UNL     1       8.134  -9.861  31.974  0.00  0.00    -0.336 N 
ATOM     27  C   UNL     1       7.235 -10.734  31.246  0.00  0.00    +0.129 C 
ATOM     28  C   UNL     1       7.582  -8.868  32.873  0.00  0.00    +0.129 C 
ENDBRANCH  24   7
ENDBRANCH  15  18
ENDBRANCH   8  13
BRANCH   4  12
ATOM     12  C   UNL     1      17.405  -6.770  27.392  0.00  0.00    +0.119 C 
BRANCH  12  14
ATOM      1  F   UNL     1      13.864  -5.882  30.631  0.00  0.00    -0.202 F 
ATOM      2  F   UNL     1      15.065  -3.540  31.372  0.00  0.00    -0.202 F 
ATOM     14  C   UNL     1      16.780  -5.906  28.456  0.00  0.00    -0.030 A 
ATOM     16  C   UNL     1      15.588  -6.302  29.063  0.00  0.00    +0.046 A 
ATOM     17  C   UNL     1      17.392  -4.712  28.834  0.00  0.00    +0.008 A 
ATOM     19  C   UNL     1      15.009  -5.503  30.048  0.00  0.00    +0.159 A 
ATOM     20  C   UNL     1      16.813  -3.913  29.819  0.00  0.00    +0.041 A 
ATOM     21  C   UNL     1      15.621  -4.307  30.426  0.00  0.00    +0.158 A 
ENDBRANCH  12  14
ENDBRANCH   4  12
TORSDOF 5
ENDMDL
