MODEL 1
REMARK VINA RESULT:       1.5      0.000      0.000
REMARK  Name = 75536856
REMARK  5 active torsions:
REMARK  status: ('A' for Active; 'I' for Inactive)
REMARK    1  A    between atoms: O_5  and  C_10
REMARK    2  A    between atoms: O_5  and  C_17
REMARK    3  A    between atoms: C_15  and  C_16
REMARK    4  A    between atoms: C_24  and  C_27
REMARK    5  A    between atoms: C_25  and  C_28
REMARK                            x       y       z     vdW  Elec       q    Type
REMARK                         _______ _______ _______ _____ _____    ______ ____
ROOT
ATOM      4  O   UNL     1      -4.508   4.482  27.029  0.00  0.00    -0.375 OA
ATOM      6  O   UNL     1      -6.588   1.561  24.968  0.00  0.00    -0.270 OA
ATOM      7  N   UNL     1      -4.729   2.942  24.658  0.00  0.00    -0.292 N 
ATOM     10  C   UNL     1      -2.609   3.597  25.817  0.00  0.00    +0.218 C 
ATOM     11  C   UNL     1      -3.279   3.125  24.524  0.00  0.00    +0.155 C 
ATOM     12  C   UNL     1      -5.507   4.172  24.760  0.00  0.00    +0.136 C 
ATOM     13  C   UNL     1      -3.264   4.832  26.439  0.00  0.00    +0.206 C 
ATOM     14  C   UNL     1      -5.658   4.641  26.205  0.00  0.00    +0.179 C 
ATOM     15  C   UNL     1      -5.383   1.714  24.779  0.00  0.00    +0.247 C 
ENDROOT
BRANCH  15  16
ATOM     16  C   UNL     1      -4.578   0.492  24.681  0.00  0.00    +0.037 A 
ATOM     18  C   UNL     1      -4.211  -0.003  23.429  0.00  0.00    +0.014 A 
ATOM     19  C   UNL     1      -4.178  -0.175  25.838  0.00  0.00    +0.014 A 
ATOM     21  C   UNL     1      -3.445  -1.164  23.335  0.00  0.00    +0.019 A 
ATOM     22  C   UNL     1      -3.411  -1.336  25.745  0.00  0.00    +0.019 A 
ATOM     25  C   UNL     1      -3.044  -1.831  24.493  0.00  0.00    +0.052 A 
BRANCH  25  28
ATOM      9  N   UNL     1      -1.622  -3.987  24.318  0.00  0.00    -0.191 NA
ATOM     28  C   UNL     1      -2.259  -3.021  24.397  0.00  0.00    +0.099 C 
ENDBRANCH  25  28
ENDBRANCH  15  16
BRANCH  10   5
ATOM      5  O   UNL     1      -1.249   3.915  25.533  0.00  0.00    -0.469 OA
BRANCH   5  17
ATOM      8  N   UNL     1       0.441   3.385  24.036  0.00  0.00    -0.221 NA
ATOM     17  C   UNL     1      -0.520   2.956  24.885  0.00  0.00    +0.215 A 
ATOM     20  C   UNL     1      -0.801   1.621  25.127  0.00  0.00    +0.068 A 
ATOM     23  C   UNL     1      -0.047   0.665  24.456  0.00  0.00    +0.019 A 
ATOM     24  C   UNL     1       0.951   1.067  23.576  0.00  0.00    +0.073 A 
ATOM     26  C   UNL     1       1.154   2.427  23.402  0.00  0.00    +0.127 A 
BRANCH  24  27
ATOM      1  F   UNL     1       3.009   0.532  22.480  0.00  0.00    -0.166 F 
ATOM      2  F   UNL     1       1.206  -0.367  21.678  0.00  0.00    -0.166 F 
ATOM      3  F   UNL     1       2.012  -1.061  23.574  0.00  0.00    -0.166 F 
ATOM     27  C   UNL     1       1.774   0.069  22.843  0.00  0.00    +0.419 C 
ENDBRANCH  24  27
ENDBRANCH   5  17
ENDBRANCH  10   5
TORSDOF 5
ENDMDL
MODEL 2
REMARK VINA RESULT:       2.1      2.274      4.632
REMARK  Name = 75536856
REMARK  5 active torsions:
REMARK  status: ('A' for Active; 'I' for Inactive)
REMARK    1  A    between atoms: O_5  and  C_10
REMARK    2  A    between atoms: O_5  and  C_17
REMARK    3  A    between atoms: C_15  and  C_16
REMARK    4  A    between atoms: C_24  and  C_27
REMARK    5  A    between atoms: C_25  and  C_28
REMARK                            x       y       z     vdW  Elec       q    Type
REMARK                         _______ _______ _______ _____ _____    ______ ____
ROOT
ATOM      4  O   UNL     1      -5.595   4.627  24.984  0.00  0.00    -0.375 OA
ATOM      6  O   UNL     1      -1.556   5.471  25.282  0.00  0.00    -0.270 OA
ATOM      7  N   UNL     1      -3.093   3.921  26.116  0.00  0.00    -0.292 N 
ATOM     10  C   UNL     1      -4.861   2.344  25.308  0.00  0.00    +0.218 C 
ATOM     11  C   UNL     1      -3.623   2.554  26.184  0.00  0.00    +0.155 C 
ATOM     12  C   UNL     1      -3.896   4.936  26.789  0.00  0.00    +0.136 C 
ATOM     13  C   UNL     1      -5.967   3.374  25.542  0.00  0.00    +0.206 C 
ATOM     14  C   UNL     1      -4.953   5.539  25.868  0.00  0.00    +0.179 C 
ATOM     15  C   UNL     1      -1.959   4.316  25.403  0.00  0.00    +0.247 C 
ENDROOT
BRANCH  15  16
ATOM     16  C   UNL     1      -1.173   3.277  24.729  0.00  0.00    +0.037 A 
ATOM     18  C   UNL     1      -1.710   2.593  23.639  0.00  0.00    +0.014 A 
ATOM     19  C   UNL     1       0.112   2.974  25.178  0.00  0.00    +0.014 A 
ATOM     21  C   UNL     1      -0.963   1.606  22.997  0.00  0.00    +0.019 A 
ATOM     22  C   UNL     1       0.861   1.988  24.536  0.00  0.00    +0.019 A 
ATOM     25  C   UNL     1       0.323   1.303  23.445  0.00  0.00    +0.052 A 
BRANCH  25  28
ATOM      9  N   UNL     1       1.711  -0.529  22.253  0.00  0.00    -0.191 NA
ATOM     28  C   UNL     1       1.089   0.292  22.788  0.00  0.00    +0.099 C 
ENDBRANCH  25  28
ENDBRANCH  15  16
BRANCH  10   5
ATOM      5  O   UNL     1      -5.397   1.051  25.584  0.00  0.00    -0.469 OA
BRANCH   5  17
ATOM      8  N   UNL     1      -3.900  -0.605  26.211  0.00  0.00    -0.221 NA
ATOM     17  C   UNL     1      -4.623  -0.019  25.229  0.00  0.00    +0.215 A 
ATOM     20  C   UNL     1      -4.620  -0.437  23.908  0.00  0.00    +0.068 A 
ATOM     23  C   UNL     1      -3.825  -1.527  23.573  0.00  0.00    +0.019 A 
ATOM     24  C   UNL     1      -3.067  -2.157  24.554  0.00  0.00    +0.073 A 
ATOM     26  C   UNL     1      -3.139  -1.661  25.847  0.00  0.00    +0.127 A 
BRANCH  24  27
ATOM      1  F   UNL     1      -1.245  -3.056  23.293  0.00  0.00    -0.166 F 
ATOM      2  F   UNL     1      -2.895  -4.395  23.726  0.00  0.00    -0.166 F 
ATOM      3  F   UNL     1      -1.532  -3.805  25.314  0.00  0.00    -0.166 F 
ATOM     27  C   UNL     1      -2.207  -3.324  24.227  0.00  0.00    +0.419 C 
ENDBRANCH  24  27
ENDBRANCH   5  17
ENDBRANCH  10   5
TORSDOF 5
ENDMDL
MODEL 3
REMARK VINA RESULT:       2.5      2.447      5.171
REMARK  Name = 75536856
REMARK  5 active torsions:
REMARK  status: ('A' for Active; 'I' for Inactive)
REMARK    1  A    between atoms: O_5  and  C_10
REMARK    2  A    between atoms: O_5  and  C_17
REMARK    3  A    between atoms: C_15  and  C_16
REMARK    4  A    between atoms: C_24  and  C_27
REMARK    5  A    between atoms: C_25  and  C_28
REMARK                            x       y       z     vdW  Elec       q    Type
REMARK                         _______ _______ _______ _____ _____    ______ ____
ROOT
ATOM      4  O   UNL     1      -3.117  -2.618  23.325  0.00  0.00    -0.375 OA
ATOM      6  O   UNL     1      -5.483   0.509  24.644  0.00  0.00    -0.270 OA
ATOM      7  N   UNL     1      -3.637  -0.726  25.373  0.00  0.00    -0.292 N 
ATOM     10  C   UNL     1      -1.387  -1.471  24.569  0.00  0.00    +0.218 C 
ATOM     11  C   UNL     1      -2.208  -0.825  25.689  0.00  0.00    +0.155 C 
ATOM     12  C   UNL     1      -4.370  -1.988  25.393  0.00  0.00    +0.136 C 
ATOM     13  C   UNL     1      -1.939  -2.816  24.094  0.00  0.00    +0.206 C 
ATOM     14  C   UNL     1      -4.348  -2.690  24.038  0.00  0.00    +0.179 C 
ATOM     15  C   UNL     1      -4.303   0.438  24.982  0.00  0.00    +0.247 C 
ENDROOT
BRANCH  15  16
ATOM     16  C   UNL     1      -3.543   1.692  24.963  0.00  0.00    +0.037 A 
ATOM     18  C   UNL     1      -3.945   2.764  25.760  0.00  0.00    +0.014 A 
ATOM     19  C   UNL     1      -2.418   1.813  24.148  0.00  0.00    +0.014 A 
ATOM     21  C   UNL     1      -3.222   3.956  25.743  0.00  0.00    +0.019 A 
ATOM     22  C   UNL     1      -1.694   3.005  24.130  0.00  0.00    +0.019 A 
ATOM     25  C   UNL     1      -2.096   4.077  24.928  0.00  0.00    +0.052 A 
BRANCH  25  28
ATOM      9  N   UNL     1      -0.755   6.292  24.895  0.00  0.00    -0.191 NA
ATOM     28  C   UNL     1      -1.356   5.299  24.910  0.00  0.00    +0.099 C 
ENDBRANCH  25  28
ENDBRANCH  15  16
BRANCH  10   5
ATOM      5  O   UNL     1      -0.060  -1.682  25.045  0.00  0.00    -0.469 OA
BRANCH   5  17
ATOM      8  N   UNL     1       2.135  -1.697  24.295  0.00  0.00    -0.221 NA
ATOM     17  C   UNL     1       0.943  -1.059  24.355  0.00  0.00    +0.215 A 
ATOM     20  C   UNL     1       0.691   0.169  23.765  0.00  0.00    +0.068 A 
ATOM     23  C   UNL     1       1.726   0.782  23.069  0.00  0.00    +0.019 A 
ATOM     24  C   UNL     1       2.965   0.157  22.984  0.00  0.00    +0.073 A 
ATOM     26  C   UNL     1       3.117  -1.071  23.609  0.00  0.00    +0.127 A 
BRANCH  24  27
ATOM      1  F   UNL     1       5.315   0.252  22.548  0.00  0.00    -0.166 F 
ATOM      2  F   UNL     1       4.227   2.128  22.484  0.00  0.00    -0.166 F 
ATOM      3  F   UNL     1       3.970   0.670  20.891  0.00  0.00    -0.166 F 
ATOM     27  C   UNL     1       4.093   0.787  22.247  0.00  0.00    +0.419 C 
ENDBRANCH  24  27
ENDBRANCH   5  17
ENDBRANCH  10   5
TORSDOF 5
ENDMDL
MODEL 4
REMARK VINA RESULT:       2.6      2.077      2.921
REMARK  Name = 75536856
REMARK  5 active torsions:
REMARK  status: ('A' for Active; 'I' for Inactive)
REMARK    1  A    between atoms: O_5  and  C_10
REMARK    2  A    between atoms: O_5  and  C_17
REMARK    3  A    between atoms: C_15  and  C_16
REMARK    4  A    between atoms: C_24  and  C_27
REMARK    5  A    between atoms: C_25  and  C_28
REMARK                            x       y       z     vdW  Elec       q    Type
REMARK                         _______ _______ _______ _____ _____    ______ ____
ROOT
ATOM      4  O   UNL     1      -0.501   3.818  25.654  0.00  0.00    -0.375 OA
ATOM      6  O   UNL     1      -4.356   2.387  26.103  0.00  0.00    -0.270 OA
ATOM      7  N   UNL     1      -2.808   2.756  24.392  0.00  0.00    -0.292 N 
ATOM     10  C   UNL     1      -0.426   2.247  23.815  0.00  0.00    +0.218 C 
ATOM     11  C   UNL     1      -1.890   2.248  23.366  0.00  0.00    +0.155 C 
ATOM     12  C   UNL     1      -2.748   4.194  24.627  0.00  0.00    +0.136 C 
ATOM     13  C   UNL     1       0.054   3.590  24.366  0.00  0.00    +0.206 C 
ATOM     14  C   UNL     1      -1.715   4.562  25.689  0.00  0.00    +0.179 C 
ATOM     15  C   UNL     1      -3.643   1.972  25.191  0.00  0.00    +0.247 C 
ENDROOT
BRANCH  15  16
ATOM     16  C   UNL     1      -3.680   0.527  24.940  0.00  0.00    +0.037 A 
ATOM     18  C   UNL     1      -4.627  -0.004  24.065  0.00  0.00    +0.014 A 
ATOM     19  C   UNL     1      -2.768  -0.315  25.575  0.00  0.00    +0.014 A 
ATOM     21  C   UNL     1      -4.662  -1.377  23.825  0.00  0.00    +0.019 A 
ATOM     22  C   UNL     1      -2.802  -1.688  25.335  0.00  0.00    +0.019 A 
ATOM     25  C   UNL     1      -3.749  -2.220  24.459  0.00  0.00    +0.052 A 
BRANCH  25  28
ATOM      9  N   UNL     1      -3.815  -4.769  24.013  0.00  0.00    -0.191 NA
ATOM     28  C   UNL     1      -3.785  -3.627  24.214  0.00  0.00    +0.099 C 
ENDBRANCH  25  28
ENDBRANCH  15  16
BRANCH  10   5
ATOM      5  O   UNL     1       0.391   1.912  22.695  0.00  0.00    -0.469 OA
BRANCH   5  17
ATOM      8  N   UNL     1       2.691   1.922  22.989  0.00  0.00    -0.221 NA
ATOM     17  C   UNL     1       1.538   1.216  22.962  0.00  0.00    +0.215 A 
ATOM     20  C   UNL     1       1.459  -0.149  23.185  0.00  0.00    +0.068 A 
ATOM     23  C   UNL     1       2.638  -0.834  23.454  0.00  0.00    +0.019 A 
ATOM     24  C   UNL     1       3.844  -0.143  23.492  0.00  0.00    +0.073 A 
ATOM     26  C   UNL     1       3.817   1.222  23.254  0.00  0.00    +0.127 A 
BRANCH  24  27
ATOM      1  F   UNL     1       6.111  -0.582  22.869  0.00  0.00    -0.166 F 
ATOM      2  F   UNL     1       5.012  -2.210  23.789  0.00  0.00    -0.166 F 
ATOM      3  F   UNL     1       5.650  -0.516  24.993  0.00  0.00    -0.166 F 
ATOM     27  C   UNL     1       5.123  -0.847  23.776  0.00  0.00    +0.419 C 
ENDBRANCH  24  27
ENDBRANCH   5  17
ENDBRANCH  10   5
TORSDOF 5
ENDMDL
MODEL 5
REMARK VINA RESULT:       4.1      3.386      5.743
REMARK  Name = 75536856
REMARK  5 active torsions:
REMARK  status: ('A' for Active; 'I' for Inactive)
REMARK    1  A    between atoms: O_5  and  C_10
REMARK    2  A    between atoms: O_5  and  C_17
REMARK    3  A    between atoms: C_15  and  C_16
REMARK    4  A    between atoms: C_24  and  C_27
REMARK    5  A    between atoms: C_25  and  C_28
REMARK                            x       y       z     vdW  Elec       q    Type
REMARK                         _______ _______ _______ _____ _____    ______ ____
ROOT
ATOM      4  O   UNL     1      -0.823  -2.200  22.921  0.00  0.00    -0.375 OA
ATOM      6  O   UNL     1      -4.597  -2.316  24.610  0.00  0.00    -0.270 OA
ATOM      7  N   UNL     1      -2.445  -1.592  25.166  0.00  0.00    -0.292 N 
ATOM     10  C   UNL     1      -0.594  -0.185  24.241  0.00  0.00    +0.218 C 
ATOM     11  C   UNL     1      -1.488  -0.514  25.439  0.00  0.00    +0.155 C 
ATOM     12  C   UNL     1      -1.868  -2.929  25.069  0.00  0.00    +0.136 C 
ATOM     13  C   UNL     1       0.109  -1.403  23.639  0.00  0.00    +0.206 C 
ATOM     14  C   UNL     1      -1.425  -3.265  23.648  0.00  0.00    +0.179 C 
ATOM     15  C   UNL     1      -3.808  -1.423  24.914  0.00  0.00    +0.247 C 
ENDROOT
BRANCH  15  16
ATOM     16  C   UNL     1      -4.362  -0.068  25.010  0.00  0.00    +0.037 A 
ATOM     18  C   UNL     1      -5.379   0.206  25.925  0.00  0.00    +0.014 A 
ATOM     19  C   UNL     1      -3.873   0.946  24.187  0.00  0.00    +0.014 A 
ATOM     21  C   UNL     1      -5.906   1.494  26.018  0.00  0.00    +0.019 A 
ATOM     22  C   UNL     1      -4.399   2.234  24.280  0.00  0.00    +0.019 A 
ATOM     25  C   UNL     1      -5.415   2.509  25.195  0.00  0.00    +0.052 A 
BRANCH  25  28
ATOM      9  N   UNL     1      -6.394   4.900  25.367  0.00  0.00    -0.191 NA
ATOM     28  C   UNL     1      -5.955   3.828  25.290  0.00  0.00    +0.099 C 
ENDBRANCH  25  28
ENDBRANCH  15  16
BRANCH  10   5
ATOM      5  O   UNL     1       0.408   0.738  24.664  0.00  0.00    -0.469 OA
BRANCH   5  17
ATOM      8  N   UNL     1       0.081   2.782  23.618  0.00  0.00    -0.221 NA
ATOM     17  C   UNL     1       0.031   2.050  24.754  0.00  0.00    +0.215 A 
ATOM     20  C   UNL     1      -0.373   2.550  25.982  0.00  0.00    +0.068 A 
ATOM     23  C   UNL     1      -0.751   3.886  26.048  0.00  0.00    +0.019 A 
ATOM     24  C   UNL     1      -0.714   4.671  24.901  0.00  0.00    +0.073 A 
ATOM     26  C   UNL     1      -0.293   4.076  23.721  0.00  0.00    +0.127 A 
BRANCH  24  27
ATOM      1  F   UNL     1      -1.684   6.547  23.780  0.00  0.00    -0.166 F 
ATOM      2  F   UNL     1      -0.069   6.959  25.167  0.00  0.00    -0.166 F 
ATOM      3  F   UNL     1      -2.023   6.373  25.921  0.00  0.00    -0.166 F 
ATOM     27  C   UNL     1      -1.111   6.103  24.939  0.00  0.00    +0.419 C 
ENDBRANCH  24  27
ENDBRANCH   5  17
ENDBRANCH  10   5
TORSDOF 5
ENDMDL
MODEL 6
REMARK VINA RESULT:       4.9      2.666      5.285
REMARK  Name = 75536856
REMARK  5 active torsions:
REMARK  status: ('A' for Active; 'I' for Inactive)
REMARK    1  A    between atoms: O_5  and  C_10
REMARK    2  A    between atoms: O_5  and  C_17
REMARK    3  A    between atoms: C_15  and  C_16
REMARK    4  A    between atoms: C_24  and  C_27
REMARK    5  A    between atoms: C_25  and  C_28
REMARK                            x       y       z     vdW  Elec       q    Type
REMARK                         _______ _______ _______ _____ _____    ______ ____
ROOT
ATOM      4  O   UNL     1      -1.030  -2.004  22.988  0.00  0.00    -0.375 OA
ATOM      6  O   UNL     1      -3.977  -1.619  25.864  0.00  0.00    -0.270 OA
ATOM      7  N   UNL     1      -1.849  -0.768  25.404  0.00  0.00    -0.292 N 
ATOM     10  C   UNL     1      -0.574   0.307  23.538  0.00  0.00    +0.218 C 
ATOM     11  C   UNL     1      -0.972   0.343  25.016  0.00  0.00    +0.155 C 
ATOM     12  C   UNL     1      -1.207  -2.075  25.479  0.00  0.00    +0.136 C 
ATOM     13  C   UNL     1       0.004  -1.034  23.084  0.00  0.00    +0.206 C 
ATOM     14  C   UNL     1      -1.239  -2.811  24.142  0.00  0.00    +0.179 C 
ATOM     15  C   UNL     1      -3.227  -0.677  25.614  0.00  0.00    +0.247 C 
ENDROOT
BRANCH  15  16
ATOM     16  C   UNL     1      -3.851   0.647  25.526  0.00  0.00    +0.037 A 
ATOM     18  C   UNL     1      -5.239   0.760  25.437  0.00  0.00    +0.014 A 
ATOM     19  C   UNL     1      -3.058   1.794  25.532  0.00  0.00    +0.014 A 
ATOM     21  C   UNL     1      -5.833   2.019  25.355  0.00  0.00    +0.019 A 
ATOM     22  C   UNL     1      -3.652   3.054  25.451  0.00  0.00    +0.019 A 
ATOM     25  C   UNL     1      -5.039   3.166  25.361  0.00  0.00    +0.052 A 
BRANCH  25  28
ATOM      9  N   UNL     1      -6.142   5.504  25.207  0.00  0.00    -0.191 NA
ATOM     28  C   UNL     1      -5.648   4.456  25.276  0.00  0.00    +0.099 C 
ENDBRANCH  25  28
ENDBRANCH  15  16
BRANCH  10   5
ATOM      5  O   UNL     1       0.412   1.312  23.311  0.00  0.00    -0.469 OA
BRANCH   5  17
ATOM      8  N   UNL     1       2.659   1.847  23.105  0.00  0.00    -0.221 NA
ATOM     17  C   UNL     1       1.716   0.901  23.315  0.00  0.00    +0.215 A 
ATOM     20  C   UNL     1       1.997  -0.439  23.529  0.00  0.00    +0.068 A 
ATOM     23  C   UNL     1       3.330  -0.833  23.529  0.00  0.00    +0.019 A 
ATOM     24  C   UNL     1       4.329   0.111  23.317  0.00  0.00    +0.073 A 
ATOM     26  C   UNL     1       3.944   1.427  23.112  0.00  0.00    +0.127 A 
BRANCH  24  27
ATOM      1  F   UNL     1       6.003  -1.511  23.852  0.00  0.00    -0.166 F 
ATOM      2  F   UNL     1       6.571   0.577  24.008  0.00  0.00    -0.166 F 
ATOM      3  F   UNL     1       6.292  -0.328  22.051  0.00  0.00    -0.166 F 
ATOM     27  C   UNL     1       5.763  -0.278  23.310  0.00  0.00    +0.419 C 
ENDBRANCH  24  27
ENDBRANCH   5  17
ENDBRANCH  10   5
TORSDOF 5
ENDMDL
MODEL 7
REMARK VINA RESULT:       5.3      2.976      5.032
REMARK  Name = 75536856
REMARK  5 active torsions:
REMARK  status: ('A' for Active; 'I' for Inactive)
REMARK    1  A    between atoms: O_5  and  C_10
REMARK    2  A    between atoms: O_5  and  C_17
REMARK    3  A    between atoms: C_15  and  C_16
REMARK    4  A    between atoms: C_24  and  C_27
REMARK    5  A    between atoms: C_25  and  C_28
REMARK                            x       y       z     vdW  Elec       q    Type
REMARK                         _______ _______ _______ _____ _____    ______ ____
ROOT
ATOM      4  O   UNL     1       0.289   4.381  25.227  0.00  0.00    -0.375 OA
ATOM      6  O   UNL     1      -3.509   5.212  23.813  0.00  0.00    -0.270 OA
ATOM      7  N   UNL     1      -2.012   3.418  23.877  0.00  0.00    -0.292 N 
ATOM     10  C   UNL     1      -0.605   2.150  25.513  0.00  0.00    +0.218 C 
ATOM     11  C   UNL     1      -1.625   2.092  24.373  0.00  0.00    +0.155 C 
ATOM     12  C   UNL     1      -0.995   4.116  23.099  0.00  0.00    +0.136 C 
ATOM     13  C   UNL     1       0.627   3.001  25.200  0.00  0.00    +0.206 C 
ATOM     14  C   UNL     1      -0.075   4.960  23.978  0.00  0.00    +0.179 C 
ATOM     15  C   UNL     1      -3.213   4.071  24.163  0.00  0.00    +0.247 C 
ENDROOT
BRANCH  15  16
ATOM     16  C   UNL     1      -4.218   3.351  24.953  0.00  0.00    +0.037 A 
ATOM     18  C   UNL     1      -4.468   3.728  26.273  0.00  0.00    +0.014 A 
ATOM     19  C   UNL     1      -4.922   2.290  24.386  0.00  0.00    +0.014 A 
ATOM     21  C   UNL     1      -5.424   3.045  27.024  0.00  0.00    +0.019 A 
ATOM     22  C   UNL     1      -5.878   1.606  25.136  0.00  0.00    +0.019 A 
ATOM     25  C   UNL     1      -6.129   1.983  26.456  0.00  0.00    +0.052 A 
BRANCH  25  28
ATOM      9  N   UNL     1      -7.902   0.713  27.852  0.00  0.00    -0.191 NA
ATOM     28  C   UNL     1      -7.108   1.283  27.226  0.00  0.00    +0.099 C 
ENDBRANCH  25  28
ENDBRANCH  15  16
BRANCH  10   5
ATOM      5  O   UNL     1      -0.165   0.823  25.794  0.00  0.00    -0.469 OA
BRANCH   5  17
ATOM      8  N   UNL     1      -0.515  -1.112  24.564  0.00  0.00    -0.221 NA
ATOM     17  C   UNL     1      -1.005  -0.191  25.424  0.00  0.00    +0.215 A 
ATOM     20  C   UNL     1      -2.291  -0.218  25.940  0.00  0.00    +0.068 A 
ATOM     23  C   UNL     1      -3.127  -1.258  25.550  0.00  0.00    +0.019 A 
ATOM     24  C   UNL     1      -2.659  -2.226  24.667  0.00  0.00    +0.073 A 
ATOM     26  C   UNL     1      -1.356  -2.108  24.207  0.00  0.00    +0.127 A 
BRANCH  24  27
ATOM      1  F   UNL     1      -2.908  -4.231  23.387  0.00  0.00    -0.166 F 
ATOM      2  F   UNL     1      -4.650  -2.951  23.559  0.00  0.00    -0.166 F 
ATOM      3  F   UNL     1      -3.980  -4.106  25.274  0.00  0.00    -0.166 F 
ATOM     27  C   UNL     1      -3.528  -3.350  24.230  0.00  0.00    +0.419 C 
ENDBRANCH  24  27
ENDBRANCH   5  17
ENDBRANCH  10   5
TORSDOF 5
ENDMDL
