MODEL 1
REMARK VINA RESULT:       0.7      0.000      0.000
REMARK  Name = 11882576
REMARK  11 active torsions:
REMARK  status: ('A' for Active; 'I' for Inactive)
REMARK    1  A    between atoms: O_2  and  C_13
REMARK    2  A    between atoms: O_3  and  C_16
REMARK    3  A    between atoms: O_4  and  C_18
REMARK    4  A    between atoms: O_8  and  C_32
REMARK    5  A    between atoms: N_9  and  C_14
REMARK    6  A    between atoms: N_10  and  C_20
REMARK    7  A    between atoms: N_11  and  C_25
REMARK    8  A    between atoms: C_13  and  C_19
REMARK    9  A    between atoms: C_20  and  C_22
REMARK   10  A    between atoms: C_20  and  C_23
REMARK   11  A    between atoms: C_22  and  C_24
REMARK                            x       y       z     vdW  Elec       q    Type
REMARK                         _______ _______ _______ _____ _____    ______ ____
ROOT
ATOM     13  C   UNL     1      -3.987  -0.212  25.256  0.00  0.00    +0.146 C 
ATOM     14  C   UNL     1      -1.983  -1.311  24.144  0.00  0.00    +0.109 C 
ATOM     15  C   UNL     1      -2.679   0.009  24.493  0.00  0.00    +0.069 C 
ATOM     16  C   UNL     1      -2.920  -2.272  23.402  0.00  0.00    +0.163 C 
ATOM     17  C   UNL     1      -4.918  -1.155  24.497  0.00  0.00    +0.078 C 
ATOM     18  C   UNL     1      -4.239  -2.480  24.150  0.00  0.00    +0.148 C 
ENDROOT
BRANCH  14   9
ATOM      6  O   UNL     1       0.677  -0.924  25.133  0.00  0.00    -0.252 OA
ATOM      9  N   UNL     1      -0.798  -1.045  23.358  0.00  0.00    -0.294 N 
ATOM     11  N   UNL     1       1.414  -0.628  22.923  0.00  0.00    -0.269 N 
ATOM     21  C   UNL     1       0.468  -0.869  23.924  0.00  0.00    +0.304 C 
ATOM     36  H   UNL     1      -0.904  -0.907  22.357  0.00  0.00    +0.151 HD
ATOM     41  H   UNL     1       1.073  -0.615  21.966  0.00  0.00    +0.156 HD
BRANCH  11  25
ATOM      1  F   UNL     1       5.752  -2.081  24.383  0.00  0.00    -0.205 F 
ATOM     25  C   UNL     1       2.801  -0.399  23.078  0.00  0.00    +0.037 A 
ATOM     28  C   UNL     1       3.608  -1.373  23.667  0.00  0.00    +0.061 A 
ATOM     29  C   UNL     1       3.362   0.801  22.641  0.00  0.00    +0.023 A 
ATOM     33  C   UNL     1       4.975  -1.146  23.818  0.00  0.00    +0.125 A 
ATOM     34  C   UNL     1       4.729   1.028  22.794  0.00  0.00    +0.005 A 
ATOM     35  C   UNL     1       5.537   0.055  23.382  0.00  0.00    +0.038 A 
ENDBRANCH  11  25
ENDBRANCH  14   9
BRANCH  13  19
ATOM      5  O   UNL     1      -5.883   1.235  25.356  0.00  0.00    -0.273 OA
ATOM     10  N   UNL     1      -3.791   2.080  25.924  0.00  0.00    -0.301 N 
ATOM     19  C   UNL     1      -4.674   1.096  25.517  0.00  0.00    +0.246 C 
ATOM     40  H   UNL     1      -2.794   1.889  25.939  0.00  0.00    +0.150 HD
BRANCH  10  20
ATOM     20  C   UNL     1      -4.197   3.436  26.216  0.00  0.00    +0.163 C 
BRANCH  20  23
ATOM      7  O   UNL     1      -4.793   3.871  23.902  0.00  0.00    -0.274 OA
ATOM     12  N   UNL     1      -6.364   4.256  25.531  0.00  0.00    -0.328 N 
ATOM     23  C   UNL     1      -5.113   3.883  25.087  0.00  0.00    +0.231 C 
ATOM     42  H   UNL     1      -7.079   4.560  24.878  0.00  0.00    +0.145 HD
ATOM     43  H   UNL     1      -6.618   4.257  26.514  0.00  0.00    +0.145 HD
ENDBRANCH  20  23
BRANCH  20  22
ATOM     22  C   UNL     1      -3.000   4.386  26.341  0.00  0.00    +0.067 C 
BRANCH  22  24
ATOM     24  C   UNL     1      -1.752   3.841  25.690  0.00  0.00    -0.045 A 
ATOM     26  C   UNL     1      -1.343   4.325  24.448  0.00  0.00    +0.007 A 
ATOM     27  C   UNL     1      -1.007   2.851  26.333  0.00  0.00    +0.007 A 
ATOM     30  C   UNL     1      -0.190   3.821  23.848  0.00  0.00    +0.045 A 
ATOM     31  C   UNL     1       0.147   2.347  25.732  0.00  0.00    +0.045 A 
ATOM     32  C   UNL     1       0.556   2.832  24.490  0.00  0.00    +0.117 A 
BRANCH  32   8
ATOM      8  O   UNL     1       1.681   2.339  23.905  0.00  0.00    -0.507 OA
ATOM     44  H   UNL     1       1.621   1.369  23.873  0.00  0.00    +0.292 HD
ENDBRANCH  32   8
ENDBRANCH  22  24
ENDBRANCH  20  22
ENDBRANCH  10  20
ENDBRANCH  13  19
BRANCH  13   2
ATOM      2  O   UNL     1      -3.725  -0.756  26.545  0.00  0.00    -0.379 OA
ATOM     37  H   UNL     1      -2.835  -1.148  26.538  0.00  0.00    +0.211 HD
ENDBRANCH  13   2
BRANCH  16   3
ATOM      3  O   UNL     1      -2.283  -3.547  23.284  0.00  0.00    -0.387 OA
ATOM     38  H   UNL     1      -2.082  -3.698  22.344  0.00  0.00    +0.210 HD
ENDBRANCH  16   3
BRANCH  18   4
ATOM      4  O   UNL     1      -5.113  -3.243  23.320  0.00  0.00    -0.389 OA
ATOM     39  H   UNL     1      -6.015  -2.906  23.455  0.00  0.00    +0.210 HD
ENDBRANCH  18   4
TORSDOF 11
ENDMDL
MODEL 2
REMARK VINA RESULT:       1.1      1.680      1.975
REMARK  Name = 11882576
REMARK  11 active torsions:
REMARK  status: ('A' for Active; 'I' for Inactive)
REMARK    1  A    between atoms: O_2  and  C_13
REMARK    2  A    between atoms: O_3  and  C_16
REMARK    3  A    between atoms: O_4  and  C_18
REMARK    4  A    between atoms: O_8  and  C_32
REMARK    5  A    between atoms: N_9  and  C_14
REMARK    6  A    between atoms: N_10  and  C_20
REMARK    7  A    between atoms: N_11  and  C_25
REMARK    8  A    between atoms: C_13  and  C_19
REMARK    9  A    between atoms: C_20  and  C_22
REMARK   10  A    between atoms: C_20  and  C_23
REMARK   11  A    between atoms: C_22  and  C_24
REMARK                            x       y       z     vdW  Elec       q    Type
REMARK                         _______ _______ _______ _____ _____    ______ ____
ROOT
ATOM     13  C   UNL     1      -3.912   0.020  25.029  0.00  0.00    +0.146 C 
ATOM     14  C   UNL     1      -1.849  -1.440  25.292  0.00  0.00    +0.109 C 
ATOM     15  C   UNL     1      -2.383  -0.026  25.041  0.00  0.00    +0.069 C 
ATOM     16  C   UNL     1      -2.442  -2.457  24.308  0.00  0.00    +0.163 C 
ATOM     17  C   UNL     1      -4.489  -0.983  24.032  0.00  0.00    +0.078 C 
ATOM     18  C   UNL     1      -3.971  -2.401  24.276  0.00  0.00    +0.148 C 
ENDROOT
BRANCH  14   9
ATOM      6  O   UNL     1      -0.245  -0.145  23.304  0.00  0.00    -0.252 OA
ATOM      9  N   UNL     1      -0.404  -1.438  25.213  0.00  0.00    -0.294 N 
ATOM     11  N   UNL     1       1.678  -0.949  24.386  0.00  0.00    -0.269 N 
ATOM     21  C   UNL     1       0.302  -0.777  24.204  0.00  0.00    +0.304 C 
ATOM     36  H   UNL     1       0.117  -2.004  25.876  0.00  0.00    +0.151 HD
ATOM     41  H   UNL     1       1.966  -1.504  25.187  0.00  0.00    +0.156 HD
BRANCH  11  25
ATOM      1  F   UNL     1       6.359  -0.199  23.626  0.00  0.00    -0.205 F 
ATOM     25  C   UNL     1       2.729  -0.443  23.586  0.00  0.00    +0.037 A 
ATOM     28  C   UNL     1       4.052  -0.573  24.010  0.00  0.00    +0.061 A 
ATOM     29  C   UNL     1       2.442   0.185  22.375  0.00  0.00    +0.023 A 
ATOM     33  C   UNL     1       5.088  -0.074  23.221  0.00  0.00    +0.125 A 
ATOM     34  C   UNL     1       3.479   0.685  21.587  0.00  0.00    +0.005 A 
ATOM     35  C   UNL     1       4.801   0.555  22.009  0.00  0.00    +0.038 A 
ENDBRANCH  11  25
ENDBRANCH  14   9
BRANCH  13  19
ATOM      5  O   UNL     1      -5.299   1.937  25.352  0.00  0.00    -0.273 OA
ATOM     10  N   UNL     1      -3.733   1.956  23.631  0.00  0.00    -0.301 N 
ATOM     19  C   UNL     1      -4.397   1.404  24.711  0.00  0.00    +0.246 C 
ATOM     40  H   UNL     1      -3.064   1.398  23.110  0.00  0.00    +0.150 HD
BRANCH  10  20
ATOM     20  C   UNL     1      -4.029   3.271  23.108  0.00  0.00    +0.163 C 
BRANCH  20  23
ATOM      7  O   UNL     1      -4.249   3.959  20.789  0.00  0.00    -0.274 OA
ATOM     12  N   UNL     1      -2.672   2.376  21.319  0.00  0.00    -0.328 N 
ATOM     23  C   UNL     1      -3.697   3.248  21.624  0.00  0.00    +0.231 C 
ATOM     42  H   UNL     1      -2.340   2.276  20.366  0.00  0.00    +0.145 HD
ATOM     43  H   UNL     1      -2.221   1.797  22.020  0.00  0.00    +0.145 HD
ENDBRANCH  20  23
BRANCH  20  22
ATOM     22  C   UNL     1      -3.230   4.370  23.817  0.00  0.00    +0.067 C 
BRANCH  22  24
ATOM     24  C   UNL     1      -2.081   3.825  24.630  0.00  0.00    -0.045 A 
ATOM     26  C   UNL     1      -0.902   3.430  23.997  0.00  0.00    +0.007 A 
ATOM     27  C   UNL     1      -2.198   3.716  26.016  0.00  0.00    +0.007 A 
ATOM     30  C   UNL     1       0.158   2.926  24.749  0.00  0.00    +0.045 A 
ATOM     31  C   UNL     1      -1.137   3.211  26.768  0.00  0.00    +0.045 A 
ATOM     32  C   UNL     1       0.042   2.817  26.135  0.00  0.00    +0.117 A 
BRANCH  32   8
ATOM      8  O   UNL     1       1.077   2.326  26.869  0.00  0.00    -0.507 OA
ATOM     44  H   UNL     1       1.069   1.355  26.813  0.00  0.00    +0.292 HD
ENDBRANCH  32   8
ENDBRANCH  22  24
ENDBRANCH  20  22
ENDBRANCH  10  20
ENDBRANCH  13  19
BRANCH  13   2
ATOM      2  O   UNL     1      -4.428  -0.264  26.325  0.00  0.00    -0.379 OA
ATOM     37  H   UNL     1      -4.156   0.449  26.927  0.00  0.00    +0.211 HD
ENDBRANCH  13   2
BRANCH  16   3
ATOM      3  O   UNL     1      -2.065  -3.776  24.716  0.00  0.00    -0.387 OA
ATOM     38  H   UNL     1      -2.830  -4.362  24.585  0.00  0.00    +0.210 HD
ENDBRANCH  16   3
BRANCH  18   4
ATOM      4  O   UNL     1      -4.432  -3.248  23.224  0.00  0.00    -0.389 OA
ATOM     39  H   UNL     1      -3.697  -3.835  22.976  0.00  0.00    +0.210 HD
ENDBRANCH  18   4
TORSDOF 11
ENDMDL
MODEL 3
REMARK VINA RESULT:       3.1      2.016      4.567
REMARK  Name = 11882576
REMARK  11 active torsions:
REMARK  status: ('A' for Active; 'I' for Inactive)
REMARK    1  A    between atoms: O_2  and  C_13
REMARK    2  A    between atoms: O_3  and  C_16
REMARK    3  A    between atoms: O_4  and  C_18
REMARK    4  A    between atoms: O_8  and  C_32
REMARK    5  A    between atoms: N_9  and  C_14
REMARK    6  A    between atoms: N_10  and  C_20
REMARK    7  A    between atoms: N_11  and  C_25
REMARK    8  A    between atoms: C_13  and  C_19
REMARK    9  A    between atoms: C_20  and  C_22
REMARK   10  A    between atoms: C_20  and  C_23
REMARK   11  A    between atoms: C_22  and  C_24
REMARK                            x       y       z     vdW  Elec       q    Type
REMARK                         _______ _______ _______ _____ _____    ______ ____
ROOT
ATOM     13  C   UNL     1      -3.102   3.173  24.252  0.00  0.00    +0.146 C 
ATOM     14  C   UNL     1      -0.921   2.895  22.977  0.00  0.00    +0.109 C 
ATOM     15  C   UNL     1      -2.064   2.187  23.713  0.00  0.00    +0.069 C 
ATOM     16  C   UNL     1      -0.276   3.987  23.841  0.00  0.00    +0.163 C 
ATOM     17  C   UNL     1      -2.449   4.242  25.126  0.00  0.00    +0.078 C 
ATOM     18  C   UNL     1      -1.312   4.963  24.402  0.00  0.00    +0.148 C 
ENDROOT
BRANCH  14   9
ATOM      6  O   UNL     1       1.404   2.083  24.439  0.00  0.00    -0.252 OA
ATOM      9  N   UNL     1       0.068   1.925  22.560  0.00  0.00    -0.294 N 
ATOM     11  N   UNL     1       1.953   0.626  22.681  0.00  0.00    -0.269 N 
ATOM     21  C   UNL     1       1.178   1.586  23.339  0.00  0.00    +0.304 C 
ATOM     36  H   UNL     1      -0.008   1.529  21.628  0.00  0.00    +0.151 HD
ATOM     41  H   UNL     1       1.622   0.318  21.771  0.00  0.00    +0.156 HD
BRANCH  11  25
ATOM      1  F   UNL     1       6.644   0.889  23.671  0.00  0.00    -0.205 F 
ATOM     25  C   UNL     1       3.152   0.024  23.129  0.00  0.00    +0.037 A 
ATOM     28  C   UNL     1       4.330   0.769  23.180  0.00  0.00    +0.061 A 
ATOM     29  C   UNL     1       3.155  -1.315  23.521  0.00  0.00    +0.023 A 
ATOM     33  C   UNL     1       5.511   0.174  23.621  0.00  0.00    +0.125 A 
ATOM     34  C   UNL     1       4.337  -1.909  23.962  0.00  0.00    +0.005 A 
ATOM     35  C   UNL     1       5.516  -1.165  24.013  0.00  0.00    +0.038 A 
ENDBRANCH  11  25
ENDBRANCH  14   9
BRANCH  13  19
ATOM      5  O   UNL     1      -4.692   2.943  26.019  0.00  0.00    -0.273 OA
ATOM     10  N   UNL     1      -4.438   1.200  24.498  0.00  0.00    -0.301 N 
ATOM     19  C   UNL     1      -4.166   2.450  25.025  0.00  0.00    +0.246 C 
ATOM     40  H   UNL     1      -3.883   0.846  23.726  0.00  0.00    +0.150 HD
BRANCH  10  20
ATOM     20  C   UNL     1      -5.407   0.294  25.072  0.00  0.00    +0.163 C 
BRANCH  20  23
ATOM      7  O   UNL     1      -6.663   1.192  26.948  0.00  0.00    -0.274 OA
ATOM     12  N   UNL     1      -7.195   1.902  24.830  0.00  0.00    -0.328 N 
ATOM     23  C   UNL     1      -6.479   1.145  25.735  0.00  0.00    +0.231 C 
ATOM     42  H   UNL     1      -7.930   2.528  25.141  0.00  0.00    +0.145 HD
ATOM     43  H   UNL     1      -7.030   1.858  23.829  0.00  0.00    +0.145 HD
ENDBRANCH  20  23
BRANCH  20  22
ATOM     22  C   UNL     1      -4.776  -0.659  26.093  0.00  0.00    +0.067 C 
BRANCH  22  24
ATOM     24  C   UNL     1      -3.349  -1.015  25.755  0.00  0.00    -0.045 A 
ATOM     26  C   UNL     1      -3.078  -2.084  24.901  0.00  0.00    +0.007 A 
ATOM     27  C   UNL     1      -2.298  -0.273  26.298  0.00  0.00    +0.007 A 
ATOM     30  C   UNL     1      -1.759  -2.412  24.589  0.00  0.00    +0.045 A 
ATOM     31  C   UNL     1      -0.979  -0.602  25.986  0.00  0.00    +0.045 A 
ATOM     32  C   UNL     1      -0.709  -1.671  25.131  0.00  0.00    +0.117 A 
BRANCH  32   8
ATOM      8  O   UNL     1       0.578  -1.990  24.827  0.00  0.00    -0.507 OA
ATOM     44  H   UNL     1       1.125  -1.889  25.626  0.00  0.00    +0.292 HD
ENDBRANCH  32   8
ENDBRANCH  22  24
ENDBRANCH  20  22
ENDBRANCH  10  20
ENDBRANCH  13  19
BRANCH  13   2
ATOM      2  O   UNL     1      -3.791   3.806  23.180  0.00  0.00    -0.379 OA
ATOM     37  H   UNL     1      -3.214   4.496  22.809  0.00  0.00    +0.211 HD
ENDBRANCH  13   2
BRANCH  16   3
ATOM      3  O   UNL     1       0.638   4.738  23.038  0.00  0.00    -0.387 OA
ATOM     38  H   UNL     1       0.964   5.484  23.571  0.00  0.00    +0.210 HD
ENDBRANCH  16   3
BRANCH  18   4
ATOM      4  O   UNL     1      -0.659   5.836  25.323  0.00  0.00    -0.389 OA
ATOM     39  H   UNL     1       0.073   6.268  24.849  0.00  0.00    +0.210 HD
ENDBRANCH  18   4
TORSDOF 11
ENDMDL
