MODEL 1
REMARK VINA RESULT:       5.7      0.000      0.000
REMARK  Name = 7144115
REMARK  5 active torsions:
REMARK  status: ('A' for Active; 'I' for Inactive)
REMARK    1  A    between atoms: S_1  and  N_6
REMARK    2  A    between atoms: S_1  and  C_19
REMARK    3  A    between atoms: O_5  and  C_29
REMARK    4  A    between atoms: O_5  and  C_31
REMARK    5  A    between atoms: C_15  and  C_20
REMARK                            x       y       z     vdW  Elec       q    Type
REMARK                         _______ _______ _______ _____ _____    ______ ____
ROOT
ATOM      4  O   UNL     1      -3.007   4.962  26.469  0.00  0.00    -0.268 OA
ATOM      6  N   UNL     1      -3.752   0.742  23.986  0.00  0.00    -0.176 NA
ATOM      7  N   UNL     1      -2.484   3.538  24.684  0.00  0.00    -0.311 N 
ATOM      8  C   UNL     1      -4.219   2.932  22.895  0.00  0.00    +0.025 C 
ATOM      9  C   UNL     1      -1.959   1.979  22.784  0.00  0.00    +0.053 C 
ATOM     10  C   UNL     1      -3.009   2.754  21.992  0.00  0.00    +0.017 C 
ATOM     11  C   UNL     1      -4.793   1.572  23.315  0.00  0.00    +0.114 C 
ATOM     12  C   UNL     1      -2.521   0.594  23.158  0.00  0.00    +0.119 C 
ATOM     13  C   UNL     1      -3.808   3.785  24.097  0.00  0.00    +0.130 C 
ATOM     14  C   UNL     1      -1.519   2.742  24.035  0.00  0.00    +0.034 A 
ATOM     15  C   UNL     1      -0.259   2.662  24.539  0.00  0.00    +0.002 A 
ATOM     16  C   UNL     1      -2.207   4.242  25.870  0.00  0.00    +0.252 A 
ATOM     17  C   UNL     1       0.061   3.371  25.763  0.00  0.00    +0.015 A 
ATOM     18  C   UNL     1      -0.838   4.108  26.415  0.00  0.00    +0.071 A 
ENDROOT
BRANCH  15  20
ATOM     20  C   UNL     1       0.792   1.856  23.882  0.00  0.00    -0.016 A 
ATOM     23  C   UNL     1       0.546   0.523  23.567  0.00  0.00    +0.012 A 
ATOM     24  C   UNL     1       2.022   2.435  23.583  0.00  0.00    +0.012 A 
ATOM     25  C   UNL     1       1.538  -0.238  22.948  0.00  0.00    +0.046 A 
ATOM     26  C   UNL     1       3.013   1.675  22.965  0.00  0.00    +0.046 A 
ATOM     29  C   UNL     1       2.772   0.339  22.647  0.00  0.00    +0.120 A 
BRANCH  29   5
ATOM      5  O   UNL     1       3.741  -0.404  22.043  0.00  0.00    -0.495 OA
ATOM     31  C   UNL     1       5.073  -0.249  22.528  0.00  0.00    +0.277 C 
ENDBRANCH  29   5
ENDBRANCH  15  20
BRANCH   6   1
ATOM      1  S   UNL     1      -4.316  -0.685  24.741  0.00  0.00    +0.061 S 
ATOM      2  O   UNL     1      -5.060  -1.470  23.779  0.00  0.00    -0.153 OA
ATOM      3  O   UNL     1      -4.888  -0.345  26.026  0.00  0.00    -0.153 OA
BRANCH   1  19
ATOM     19  C   UNL     1      -2.780  -1.508  25.033  0.00  0.00    +0.105 A 
ATOM     21  C   UNL     1      -1.863  -0.941  25.902  0.00  0.00    +0.028 A 
ATOM     22  C   UNL     1      -2.519  -2.705  24.387  0.00  0.00    +0.028 A 
ATOM     27  C   UNL     1      -0.649  -1.590  26.131  0.00  0.00    +0.002 A 
ATOM     28  C   UNL     1      -1.306  -3.353  24.616  0.00  0.00    +0.002 A 
ATOM     30  C   UNL     1      -0.371  -2.797  25.489  0.00  0.00    +0.000 A 
ENDBRANCH   1  19
ENDBRANCH   6   1
TORSDOF 4
ENDMDL
MODEL 2
REMARK VINA RESULT:       6.8      1.679      2.237
REMARK  Name = 7144115
REMARK  5 active torsions:
REMARK  status: ('A' for Active; 'I' for Inactive)
REMARK    1  A    between atoms: S_1  and  N_6
REMARK    2  A    between atoms: S_1  and  C_19
REMARK    3  A    between atoms: O_5  and  C_29
REMARK    4  A    between atoms: O_5  and  C_31
REMARK    5  A    between atoms: C_15  and  C_20
REMARK                            x       y       z     vdW  Elec       q    Type
REMARK                         _______ _______ _______ _____ _____    ______ ____
ROOT
ATOM      4  O   UNL     1      -2.434   4.228  29.000  0.00  0.00    -0.268 OA
ATOM      6  N   UNL     1      -4.602   2.190  25.040  0.00  0.00    -0.176 NA
ATOM      7  N   UNL     1      -2.411   3.709  26.716  0.00  0.00    -0.311 N 
ATOM      8  C   UNL     1      -4.176   4.643  25.107  0.00  0.00    +0.025 C 
ATOM      9  C   UNL     1      -2.432   3.132  24.269  0.00  0.00    +0.053 C 
ATOM     10  C   UNL     1      -3.086   4.495  24.058  0.00  0.00    +0.017 C 
ATOM     11  C   UNL     1      -5.232   3.538  24.959  0.00  0.00    +0.114 C 
ATOM     12  C   UNL     1      -3.483   2.023  24.068  0.00  0.00    +0.119 C 
ATOM     13  C   UNL     1      -3.524   4.641  26.491  0.00  0.00    +0.130 C 
ATOM     14  C   UNL     1      -1.788   3.024  25.653  0.00  0.00    +0.034 A 
ATOM     15  C   UNL     1      -0.669   2.288  25.887  0.00  0.00    +0.002 A 
ATOM     16  C   UNL     1      -1.938   3.640  28.038  0.00  0.00    +0.252 A 
ATOM     17  C   UNL     1      -0.155   2.190  27.240  0.00  0.00    +0.015 A 
ATOM     18  C   UNL     1      -0.739   2.803  28.270  0.00  0.00    +0.071 A 
ENDROOT
BRANCH  15  20
ATOM     20  C   UNL     1       0.031   1.570  24.801  0.00  0.00    -0.016 A 
ATOM     23  C   UNL     1      -0.389   0.295  24.433  0.00  0.00    +0.012 A 
ATOM     24  C   UNL     1       1.107   2.172  24.155  0.00  0.00    +0.012 A 
ATOM     25  C   UNL     1       0.273  -0.384  23.409  0.00  0.00    +0.046 A 
ATOM     26  C   UNL     1       1.767   1.493  23.132  0.00  0.00    +0.046 A 
ATOM     29  C   UNL     1       1.351   0.216  22.759  0.00  0.00    +0.120 A 
BRANCH  29   5
ATOM      5  O   UNL     1       1.997  -0.446  21.759  0.00  0.00    -0.495 OA
ATOM     31  C   UNL     1       3.338  -0.051  21.480  0.00  0.00    +0.277 C 
ENDBRANCH  29   5
ENDBRANCH  15  20
BRANCH   6   1
ATOM      1  S   UNL     1      -5.684   0.871  25.158  0.00  0.00    +0.061 S 
ATOM      2  O   UNL     1      -6.547   0.860  23.995  0.00  0.00    -0.153 OA
ATOM      3  O   UNL     1      -6.237   0.832  26.495  0.00  0.00    -0.153 OA
BRANCH   1  19
ATOM     19  C   UNL     1      -4.552  -0.475  25.001  0.00  0.00    +0.105 A 
ATOM     21  C   UNL     1      -4.646  -1.315  23.904  0.00  0.00    +0.028 A 
ATOM     22  C   UNL     1      -3.591  -0.669  25.979  0.00  0.00    +0.028 A 
ATOM     27  C   UNL     1      -3.754  -2.380  23.781  0.00  0.00    +0.002 A 
ATOM     28  C   UNL     1      -2.698  -1.734  25.855  0.00  0.00    +0.002 A 
ATOM     30  C   UNL     1      -2.778  -2.589  24.757  0.00  0.00    +0.000 A 
ENDBRANCH   1  19
ENDBRANCH   6   1
TORSDOF 4
ENDMDL
MODEL 3
REMARK VINA RESULT:       9.3      2.832      5.152
REMARK  Name = 7144115
REMARK  5 active torsions:
REMARK  status: ('A' for Active; 'I' for Inactive)
REMARK    1  A    between atoms: S_1  and  N_6
REMARK    2  A    between atoms: S_1  and  C_19
REMARK    3  A    between atoms: O_5  and  C_29
REMARK    4  A    between atoms: O_5  and  C_31
REMARK    5  A    between atoms: C_15  and  C_20
REMARK                            x       y       z     vdW  Elec       q    Type
REMARK                         _______ _______ _______ _____ _____    ______ ____
ROOT
ATOM      4  O   UNL     1      -1.345   3.459  21.982  0.00  0.00    -0.268 OA
ATOM      6  N   UNL     1      -2.199  -0.464  24.882  0.00  0.00    -0.176 NA
ATOM      7  N   UNL     1      -0.622   1.955  23.625  0.00  0.00    -0.311 N 
ATOM      8  C   UNL     1      -0.412  -0.556  23.149  0.00  0.00    +0.025 C 
ATOM      9  C   UNL     1       0.110   0.315  25.384  0.00  0.00    +0.053 C 
ATOM     10  C   UNL     1       0.656  -0.523  24.231  0.00  0.00    +0.017 C 
ATOM     11  C   UNL     1      -1.707  -1.191  23.678  0.00  0.00    +0.114 C 
ATOM     12  C   UNL     1      -1.160  -0.353  25.946  0.00  0.00    +0.119 C 
ATOM     13  C   UNL     1      -0.631   0.868  22.636  0.00  0.00    +0.130 C 
ATOM     14  C   UNL     1      -0.181   1.753  24.948  0.00  0.00    +0.034 A 
ATOM     15  C   UNL     1      -0.049   2.816  25.786  0.00  0.00    +0.002 A 
ATOM     16  C   UNL     1      -0.969   3.225  23.130  0.00  0.00    +0.252 A 
ATOM     17  C   UNL     1      -0.402   4.140  25.312  0.00  0.00    +0.015 A 
ATOM     18  C   UNL     1      -0.849   4.358  24.075  0.00  0.00    +0.071 A 
ENDROOT
BRANCH  15  20
ATOM     20  C   UNL     1       0.429   2.656  27.176  0.00  0.00    -0.016 A 
ATOM     23  C   UNL     1       1.793   2.703  27.447  0.00  0.00    +0.012 A 
ATOM     24  C   UNL     1      -0.488   2.457  28.204  0.00  0.00    +0.012 A 
ATOM     25  C   UNL     1       2.245   2.551  28.758  0.00  0.00    +0.046 A 
ATOM     26  C   UNL     1      -0.036   2.306  29.514  0.00  0.00    +0.046 A 
ATOM     29  C   UNL     1       1.330   2.352  29.792  0.00  0.00    +0.120 A 
BRANCH  29   5
ATOM      5  O   UNL     1       1.771   2.204  31.071  0.00  0.00    -0.495 OA
ATOM     31  C   UNL     1       0.790   2.259  32.106  0.00  0.00    +0.277 C 
ENDBRANCH  29   5
ENDBRANCH  15  20
BRANCH   6   1
ATOM      1  S   UNL     1      -3.766  -0.892  25.417  0.00  0.00    +0.061 S 
ATOM      2  O   UNL     1      -3.694  -1.335  26.793  0.00  0.00    -0.153 OA
ATOM      3  O   UNL     1      -4.404  -1.708  24.405  0.00  0.00    -0.153 OA
BRANCH   1  19
ATOM     19  C   UNL     1      -4.543   0.694  25.402  0.00  0.00    +0.105 A 
ATOM     21  C   UNL     1      -3.981   1.717  24.657  0.00  0.00    +0.028 A 
ATOM     22  C   UNL     1      -5.701   0.889  26.137  0.00  0.00    +0.028 A 
ATOM     27  C   UNL     1      -4.593   2.971  24.647  0.00  0.00    +0.002 A 
ATOM     28  C   UNL     1      -6.313   2.142  26.127  0.00  0.00    +0.002 A 
ATOM     30  C   UNL     1      -5.760   3.183  25.382  0.00  0.00    +0.000 A 
ENDBRANCH   1  19
ENDBRANCH   6   1
TORSDOF 4
ENDMDL
MODEL 4
REMARK VINA RESULT:       9.5      2.714      5.459
REMARK  Name = 7144115
REMARK  5 active torsions:
REMARK  status: ('A' for Active; 'I' for Inactive)
REMARK    1  A    between atoms: S_1  and  N_6
REMARK    2  A    between atoms: S_1  and  C_19
REMARK    3  A    between atoms: O_5  and  C_29
REMARK    4  A    between atoms: O_5  and  C_31
REMARK    5  A    between atoms: C_15  and  C_20
REMARK                            x       y       z     vdW  Elec       q    Type
REMARK                         _______ _______ _______ _____ _____    ______ ____
ROOT
ATOM      4  O   UNL     1       1.328   2.949  28.091  0.00  0.00    -0.268 OA
ATOM      6  N   UNL     1      -2.184   3.756  24.693  0.00  0.00    -0.176 NA
ATOM      7  N   UNL     1       0.198   2.296  26.145  0.00  0.00    -0.311 N 
ATOM      8  C   UNL     1       0.216   3.746  24.030  0.00  0.00    +0.025 C 
ATOM      9  C   UNL     1      -1.042   1.638  24.060  0.00  0.00    +0.053 C 
ATOM     10  C   UNL     1       0.023   2.426  23.301  0.00  0.00    +0.017 C 
ATOM     11  C   UNL     1      -1.092   4.550  24.064  0.00  0.00    +0.114 C 
ATOM     12  C   UNL     1      -2.367   2.424  24.047  0.00  0.00    +0.119 C 
ATOM     13  C   UNL     1       0.755   3.454  25.432  0.00  0.00    +0.130 C 
ATOM     14  C   UNL     1      -0.604   1.337  25.495  0.00  0.00    +0.034 A 
ATOM     15  C   UNL     1      -0.974   0.207  26.154  0.00  0.00    +0.002 A 
ATOM     16  C   UNL     1       0.617   2.151  27.480  0.00  0.00    +0.252 A 
ATOM     17  C   UNL     1      -0.565   0.025  27.534  0.00  0.00    +0.015 A 
ATOM     18  C   UNL     1       0.170   0.928  28.184  0.00  0.00    +0.071 A 
ENDROOT
BRANCH  15  20
ATOM     20  C   UNL     1      -1.797  -0.837  25.507  0.00  0.00    -0.016 A 
ATOM     23  C   UNL     1      -3.184  -0.772  25.590  0.00  0.00    +0.012 A 
ATOM     24  C   UNL     1      -1.179  -1.878  24.822  0.00  0.00    +0.012 A 
ATOM     25  C   UNL     1      -3.962  -1.758  24.981  0.00  0.00    +0.046 A 
ATOM     26  C   UNL     1      -1.956  -2.863  24.213  0.00  0.00    +0.046 A 
ATOM     29  C   UNL     1      -3.346  -2.803  24.292  0.00  0.00    +0.120 A 
BRANCH  29   5
ATOM      5  O   UNL     1      -4.105  -3.766  23.698  0.00  0.00    -0.495 OA
ATOM     31  C   UNL     1      -5.333  -3.348  23.105  0.00  0.00    +0.277 C 
ENDBRANCH  29   5
ENDBRANCH  15  20
BRANCH   6   1
ATOM      1  S   UNL     1      -3.621   4.616  25.039  0.00  0.00    +0.061 S 
ATOM      2  O   UNL     1      -4.043   5.332  23.853  0.00  0.00    -0.153 OA
ATOM      3  O   UNL     1      -3.469   5.300  26.306  0.00  0.00    -0.153 OA
BRANCH   1  19
ATOM     19  C   UNL     1      -4.739   3.270  25.281  0.00  0.00    +0.105 A 
ATOM     21  C   UNL     1      -5.379   3.132  26.501  0.00  0.00    +0.028 A 
ATOM     22  C   UNL     1      -4.954   2.374  24.247  0.00  0.00    +0.028 A 
ATOM     27  C   UNL     1      -6.259   2.068  26.693  0.00  0.00    +0.002 A 
ATOM     28  C   UNL     1      -5.834   1.309  24.439  0.00  0.00    +0.002 A 
ATOM     30  C   UNL     1      -6.488   1.156  25.662  0.00  0.00    +0.000 A 
ENDBRANCH   1  19
ENDBRANCH   6   1
TORSDOF 4
ENDMDL
