MODEL 1
REMARK VINA RESULT:      -3.9      0.000      0.000
REMARK  Name = 75368712
REMARK  7 active torsions:
REMARK  status: ('A' for Active; 'I' for Inactive)
REMARK    1  A    between atoms: O_2  and  C_17
REMARK    2  A    between atoms: O_2  and  C_21
REMARK    3  A    between atoms: N_4  and  C_14
REMARK    4  A    between atoms: N_5  and  C_15
REMARK    5  A    between atoms: N_6  and  C_20
REMARK    6  A    between atoms: C_14  and  C_16
REMARK    7  A    between atoms: C_15  and  C_17
REMARK                            x       y       z     vdW  Elec       q    Type
REMARK                         _______ _______ _______ _____ _____    ______ ____
ROOT
ATOM      1  O   UNL     1      -2.023   4.314  25.766  0.00  0.00    -0.252 OA
ATOM      3  N   UNL     1      -1.300   2.254  24.897  0.00  0.00    -0.278 N 
ATOM      4  N   UNL     1       0.365   0.387  23.612  0.00  0.00    -0.295 NA
ATOM      5  N   UNL     1      -3.425   2.878  24.526  0.00  0.00    -0.281 N 
ATOM      8  C   UNL     1      -1.902   1.117  24.232  0.00  0.00    +0.109 C 
ATOM      9  C   UNL     1      -1.000   0.624  23.101  0.00  0.00    +0.109 C 
ATOM     10  C   UNL     1      -3.265   1.640  23.785  0.00  0.00    +0.133 C 
ATOM     11  C   UNL     1       0.087   2.183  25.307  0.00  0.00    +0.125 C 
ATOM     12  C   UNL     1       0.943   1.628  24.166  0.00  0.00    +0.104 C 
ATOM     13  C   UNL     1      -2.224   3.278  25.145  0.00  0.00    +0.305 C 
ENDROOT
BRANCH   4  14
ATOM     14  C   UNL     1       1.221  -0.144  22.550  0.00  0.00    +0.122 C 
BRANCH  14  16
ATOM      6  N   UNL     1       4.721  -0.335  23.595  0.00  0.00    -0.274 N 
ATOM      7  N   UNL     1       4.777   0.891  23.046  0.00  0.00    -0.180 NA
ATOM     16  C   UNL     1       2.682  -0.003  22.885  0.00  0.00    +0.004 A 
ATOM     18  C   UNL     1       3.488  -0.914  23.524  0.00  0.00    +0.112 A 
ATOM     19  C   UNL     1       3.530   1.088  22.614  0.00  0.00    +0.139 A 
ATOM     20  C   UNL     1       5.904  -0.911  24.185  0.00  0.00    +0.172 C 
ENDBRANCH  14  16
ENDBRANCH   4  14
BRANCH   5  15
ATOM     15  C   UNL     1      -4.648   3.650  24.475  0.00  0.00    +0.137 C 
BRANCH  15  17
ATOM     17  C   UNL     1      -5.375   3.630  25.808  0.00  0.00    +0.178 C 
BRANCH  17   2
ATOM      2  O   UNL     1      -5.770   2.298  26.111  0.00  0.00    -0.381 OA
ATOM     21  C   UNL     1      -6.546   1.733  25.063  0.00  0.00    +0.194 C 
ENDBRANCH  17   2
ENDBRANCH  15  17
ENDBRANCH   5  15
TORSDOF 5
ENDMDL
MODEL 2
REMARK VINA RESULT:      -3.2     16.913     19.054
REMARK  Name = 75368712
REMARK  7 active torsions:
REMARK  status: ('A' for Active; 'I' for Inactive)
REMARK    1  A    between atoms: O_2  and  C_17
REMARK    2  A    between atoms: O_2  and  C_21
REMARK    3  A    between atoms: N_4  and  C_14
REMARK    4  A    between atoms: N_5  and  C_15
REMARK    5  A    between atoms: N_6  and  C_20
REMARK    6  A    between atoms: C_14  and  C_16
REMARK    7  A    between atoms: C_15  and  C_17
REMARK                            x       y       z     vdW  Elec       q    Type
REMARK                         _______ _______ _______ _____ _____    ______ ____
ROOT
ATOM      1  O   UNL     1      -5.619  -7.651   9.411  0.00  0.00    -0.252 OA
ATOM      3  N   UNL     1      -7.086  -9.299  10.219  0.00  0.00    -0.278 N 
ATOM      4  N   UNL     1      -9.330 -10.420  11.490  0.00  0.00    -0.295 NA
ATOM      5  N   UNL     1      -4.881  -9.594  10.526  0.00  0.00    -0.281 N 
ATOM      8  C   UNL     1      -6.974 -10.618  10.806  0.00  0.00    +0.109 C 
ATOM      9  C   UNL     1      -7.973 -10.776  11.952  0.00  0.00    +0.109 C 
ATOM     10  C   UNL     1      -5.506 -10.707  11.218  0.00  0.00    +0.133 C 
ATOM     11  C   UNL     1      -8.394  -8.789   9.865  0.00  0.00    +0.125 C 
ATOM     12  C   UNL     1      -9.375  -9.023  11.016  0.00  0.00    +0.104 C 
ATOM     13  C   UNL     1      -5.835  -8.715   9.977  0.00  0.00    +0.305 C 
ENDROOT
BRANCH   4  14
ATOM     14  C   UNL     1     -10.304 -10.627  12.562  0.00  0.00    +0.122 C 
BRANCH  14  16
ATOM      6  N   UNL     1     -10.117  -8.117  15.216  0.00  0.00    -0.274 N 
ATOM      7  N   UNL     1      -9.097  -8.884  15.639  0.00  0.00    -0.180 NA
ATOM     16  C   UNL     1     -10.044  -9.724  13.738  0.00  0.00    +0.004 A 
ATOM     18  C   UNL     1     -10.718  -8.578  14.081  0.00  0.00    +0.112 A 
ATOM     19  C   UNL     1      -9.057  -9.863  14.733  0.00  0.00    +0.139 A 
ATOM     20  C   UNL     1     -10.477  -6.932  15.954  0.00  0.00    +0.172 C 
ENDBRANCH  14  16
ENDBRANCH   4  14
BRANCH   5  15
ATOM     15  C   UNL     1      -3.451  -9.377  10.559  0.00  0.00    +0.137 C 
BRANCH  15  17
ATOM     17  C   UNL     1      -2.731 -10.504  11.278  0.00  0.00    +0.178 C 
BRANCH  17   2
ATOM      2  O   UNL     1      -1.576  -9.988  11.927  0.00  0.00    -0.381 OA
ATOM     21  C   UNL     1      -0.899  -9.042  11.112  0.00  0.00    +0.194 C 
ENDBRANCH  17   2
ENDBRANCH  15  17
ENDBRANCH   5  15
TORSDOF 5
ENDMDL
MODEL 3
REMARK VINA RESULT:      -3.2     16.903     18.967
REMARK  Name = 75368712
REMARK  7 active torsions:
REMARK  status: ('A' for Active; 'I' for Inactive)
REMARK    1  A    between atoms: O_2  and  C_17
REMARK    2  A    between atoms: O_2  and  C_21
REMARK    3  A    between atoms: N_4  and  C_14
REMARK    4  A    between atoms: N_5  and  C_15
REMARK    5  A    between atoms: N_6  and  C_20
REMARK    6  A    between atoms: C_14  and  C_16
REMARK    7  A    between atoms: C_15  and  C_17
REMARK                            x       y       z     vdW  Elec       q    Type
REMARK                         _______ _______ _______ _____ _____    ______ ____
ROOT
ATOM      1  O   UNL     1      -1.437  -9.182  10.872  0.00  0.00    -0.252 OA
ATOM      3  N   UNL     1      -3.703  -9.643  10.459  0.00  0.00    -0.278 N 
ATOM      4  N   UNL     1      -6.377  -9.203   9.706  0.00  0.00    -0.295 NA
ATOM      5  N   UNL     1      -2.785 -10.427  12.354  0.00  0.00    -0.281 N 
ATOM      8  C   UNL     1      -4.744 -10.449  11.062  0.00  0.00    +0.109 C 
ATOM      9  C   UNL     1      -6.070  -9.689  11.067  0.00  0.00    +0.109 C 
ATOM     10  C   UNL     1      -4.190 -10.781  12.446  0.00  0.00    +0.133 C 
ATOM     11  C   UNL     1      -3.954  -8.995   9.190  0.00  0.00    +0.125 C 
ATOM     12  C   UNL     1      -5.316  -8.298   9.219  0.00  0.00    +0.104 C 
ATOM     13  C   UNL     1      -2.506  -9.690  11.186  0.00  0.00    +0.305 C 
ENDROOT
BRANCH   4  14
ATOM     14  C   UNL     1      -7.673  -8.525   9.687  0.00  0.00    +0.122 C 
BRANCH  14  16
ATOM      6  N   UNL     1      -9.804 -10.236  12.119  0.00  0.00    -0.274 N 
ATOM      7  N   UNL     1     -10.615 -10.377  11.057  0.00  0.00    -0.180 NA
ATOM     16  C   UNL     1      -8.702  -9.260  10.505  0.00  0.00    +0.004 A 
ATOM     18  C   UNL     1      -8.644  -9.574  11.841  0.00  0.00    +0.112 A 
ATOM     19  C   UNL     1      -9.938  -9.779  10.075  0.00  0.00    +0.139 A 
ATOM     20  C   UNL     1     -10.199 -10.769  13.399  0.00  0.00    +0.172 C 
ENDBRANCH  14  16
ENDBRANCH   4  14
BRANCH   5  15
ATOM     15  C   UNL     1      -1.856 -10.688  13.431  0.00  0.00    +0.137 C 
BRANCH  15  17
ATOM     17  C   UNL     1      -2.566 -10.781  14.770  0.00  0.00    +0.178 C 
BRANCH  17   2
ATOM      2  O   UNL     1      -1.618 -10.629  15.819  0.00  0.00    -0.381 OA
ATOM     21  C   UNL     1      -0.668  -9.615  15.520  0.00  0.00    +0.194 C 
ENDBRANCH  17   2
ENDBRANCH  15  17
ENDBRANCH   5  15
TORSDOF 5
ENDMDL
MODEL 4
REMARK VINA RESULT:      -3.1     16.256     18.410
REMARK  Name = 75368712
REMARK  7 active torsions:
REMARK  status: ('A' for Active; 'I' for Inactive)
REMARK    1  A    between atoms: O_2  and  C_17
REMARK    2  A    between atoms: O_2  and  C_21
REMARK    3  A    between atoms: N_4  and  C_14
REMARK    4  A    between atoms: N_5  and  C_15
REMARK    5  A    between atoms: N_6  and  C_20
REMARK    6  A    between atoms: C_14  and  C_16
REMARK    7  A    between atoms: C_15  and  C_17
REMARK                            x       y       z     vdW  Elec       q    Type
REMARK                         _______ _______ _______ _____ _____    ______ ____
ROOT
ATOM      1  O   UNL     1      -3.851  -9.450  10.254  0.00  0.00    -0.252 OA
ATOM      3  N   UNL     1      -5.871 -10.143  11.235  0.00  0.00    -0.278 N 
ATOM      4  N   UNL     1      -8.591 -10.107  11.946  0.00  0.00    -0.295 NA
ATOM      5  N   UNL     1      -3.996 -10.251  12.469  0.00  0.00    -0.281 N 
ATOM      8  C   UNL     1      -6.282 -10.781  12.468  0.00  0.00    +0.109 C 
ATOM      9  C   UNL     1      -7.559 -10.132  13.002  0.00  0.00    +0.109 C 
ATOM     10  C   UNL     1      -5.062 -10.638  13.375  0.00  0.00    +0.133 C 
ATOM     11  C   UNL     1      -6.845  -9.933  10.186  0.00  0.00    +0.125 C 
ATOM     12  C   UNL     1      -8.127  -9.339  10.774  0.00  0.00    +0.104 C 
ATOM     13  C   UNL     1      -4.492  -9.895  11.198  0.00  0.00    +0.305 C 
ENDROOT
BRANCH   4  14
ATOM     14  C   UNL     1      -9.838  -9.544  12.465  0.00  0.00    +0.122 C 
BRANCH  14  16
ATOM      6  N   UNL     1      -9.713  -9.465  16.119  0.00  0.00    -0.274 N 
ATOM      7  N   UNL     1     -10.583 -10.482  16.003  0.00  0.00    -0.180 NA
ATOM     16  C   UNL     1      -9.942  -9.693  13.959  0.00  0.00    +0.004 A 
ATOM     18  C   UNL     1      -9.298  -8.956  14.923  0.00  0.00    +0.112 A 
ATOM     19  C   UNL     1     -10.719 -10.617  14.683  0.00  0.00    +0.139 A 
ATOM     20  C   UNL     1      -9.307  -9.014  17.427  0.00  0.00    +0.172 C 
ENDBRANCH  14  16
ENDBRANCH   4  14
BRANCH   5  15
ATOM     15  C   UNL     1      -2.626 -10.114  12.910  0.00  0.00    +0.137 C 
BRANCH  15  17
ATOM     17  C   UNL     1      -2.481 -10.435  14.387  0.00  0.00    +0.178 C 
BRANCH  17   2
ATOM      2  O   UNL     1      -1.332  -9.774  14.903  0.00  0.00    -0.381 OA
ATOM     21  C   UNL     1      -0.724 -10.524  15.946  0.00  0.00    +0.194 C 
ENDBRANCH  17   2
ENDBRANCH  15  17
ENDBRANCH   5  15
TORSDOF 5
ENDMDL
MODEL 5
REMARK VINA RESULT:      -2.6      2.986      7.681
REMARK  Name = 75368712
REMARK  7 active torsions:
REMARK  status: ('A' for Active; 'I' for Inactive)
REMARK    1  A    between atoms: O_2  and  C_17
REMARK    2  A    between atoms: O_2  and  C_21
REMARK    3  A    between atoms: N_4  and  C_14
REMARK    4  A    between atoms: N_5  and  C_15
REMARK    5  A    between atoms: N_6  and  C_20
REMARK    6  A    between atoms: C_14  and  C_16
REMARK    7  A    between atoms: C_15  and  C_17
REMARK                            x       y       z     vdW  Elec       q    Type
REMARK                         _______ _______ _______ _____ _____    ______ ____
ROOT
ATOM      1  O   UNL     1       1.196  -1.007  22.423  0.00  0.00    -0.252 OA
ATOM      3  N   UNL     1      -0.418  -0.518  24.059  0.00  0.00    -0.278 N 
ATOM      4  N   UNL     1      -2.948  -0.303  25.268  0.00  0.00    -0.295 NA
ATOM      5  N   UNL     1       1.195   0.996  23.668  0.00  0.00    -0.281 N 
ATOM      8  C   UNL     1      -0.634   0.509  25.056  0.00  0.00    +0.109 C 
ATOM      9  C   UNL     1      -2.110   0.903  25.103  0.00  0.00    +0.109 C 
ATOM     10  C   UNL     1       0.315   1.629  24.634  0.00  0.00    +0.133 C 
ATOM     11  C   UNL     1      -1.284  -1.678  24.037  0.00  0.00    +0.125 C 
ATOM     12  C   UNL     1      -2.746  -1.242  24.147  0.00  0.00    +0.104 C 
ATOM     13  C   UNL     1       0.719  -0.272  23.278  0.00  0.00    +0.305 C 
ENDROOT
BRANCH   4  14
ATOM     14  C   UNL     1      -4.359   0.068  25.376  0.00  0.00    +0.122 C 
BRANCH  14  16
ATOM      6  N   UNL     1      -5.247   3.611  25.194  0.00  0.00    -0.274 N 
ATOM      7  N   UNL     1      -4.403   3.596  24.149  0.00  0.00    -0.180 NA
ATOM     16  C   UNL     1      -4.576   1.534  25.114  0.00  0.00    +0.004 A 
ATOM     18  C   UNL     1      -5.386   2.400  25.807  0.00  0.00    +0.112 A 
ATOM     19  C   UNL     1      -3.995   2.326  24.105  0.00  0.00    +0.139 A 
ATOM     20  C   UNL     1      -5.907   4.838  25.567  0.00  0.00    +0.172 C 
ENDBRANCH  14  16
ENDBRANCH   4  14
BRANCH   5  15
ATOM     15  C   UNL     1       2.326   1.689  23.092  0.00  0.00    +0.137 C 
BRANCH  15  17
ATOM     17  C   UNL     1       3.436   0.725  22.712  0.00  0.00    +0.178 C 
BRANCH  17   2
ATOM      2  O   UNL     1       4.598   1.016  23.479  0.00  0.00    -0.381 OA
ATOM     21  C   UNL     1       5.408  -0.138  23.657  0.00  0.00    +0.194 C 
ENDBRANCH  17   2
ENDBRANCH  15  17
ENDBRANCH   5  15
TORSDOF 5
ENDMDL
MODEL 6
REMARK VINA RESULT:      -2.4      1.318      1.791
REMARK  Name = 75368712
REMARK  7 active torsions:
REMARK  status: ('A' for Active; 'I' for Inactive)
REMARK    1  A    between atoms: O_2  and  C_17
REMARK    2  A    between atoms: O_2  and  C_21
REMARK    3  A    between atoms: N_4  and  C_14
REMARK    4  A    between atoms: N_5  and  C_15
REMARK    5  A    between atoms: N_6  and  C_20
REMARK    6  A    between atoms: C_14  and  C_16
REMARK    7  A    between atoms: C_15  and  C_17
REMARK                            x       y       z     vdW  Elec       q    Type
REMARK                         _______ _______ _______ _____ _____    ______ ____
ROOT
ATOM      1  O   UNL     1      -2.889   2.926  25.501  0.00  0.00    -0.252 OA
ATOM      3  N   UNL     1      -1.147   1.441  24.973  0.00  0.00    -0.278 N 
ATOM      4  N   UNL     1       1.164   0.445  23.717  0.00  0.00    -0.295 NA
ATOM      5  N   UNL     1      -3.228   0.617  25.164  0.00  0.00    -0.281 N 
ATOM      8  C   UNL     1      -0.985   0.008  24.835  0.00  0.00    +0.109 C 
ATOM      9  C   UNL     1      -0.101  -0.313  23.630  0.00  0.00    +0.109 C 
ATOM     10  C   UNL     1      -2.418  -0.510  24.736  0.00  0.00    +0.133 C 
ATOM     11  C   UNL     1       0.021   2.294  24.922  0.00  0.00    +0.125 C 
ATOM     12  C   UNL     1       0.906   1.899  23.738  0.00  0.00    +0.104 C 
ATOM     13  C   UNL     1      -2.472   1.803  25.249  0.00  0.00    +0.305 C 
ENDROOT
BRANCH   4  14
ATOM     14  C   UNL     1       2.043   0.099  22.600  0.00  0.00    +0.122 C 
BRANCH  14  16
ATOM      6  N   UNL     1       5.576  -0.187  23.501  0.00  0.00    -0.274 N 
ATOM      7  N   UNL     1       5.179  -1.367  24.007  0.00  0.00    -0.180 NA
ATOM     16  C   UNL     1       3.436  -0.231  23.065  0.00  0.00    +0.004 A 
ATOM     18  C   UNL     1       4.570   0.532  22.925  0.00  0.00    +0.112 A 
ATOM     19  C   UNL     1       3.872  -1.389  23.738  0.00  0.00    +0.139 A 
ATOM     20  C   UNL     1       6.960   0.205  23.600  0.00  0.00    +0.172 C 
ENDBRANCH  14  16
ENDBRANCH   4  14
BRANCH   5  15
ATOM     15  C   UNL     1      -4.662   0.514  25.322  0.00  0.00    +0.137 C 
BRANCH  15  17
ATOM     17  C   UNL     1      -5.396   1.424  24.354  0.00  0.00    +0.178 C 
BRANCH  17   2
ATOM      2  O   UNL     1      -6.419   2.127  25.049  0.00  0.00    -0.381 OA
ATOM     21  C   UNL     1      -5.888   3.209  25.801  0.00  0.00    +0.194 C 
ENDBRANCH  17   2
ENDBRANCH  15  17
ENDBRANCH   5  15
TORSDOF 5
ENDMDL
MODEL 7
REMARK VINA RESULT:      -2.3     15.880     18.013
REMARK  Name = 75368712
REMARK  7 active torsions:
REMARK  status: ('A' for Active; 'I' for Inactive)
REMARK    1  A    between atoms: O_2  and  C_17
REMARK    2  A    between atoms: O_2  and  C_21
REMARK    3  A    between atoms: N_4  and  C_14
REMARK    4  A    between atoms: N_5  and  C_15
REMARK    5  A    between atoms: N_6  and  C_20
REMARK    6  A    between atoms: C_14  and  C_16
REMARK    7  A    between atoms: C_15  and  C_17
REMARK                            x       y       z     vdW  Elec       q    Type
REMARK                         _______ _______ _______ _____ _____    ______ ____
ROOT
ATOM      1  O   UNL     1      -3.714  -9.317  10.371  0.00  0.00    -0.252 OA
ATOM      3  N   UNL     1      -5.494 -10.083  11.698  0.00  0.00    -0.278 N 
ATOM      4  N   UNL     1      -8.048 -10.161  12.872  0.00  0.00    -0.295 NA
ATOM      5  N   UNL     1      -3.431 -10.077  12.586  0.00  0.00    -0.281 N 
ATOM      8  C   UNL     1      -5.653 -10.714  12.991  0.00  0.00    +0.109 C 
ATOM      9  C   UNL     1      -6.848 -10.115  13.732  0.00  0.00    +0.109 C 
ATOM     10  C   UNL     1      -4.302 -10.495  13.669  0.00  0.00    +0.133 C 
ATOM     11  C   UNL     1      -6.646  -9.941  10.832  0.00  0.00    +0.125 C 
ATOM     12  C   UNL     1      -7.834  -9.396  11.628  0.00  0.00    +0.104 C 
ATOM     13  C   UNL     1      -4.157  -9.772  11.417  0.00  0.00    +0.305 C 
ENDROOT
BRANCH   4  14
ATOM     14  C   UNL     1      -9.212  -9.646  13.594  0.00  0.00    +0.122 C 
BRANCH  14  16
ATOM      6  N   UNL     1      -8.433 -10.087  17.140  0.00  0.00    -0.274 N 
ATOM      7  N   UNL     1      -8.930  -8.842  17.232  0.00  0.00    -0.180 NA
ATOM     16  C   UNL     1      -8.978  -9.606  15.080  0.00  0.00    +0.004 A 
ATOM     18  C   UNL     1      -8.439 -10.591  15.872  0.00  0.00    +0.112 A 
ATOM     19  C   UNL     1      -9.261  -8.553  15.972  0.00  0.00    +0.139 A 
ATOM     20  C   UNL     1      -7.958 -10.759  18.325  0.00  0.00    +0.172 C 
ENDBRANCH  14  16
ENDBRANCH   4  14
BRANCH   5  15
ATOM     15  C   UNL     1      -2.013  -9.867  12.779  0.00  0.00    +0.137 C 
BRANCH  15  17
ATOM     17  C   UNL     1      -1.226 -10.185  11.520  0.00  0.00    +0.178 C 
BRANCH  17   2
ATOM      2  O   UNL     1      -0.718  -8.979  10.964  0.00  0.00    -0.381 OA
ATOM     21  C   UNL     1      -0.021  -8.210  11.935  0.00  0.00    +0.194 C 
ENDBRANCH  17   2
ENDBRANCH  15  17
ENDBRANCH   5  15
TORSDOF 5
ENDMDL
MODEL 8
REMARK VINA RESULT:      -2.3      2.663      7.917
REMARK  Name = 75368712
REMARK  7 active torsions:
REMARK  status: ('A' for Active; 'I' for Inactive)
REMARK    1  A    between atoms: O_2  and  C_17
REMARK    2  A    between atoms: O_2  and  C_21
REMARK    3  A    between atoms: N_4  and  C_14
REMARK    4  A    between atoms: N_5  and  C_15
REMARK    5  A    between atoms: N_6  and  C_20
REMARK    6  A    between atoms: C_14  and  C_16
REMARK    7  A    between atoms: C_15  and  C_17
REMARK                            x       y       z     vdW  Elec       q    Type
REMARK                         _______ _______ _______ _____ _____    ______ ____
ROOT
ATOM      1  O   UNL     1       0.063  -1.474  23.776  0.00  0.00    -0.252 OA
ATOM      3  N   UNL     1      -0.260   0.673  24.672  0.00  0.00    -0.278 N 
ATOM      4  N   UNL     1      -1.617   2.976  25.545  0.00  0.00    -0.295 NA
ATOM      5  N   UNL     1       1.396   0.379  23.183  0.00  0.00    -0.281 N 
ATOM      8  C   UNL     1       0.424   1.949  24.631  0.00  0.00    +0.109 C 
ATOM      9  C   UNL     1      -0.585   3.089  24.495  0.00  0.00    +0.109 C 
ATOM     10  C   UNL     1       1.391   1.805  23.458  0.00  0.00    +0.133 C 
ATOM     11  C   UNL     1      -1.387   0.501  25.563  0.00  0.00    +0.125 C 
ATOM     12  C   UNL     1      -2.340   1.692  25.438  0.00  0.00    +0.104 C 
ATOM     13  C   UNL     1       0.364  -0.291  23.869  0.00  0.00    +0.305 C 
ENDROOT
BRANCH   4  14
ATOM     14  C   UNL     1      -2.554   4.097  25.462  0.00  0.00    +0.122 C 
BRANCH  14  16
ATOM      6  N   UNL     1      -5.834   2.533  25.045  0.00  0.00    -0.274 N 
ATOM      7  N   UNL     1      -6.233   3.552  25.824  0.00  0.00    -0.180 NA
ATOM     16  C   UNL     1      -3.985   3.631  25.429  0.00  0.00    +0.004 A 
ATOM     18  C   UNL     1      -4.496   2.534  24.778  0.00  0.00    +0.112 A 
ATOM     19  C   UNL     1      -5.100   4.219  26.056  0.00  0.00    +0.139 A 
ATOM     20  C   UNL     1      -6.799   1.569  24.575  0.00  0.00    +0.172 C 
ENDBRANCH  14  16
ENDBRANCH   4  14
BRANCH   5  15
ATOM     15  C   UNL     1       2.278  -0.209  22.198  0.00  0.00    +0.137 C 
BRANCH  15  17
ATOM     17  C   UNL     1       3.695   0.320  22.332  0.00  0.00    +0.178 C 
BRANCH  17   2
ATOM      2  O   UNL     1       4.390  -0.434  23.316  0.00  0.00    -0.381 OA
ATOM     21  C   UNL     1       5.694   0.081  23.543  0.00  0.00    +0.194 C 
ENDBRANCH  17   2
ENDBRANCH  15  17
ENDBRANCH   5  15
TORSDOF 5
ENDMDL
MODEL 9
REMARK VINA RESULT:      -2.3      3.505      5.382
REMARK  Name = 75368712
REMARK  7 active torsions:
REMARK  status: ('A' for Active; 'I' for Inactive)
REMARK    1  A    between atoms: O_2  and  C_17
REMARK    2  A    between atoms: O_2  and  C_21
REMARK    3  A    between atoms: N_4  and  C_14
REMARK    4  A    between atoms: N_5  and  C_15
REMARK    5  A    between atoms: N_6  and  C_20
REMARK    6  A    between atoms: C_14  and  C_16
REMARK    7  A    between atoms: C_15  and  C_17
REMARK                            x       y       z     vdW  Elec       q    Type
REMARK                         _______ _______ _______ _____ _____    ______ ____
ROOT
ATOM      1  O   UNL     1      -3.697   4.662  26.791  0.00  0.00    -0.252 OA
ATOM      3  N   UNL     1      -4.281   2.967  25.271  0.00  0.00    -0.278 N 
ATOM      4  N   UNL     1      -5.114   0.447  24.344  0.00  0.00    -0.295 NA
ATOM      5  N   UNL     1      -2.451   4.197  24.843  0.00  0.00    -0.281 N 
ATOM      8  C   UNL     1      -3.837   2.517  23.969  0.00  0.00    +0.109 C 
ATOM      9  C   UNL     1      -3.809   0.989  23.916  0.00  0.00    +0.109 C 
ATOM     10  C   UNL     1      -2.476   3.190  23.797  0.00  0.00    +0.133 C 
ATOM     11  C   UNL     1      -5.473   2.388  25.853  0.00  0.00    +0.125 C 
ATOM     12  C   UNL     1      -5.431   0.864  25.724  0.00  0.00    +0.104 C 
ATOM     13  C   UNL     1      -3.504   4.025  25.763  0.00  0.00    +0.305 C 
ENDROOT
BRANCH   4  14
ATOM     14  C   UNL     1      -5.118  -1.013  24.238  0.00  0.00    +0.122 C 
BRANCH  14  16
ATOM      6  N   UNL     1      -1.637  -1.911  24.909  0.00  0.00    -0.274 N 
ATOM      7  N   UNL     1      -1.998  -3.065  24.323  0.00  0.00    -0.180 NA
ATOM     16  C   UNL     1      -3.740  -1.592  24.411  0.00  0.00    +0.004 A 
ATOM     18  C   UNL     1      -2.645  -0.995  24.987  0.00  0.00    +0.112 A 
ATOM     19  C   UNL     1      -3.282  -2.865  24.021  0.00  0.00    +0.139 A 
ATOM     20  C   UNL     1      -0.286  -1.739  25.384  0.00  0.00    +0.172 C 
ENDBRANCH  14  16
ENDBRANCH   4  14
BRANCH   5  15
ATOM     15  C   UNL     1      -1.366   5.146  24.967  0.00  0.00    +0.137 C 
BRANCH  15  17
ATOM     17  C   UNL     1      -0.015   4.454  24.950  0.00  0.00    +0.178 C 
BRANCH  17   2
ATOM      2  O   UNL     1      -0.021   3.383  25.886  0.00  0.00    -0.381 OA
ATOM     21  C   UNL     1       0.283   2.143  25.262  0.00  0.00    +0.194 C 
ENDBRANCH  17   2
ENDBRANCH  15  17
ENDBRANCH   5  15
TORSDOF 5
ENDMDL
MODEL 10
REMARK VINA RESULT:      -1.9      2.728      5.127
REMARK  Name = 75368712
REMARK  7 active torsions:
REMARK  status: ('A' for Active; 'I' for Inactive)
REMARK    1  A    between atoms: O_2  and  C_17
REMARK    2  A    between atoms: O_2  and  C_21
REMARK    3  A    between atoms: N_4  and  C_14
REMARK    4  A    between atoms: N_5  and  C_15
REMARK    5  A    between atoms: N_6  and  C_20
REMARK    6  A    between atoms: C_14  and  C_16
REMARK    7  A    between atoms: C_15  and  C_17
REMARK                            x       y       z     vdW  Elec       q    Type
REMARK                         _______ _______ _______ _____ _____    ______ ____
ROOT
ATOM      1  O   UNL     1       0.163   4.052  23.172  0.00  0.00    -0.252 OA
ATOM      3  N   UNL     1       0.127   2.052  24.405  0.00  0.00    -0.278 N 
ATOM      4  N   UNL     1      -0.087  -0.702  24.934  0.00  0.00    -0.295 NA
ATOM      5  N   UNL     1      -0.969   3.830  25.230  0.00  0.00    -0.281 N 
ATOM      8  C   UNL     1      -0.337   1.621  25.707  0.00  0.00    +0.109 C 
ATOM      9  C   UNL     1      -0.997   0.246  25.609  0.00  0.00    +0.109 C 
ATOM     10  C   UNL     1      -1.267   2.749  26.151  0.00  0.00    +0.133 C 
ATOM     11  C   UNL     1       0.904   1.140  23.592  0.00  0.00    +0.125 C 
ATOM     12  C   UNL     1       0.240  -0.238  23.571  0.00  0.00    +0.104 C 
ATOM     13  C   UNL     1      -0.179   3.395  24.147  0.00  0.00    +0.305 C 
ENDROOT
BRANCH   4  14
ATOM     14  C   UNL     1      -0.685  -2.037  24.889  0.00  0.00    +0.122 C 
BRANCH  14  16
ATOM      6  N   UNL     1      -4.231  -1.333  24.337  0.00  0.00    -0.274 N 
ATOM      7  N   UNL     1      -4.278  -2.649  24.067  0.00  0.00    -0.180 NA
ATOM     16  C   UNL     1      -2.163  -1.981  24.611  0.00  0.00    +0.004 A 
ATOM     18  C   UNL     1      -2.987  -0.883  24.669  0.00  0.00    +0.112 A 
ATOM     19  C   UNL     1      -3.012  -3.039  24.236  0.00  0.00    +0.139 A 
ATOM     20  C   UNL     1      -5.435  -0.543  24.260  0.00  0.00    +0.172 C 
ENDBRANCH  14  16
ENDBRANCH   4  14
BRANCH   5  15
ATOM     15  C   UNL     1      -1.562   5.142  25.369  0.00  0.00    +0.137 C 
BRANCH  15  17
ATOM     17  C   UNL     1      -3.047   5.053  25.672  0.00  0.00    +0.178 C 
BRANCH  17   2
ATOM      2  O   UNL     1      -3.679   4.227  24.702  0.00  0.00    -0.381 OA
ATOM     21  C   UNL     1      -4.749   3.483  25.268  0.00  0.00    +0.194 C 
ENDBRANCH  17   2
ENDBRANCH  15  17
ENDBRANCH   5  15
TORSDOF 5
ENDMDL
