MODEL 1
REMARK VINA RESULT:      -5.6      0.000      0.000
REMARK  Name = 51137121
REMARK  3 active torsions:
REMARK  status: ('A' for Active; 'I' for Inactive)
REMARK    1  A    between atoms: N_1  and  C_11
REMARK    2  A    between atoms: C_6  and  C_10
REMARK    3  A    between atoms: C_11  and  C_12
REMARK                            x       y       z     vdW  Elec       q    Type
REMARK                         _______ _______ _______ _____ _____    ______ ____
ROOT
ATOM      1  N   UNL     1       1.017  -0.329  23.633  0.00  0.00    -0.295 NA
ATOM      6  C   UNL     1      -0.832   0.125  25.004  0.00  0.00    +0.070 C 
ATOM      7  C   UNL     1      -1.038  -1.222  24.292  0.00  0.00    +0.028 C 
ATOM      8  C   UNL     1       0.305   0.805  24.228  0.00  0.00    +0.096 C 
ATOM      9  C   UNL     1      -0.035  -1.221  23.145  0.00  0.00    +0.085 C 
ENDROOT
BRANCH   6  10
ATOM      2  N   UNL     1      -3.321   0.439  25.039  0.00  0.00    -0.342 N 
ATOM      3  N   UNL     1      -2.111   2.288  25.267  0.00  0.00    -0.232 NA
ATOM     10  C   UNL     1      -2.070   0.985  25.107  0.00  0.00    +0.113 A 
ATOM     13  C   UNL     1      -4.231   1.458  25.161  0.00  0.00    +0.066 A 
ATOM     14  C   UNL     1      -3.450   2.602  25.303  0.00  0.00    +0.089 A 
ATOM     15  C   UNL     1      -5.626   1.476  25.161  0.00  0.00    +0.028 A 
ATOM     16  C   UNL     1      -4.083   3.847  25.454  0.00  0.00    +0.030 A 
ATOM     17  C   UNL     1      -6.239   2.724  25.313  0.00  0.00    +0.002 A 
ATOM     19  C   UNL     1      -5.483   3.889  25.457  0.00  0.00    +0.002 A 
ATOM     21  H   UNL     1      -3.541  -0.542  24.919  0.00  0.00    +0.167 HD
ENDBRANCH   6  10
BRANCH   1  11
ATOM     11  C   UNL     1       1.930   0.081  22.577  0.00  0.00    +0.158 C 
BRANCH  11  12
ATOM      4  N   UNL     1       3.915  -1.082  23.573  0.00  0.00    -0.347 N 
ATOM      5  N   UNL     1       4.232   1.035  22.977  0.00  0.00    -0.239 NA
ATOM     12  C   UNL     1       3.365   0.047  23.032  0.00  0.00    +0.121 A 
ATOM     18  C   UNL     1       5.215  -0.796  23.883  0.00  0.00    +0.104 A 
ATOM     20  C   UNL     1       5.387   0.515  23.505  0.00  0.00    +0.130 A 
ATOM     22  H   UNL     1       3.447  -1.967  23.717  0.00  0.00    +0.167 HD
ENDBRANCH  11  12
ENDBRANCH   1  11
TORSDOF 3
ENDMDL
MODEL 2
REMARK VINA RESULT:      -4.4     15.502     17.522
REMARK  Name = 51137121
REMARK  3 active torsions:
REMARK  status: ('A' for Active; 'I' for Inactive)
REMARK    1  A    between atoms: N_1  and  C_11
REMARK    2  A    between atoms: C_6  and  C_10
REMARK    3  A    between atoms: C_11  and  C_12
REMARK                            x       y       z     vdW  Elec       q    Type
REMARK                         _______ _______ _______ _____ _____    ______ ____
ROOT
ATOM      1  N   UNL     1      -6.118  -9.668  10.619  0.00  0.00    -0.295 NA
ATOM      6  C   UNL     1      -5.465  -9.345  12.849  0.00  0.00    +0.070 C 
ATOM      7  C   UNL     1      -4.487 -10.313  12.161  0.00  0.00    +0.028 C 
ATOM      8  C   UNL     1      -6.685  -9.299  11.918  0.00  0.00    +0.096 C 
ATOM      9  C   UNL     1      -5.212 -10.780  10.905  0.00  0.00    +0.085 C 
ENDROOT
BRANCH   6  10
ATOM      2  N   UNL     1      -4.858  -9.877  15.225  0.00  0.00    -0.342 N 
ATOM      3  N   UNL     1      -7.029  -9.896  14.755  0.00  0.00    -0.232 NA
ATOM     10  C   UNL     1      -5.822  -9.707  14.272  0.00  0.00    +0.113 A 
ATOM     13  C   UNL     1      -5.483 -10.197  16.402  0.00  0.00    +0.066 A 
ATOM     14  C   UNL     1      -6.838 -10.203  16.082  0.00  0.00    +0.089 A 
ATOM     15  C   UNL     1      -4.995 -10.474  17.679  0.00  0.00    +0.028 A 
ATOM     16  C   UNL     1      -7.776 -10.500  17.085  0.00  0.00    +0.030 A 
ATOM     17  C   UNL     1      -5.944 -10.767  18.665  0.00  0.00    +0.002 A 
ATOM     19  C   UNL     1      -7.310 -10.781  18.375  0.00  0.00    +0.002 A 
ATOM     21  H   UNL     1      -3.859  -9.783  15.090  0.00  0.00    +0.167 HD
ENDBRANCH   6  10
BRANCH   1  11
ATOM     11  C   UNL     1      -7.141 -10.024   9.647  0.00  0.00    +0.158 C 
BRANCH  11  12
ATOM      4  N   UNL     1      -7.314  -7.806   8.494  0.00  0.00    -0.347 N 
ATOM      5  N   UNL     1      -9.199  -8.591   9.368  0.00  0.00    -0.239 NA
ATOM     12  C   UNL     1      -7.918  -8.820   9.184  0.00  0.00    +0.121 A 
ATOM     18  C   UNL     1      -8.272  -6.870   8.220  0.00  0.00    +0.104 A 
ATOM     20  C   UNL     1      -9.427  -7.377   8.769  0.00  0.00    +0.130 A 
ATOM     22  H   UNL     1      -6.339  -7.755   8.232  0.00  0.00    +0.167 HD
ENDBRANCH  11  12
ENDBRANCH   1  11
TORSDOF 3
ENDMDL
MODEL 3
REMARK VINA RESULT:      -4.3     14.560     16.264
REMARK  Name = 51137121
REMARK  3 active torsions:
REMARK  status: ('A' for Active; 'I' for Inactive)
REMARK    1  A    between atoms: N_1  and  C_11
REMARK    2  A    between atoms: C_6  and  C_10
REMARK    3  A    between atoms: C_11  and  C_12
REMARK                            x       y       z     vdW  Elec       q    Type
REMARK                         _______ _______ _______ _____ _____    ______ ____
ROOT
ATOM      1  N   UNL     1      -5.264 -10.040  10.550  0.00  0.00    -0.295 NA
ATOM      6  C   UNL     1      -6.425 -10.170  12.584  0.00  0.00    +0.070 C 
ATOM      7  C   UNL     1      -6.599  -8.766  11.980  0.00  0.00    +0.028 C 
ATOM      8  C   UNL     1      -5.245 -10.780  11.814  0.00  0.00    +0.096 C 
ATOM      9  C   UNL     1      -5.501  -8.648  10.931  0.00  0.00    +0.085 C 
ENDROOT
BRANCH   6  10
ATOM      2  N   UNL     1      -7.270  -9.982  14.940  0.00  0.00    -0.342 N 
ATOM      3  N   UNL     1      -5.102 -10.418  14.723  0.00  0.00    -0.232 NA
ATOM     10  C   UNL     1      -6.228 -10.197  14.082  0.00  0.00    +0.113 A 
ATOM     13  C   UNL     1      -6.785 -10.068  16.219  0.00  0.00    +0.066 A 
ATOM     14  C   UNL     1      -5.429 -10.341  16.057  0.00  0.00    +0.089 A 
ATOM     15  C   UNL     1      -7.397  -9.935  17.466  0.00  0.00    +0.028 A 
ATOM     16  C   UNL     1      -4.621 -10.493  17.196  0.00  0.00    +0.030 A 
ATOM     17  C   UNL     1      -6.576 -10.091  18.589  0.00  0.00    +0.002 A 
ATOM     19  C   UNL     1      -5.214 -10.364  18.458  0.00  0.00    +0.002 A 
ATOM     21  H   UNL     1      -8.230  -9.792  14.680  0.00  0.00    +0.167 HD
ENDBRANCH   6  10
BRANCH   1  11
ATOM     11  C   UNL     1      -4.033 -10.205   9.792  0.00  0.00    +0.158 C 
BRANCH  11  12
ATOM      4  N   UNL     1      -2.059  -8.844  10.519  0.00  0.00    -0.347 N 
ATOM      5  N   UNL     1      -2.337 -10.781  11.570  0.00  0.00    -0.239 NA
ATOM     12  C   UNL     1      -2.814  -9.976  10.645  0.00  0.00    +0.121 A 
ATOM     18  C   UNL     1      -1.035  -8.932  11.420  0.00  0.00    +0.104 A 
ATOM     20  C   UNL     1      -1.228 -10.135  12.057  0.00  0.00    +0.130 A 
ATOM     22  H   UNL     1      -2.225  -8.079   9.879  0.00  0.00    +0.167 HD
ENDBRANCH  11  12
ENDBRANCH   1  11
TORSDOF 3
ENDMDL
MODEL 4
REMARK VINA RESULT:      -3.6      1.187      2.003
REMARK  Name = 51137121
REMARK  3 active torsions:
REMARK  status: ('A' for Active; 'I' for Inactive)
REMARK    1  A    between atoms: N_1  and  C_11
REMARK    2  A    between atoms: C_6  and  C_10
REMARK    3  A    between atoms: C_11  and  C_12
REMARK                            x       y       z     vdW  Elec       q    Type
REMARK                         _______ _______ _______ _____ _____    ______ ____
ROOT
ATOM      1  N   UNL     1       1.053   0.851  23.026  0.00  0.00    -0.295 NA
ATOM      6  C   UNL     1      -0.895   2.116  23.356  0.00  0.00    +0.070 C 
ATOM      7  C   UNL     1       0.222   2.640  24.276  0.00  0.00    +0.028 C 
ATOM      8  C   UNL     1      -0.401   0.738  22.893  0.00  0.00    +0.096 C 
ATOM      9  C   UNL     1       1.263   1.529  24.305  0.00  0.00    +0.085 C 
ENDROOT
BRANCH   6  10
ATOM      2  N   UNL     1      -2.878   3.204  24.443  0.00  0.00    -0.342 N 
ATOM      3  N   UNL     1      -3.012   1.003  24.169  0.00  0.00    -0.232 NA
ATOM     10  C   UNL     1      -2.267   2.070  23.986  0.00  0.00    +0.113 A 
ATOM     13  C   UNL     1      -4.098   2.846  24.955  0.00  0.00    +0.066 A 
ATOM     14  C   UNL     1      -4.158   1.467  24.772  0.00  0.00    +0.089 A 
ATOM     15  C   UNL     1      -5.123   3.587  25.544  0.00  0.00    +0.028 A 
ATOM     16  C   UNL     1      -5.301   0.770  25.198  0.00  0.00    +0.030 A 
ATOM     17  C   UNL     1      -6.254   2.876  25.961  0.00  0.00    +0.002 A 
ATOM     19  C   UNL     1      -6.343   1.493  25.792  0.00  0.00    +0.002 A 
ATOM     21  H   UNL     1      -2.500   4.143  24.410  0.00  0.00    +0.167 HD
ENDBRANCH   6  10
BRANCH   1  11
ATOM     11  C   UNL     1       1.718  -0.442  22.969  0.00  0.00    +0.158 C 
BRANCH  11  12
ATOM      4  N   UNL     1       3.921  -1.311  23.789  0.00  0.00    -0.347 N 
ATOM      5  N   UNL     1       3.967   0.695  22.834  0.00  0.00    -0.239 NA
ATOM     12  C   UNL     1       3.204  -0.318  23.181  0.00  0.00    +0.121 A 
ATOM     18  C   UNL     1       5.226  -0.904  23.833  0.00  0.00    +0.104 A 
ATOM     20  C   UNL     1       5.229   0.335  23.237  0.00  0.00    +0.130 A 
ATOM     22  H   UNL     1       3.557  -2.185  24.141  0.00  0.00    +0.167 HD
ENDBRANCH  11  12
ENDBRANCH   1  11
TORSDOF 3
ENDMDL
MODEL 5
REMARK VINA RESULT:      -3.3      3.030      6.344
REMARK  Name = 51137121
REMARK  3 active torsions:
REMARK  status: ('A' for Active; 'I' for Inactive)
REMARK    1  A    between atoms: N_1  and  C_11
REMARK    2  A    between atoms: C_6  and  C_10
REMARK    3  A    between atoms: C_11  and  C_12
REMARK                            x       y       z     vdW  Elec       q    Type
REMARK                         _______ _______ _______ _____ _____    ______ ____
ROOT
ATOM      1  N   UNL     1      -0.464   3.686  25.300  0.00  0.00    -0.295 NA
ATOM      6  C   UNL     1      -0.354   1.344  25.243  0.00  0.00    +0.070 C 
ATOM      7  C   UNL     1       0.416   1.924  24.045  0.00  0.00    +0.028 C 
ATOM      8  C   UNL     1      -1.208   2.511  25.758  0.00  0.00    +0.096 C 
ATOM      9  C   UNL     1      -0.060   3.367  23.930  0.00  0.00    +0.085 C 
ENDROOT
BRANCH   6  10
ATOM      2  N   UNL     1      -2.490   0.196  24.594  0.00  0.00    -0.342 N 
ATOM      3  N   UNL     1      -0.748  -1.135  24.954  0.00  0.00    -0.232 NA
ATOM     10  C   UNL     1      -1.169   0.109  24.936  0.00  0.00    +0.113 A 
ATOM     13  C   UNL     1      -2.952  -1.077  24.378  0.00  0.00    +0.066 A 
ATOM     14  C   UNL     1      -1.845  -1.890  24.609  0.00  0.00    +0.089 A 
ATOM     15  C   UNL     1      -4.204  -1.571  24.011  0.00  0.00    +0.028 A 
ATOM     16  C   UNL     1      -1.979  -3.281  24.471  0.00  0.00    +0.030 A 
ATOM     17  C   UNL     1      -4.318  -2.959  23.878  0.00  0.00    +0.002 A 
ATOM     19  C   UNL     1      -3.226  -3.800  24.103  0.00  0.00    +0.002 A 
ATOM     21  H   UNL     1      -3.033   1.046  24.514  0.00  0.00    +0.167 HD
ENDBRANCH   6  10
BRANCH   1  11
ATOM     11  C   UNL     1      -1.252   4.907  25.374  0.00  0.00    +0.158 C 
BRANCH  11  12
ATOM      4  N   UNL     1      -3.414   4.321  24.249  0.00  0.00    -0.347 N 
ATOM      5  N   UNL     1      -3.517   4.617  26.448  0.00  0.00    -0.239 NA
ATOM     12  C   UNL     1      -2.730   4.620  25.395  0.00  0.00    +0.121 A 
ATOM     18  C   UNL     1      -4.720   4.115  24.594  0.00  0.00    +0.104 A 
ATOM     20  C   UNL     1      -4.759   4.302  25.956  0.00  0.00    +0.130 A 
ATOM     22  H   UNL     1      -3.026   4.262  23.317  0.00  0.00    +0.167 HD
ENDBRANCH  11  12
ENDBRANCH   1  11
TORSDOF 3
ENDMDL
MODEL 6
REMARK VINA RESULT:      -3.0     15.733     17.064
REMARK  Name = 51137121
REMARK  3 active torsions:
REMARK  status: ('A' for Active; 'I' for Inactive)
REMARK    1  A    between atoms: N_1  and  C_11
REMARK    2  A    between atoms: C_6  and  C_10
REMARK    3  A    between atoms: C_11  and  C_12
REMARK                            x       y       z     vdW  Elec       q    Type
REMARK                         _______ _______ _______ _____ _____    ______ ____
ROOT
ATOM      1  N   UNL     1      -4.868  -9.958  10.002  0.00  0.00    -0.295 NA
ATOM      6  C   UNL     1      -6.980  -9.465  10.896  0.00  0.00    +0.070 C 
ATOM      7  C   UNL     1      -6.139  -8.179  10.823  0.00  0.00    +0.028 C 
ATOM      8  C   UNL     1      -5.964 -10.604  10.728  0.00  0.00    +0.096 C 
ATOM      9  C   UNL     1      -4.703  -8.656  10.648  0.00  0.00    +0.085 C 
ENDROOT
BRANCH   6  10
ATOM      2  N   UNL     1      -7.271  -9.470  13.388  0.00  0.00    -0.342 N 
ATOM      3  N   UNL     1      -9.109  -9.857  12.200  0.00  0.00    -0.232 NA
ATOM     10  C   UNL     1      -7.821  -9.605  12.144  0.00  0.00    +0.113 A 
ATOM     13  C   UNL     1      -8.271  -9.649  14.309  0.00  0.00    +0.066 A 
ATOM     14  C   UNL     1      -9.408  -9.888  13.542  0.00  0.00    +0.089 A 
ATOM     15  C   UNL     1      -8.278  -9.622  15.704  0.00  0.00    +0.028 A 
ATOM     16  C   UNL     1     -10.634 -10.117  14.190  0.00  0.00    +0.030 A 
ATOM     17  C   UNL     1      -9.508  -9.850  16.332  0.00  0.00    +0.002 A 
ATOM     19  C   UNL     1     -10.665 -10.094  15.590  0.00  0.00    +0.002 A 
ATOM     21  H   UNL     1      -6.300  -9.275  13.597  0.00  0.00    +0.167 HD
ENDBRANCH   6  10
BRANCH   1  11
ATOM     11  C   UNL     1      -3.645 -10.747  10.026  0.00  0.00    +0.158 C 
BRANCH  11  12
ATOM      4  N   UNL     1      -3.004 -10.781  12.448  0.00  0.00    -0.347 N 
ATOM      5  N   UNL     1      -1.671  -9.611  11.112  0.00  0.00    -0.239 NA
ATOM     12  C   UNL     1      -2.750 -10.359  11.173  0.00  0.00    +0.121 A 
ATOM     18  C   UNL     1      -2.025 -10.269  13.252  0.00  0.00    +0.104 A 
ATOM     20  C   UNL     1      -1.214  -9.551  12.405  0.00  0.00    +0.130 A 
ATOM     22  H   UNL     1      -3.774 -11.366  12.744  0.00  0.00    +0.167 HD
ENDBRANCH  11  12
ENDBRANCH   1  11
TORSDOF 3
ENDMDL
MODEL 7
REMARK VINA RESULT:      -2.9      3.836      6.247
REMARK  Name = 51137121
REMARK  3 active torsions:
REMARK  status: ('A' for Active; 'I' for Inactive)
REMARK    1  A    between atoms: N_1  and  C_11
REMARK    2  A    between atoms: C_6  and  C_10
REMARK    3  A    between atoms: C_11  and  C_12
REMARK                            x       y       z     vdW  Elec       q    Type
REMARK                         _______ _______ _______ _____ _____    ______ ____
ROOT
ATOM      1  N   UNL     1      -4.567   4.090  25.287  0.00  0.00    -0.295 NA
ATOM      6  C   UNL     1      -4.945   1.912  24.503  0.00  0.00    +0.070 C 
ATOM      7  C   UNL     1      -5.797   2.162  25.759  0.00  0.00    +0.028 C 
ATOM      8  C   UNL     1      -3.905   3.042  24.508  0.00  0.00    +0.096 C 
ATOM      9  C   UNL     1      -5.182   3.391  26.416  0.00  0.00    +0.085 C 
ENDROOT
BRANCH   6  10
ATOM      2  N   UNL     1      -2.984   0.351  24.632  0.00  0.00    -0.342 N 
ATOM      3  N   UNL     1      -4.939  -0.591  24.155  0.00  0.00    -0.232 NA
ATOM     10  C   UNL     1      -4.322   0.538  24.422  0.00  0.00    +0.113 A 
ATOM     13  C   UNL     1      -2.720  -0.987  24.492  0.00  0.00    +0.066 A 
ATOM     14  C   UNL     1      -3.957  -1.553  24.194  0.00  0.00    +0.089 A 
ATOM     15  C   UNL     1      -1.542  -1.727  24.597  0.00  0.00    +0.028 A 
ATOM     16  C   UNL     1      -4.041  -2.940  23.985  0.00  0.00    +0.030 A 
ATOM     17  C   UNL     1      -1.646  -3.107  24.386  0.00  0.00    +0.002 A 
ATOM     19  C   UNL     1      -2.872  -3.703  24.086  0.00  0.00    +0.002 A 
ATOM     21  H   UNL     1      -2.306   1.070  24.853  0.00  0.00    +0.167 HD
ENDBRANCH   6  10
BRANCH   1  11
ATOM     11  C   UNL     1      -3.644   5.130  25.716  0.00  0.00    +0.158 C 
BRANCH  11  12
ATOM      4  N   UNL     1      -1.697   3.572  25.962  0.00  0.00    -0.347 N 
ATOM      5  N   UNL     1      -1.311   5.428  24.803  0.00  0.00    -0.239 NA
ATOM     12  C   UNL     1      -2.210   4.742  25.474  0.00  0.00    +0.121 A 
ATOM     18  C   UNL     1      -0.386   3.509  25.579  0.00  0.00    +0.104 A 
ATOM     20  C   UNL     1      -0.172   4.664  24.865  0.00  0.00    +0.130 A 
ATOM     22  H   UNL     1      -2.194   2.880  26.506  0.00  0.00    +0.167 HD
ENDBRANCH  11  12
ENDBRANCH   1  11
TORSDOF 3
ENDMDL
MODEL 8
REMARK VINA RESULT:      -2.7      2.111      7.807
REMARK  Name = 51137121
REMARK  3 active torsions:
REMARK  status: ('A' for Active; 'I' for Inactive)
REMARK    1  A    between atoms: N_1  and  C_11
REMARK    2  A    between atoms: C_6  and  C_10
REMARK    3  A    between atoms: C_11  and  C_12
REMARK                            x       y       z     vdW  Elec       q    Type
REMARK                         _______ _______ _______ _____ _____    ______ ____
ROOT
ATOM      1  N   UNL     1      -2.952   3.988  25.765  0.00  0.00    -0.295 NA
ATOM      6  C   UNL     1      -0.959   2.766  25.576  0.00  0.00    +0.070 C 
ATOM      7  C   UNL     1      -0.644   4.272  25.555  0.00  0.00    +0.028 C 
ATOM      8  C   UNL     1      -2.469   2.682  25.312  0.00  0.00    +0.096 C 
ATOM      9  C   UNL     1      -1.975   4.950  25.255  0.00  0.00    +0.085 C 
ENDROOT
BRANCH   6  10
ATOM      2  N   UNL     1       1.200   2.129  24.467  0.00  0.00    -0.342 N 
ATOM      3  N   UNL     1      -0.589   0.972  23.836  0.00  0.00    -0.232 NA
ATOM     10  C   UNL     1      -0.144   1.934  24.613  0.00  0.00    +0.113 A 
ATOM     13  C   UNL     1       1.655   1.235  23.532  0.00  0.00    +0.066 A 
ATOM     14  C   UNL     1       0.519   0.524  23.154  0.00  0.00    +0.089 A 
ATOM     15  C   UNL     1       2.923   0.993  23.003  0.00  0.00    +0.028 A 
ATOM     16  C   UNL     1       0.637  -0.491  22.190  0.00  0.00    +0.030 A 
ATOM     17  C   UNL     1       3.022  -0.022  22.045  0.00  0.00    +0.002 A 
ATOM     19  C   UNL     1       1.900  -0.752  21.644  0.00  0.00    +0.002 A 
ATOM     21  H   UNL     1       1.764   2.811  24.959  0.00  0.00    +0.167 HD
ENDBRANCH   6  10
BRANCH   1  11
ATOM     11  C   UNL     1      -4.302   4.272  25.301  0.00  0.00    +0.158 C 
BRANCH  11  12
ATOM      4  N   UNL     1      -5.886   2.806  26.575  0.00  0.00    -0.347 N 
ATOM      5  N   UNL     1      -5.436   2.166  24.496  0.00  0.00    -0.239 NA
ATOM     12  C   UNL     1      -5.201   3.070  25.422  0.00  0.00    +0.121 A 
ATOM     18  C   UNL     1      -6.604   1.661  26.372  0.00  0.00    +0.104 A 
ATOM     20  C   UNL     1      -6.310   1.285  25.082  0.00  0.00    +0.130 A 
ATOM     22  H   UNL     1      -5.868   3.357  27.423  0.00  0.00    +0.167 HD
ENDBRANCH  11  12
ENDBRANCH   1  11
TORSDOF 3
ENDMDL
MODEL 9
REMARK VINA RESULT:      -2.7     14.506     16.016
REMARK  Name = 51137121
REMARK  3 active torsions:
REMARK  status: ('A' for Active; 'I' for Inactive)
REMARK    1  A    between atoms: N_1  and  C_11
REMARK    2  A    between atoms: C_6  and  C_10
REMARK    3  A    between atoms: C_11  and  C_12
REMARK                            x       y       z     vdW  Elec       q    Type
REMARK                         _______ _______ _______ _____ _____    ______ ____
ROOT
ATOM      1  N   UNL     1      -3.404 -10.305  11.232  0.00  0.00    -0.295 NA
ATOM      6  C   UNL     1      -5.633 -10.514  11.932  0.00  0.00    +0.070 C 
ATOM      7  C   UNL     1      -5.521  -9.376  10.903  0.00  0.00    +0.028 C 
ATOM      8  C   UNL     1      -4.188 -10.781  12.374  0.00  0.00    +0.096 C 
ATOM      9  C   UNL     1      -4.035  -9.045  10.840  0.00  0.00    +0.085 C 
ENDROOT
BRANCH   6  10
ATOM      2  N   UNL     1      -6.094 -10.157  14.373  0.00  0.00    -0.342 N 
ATOM      3  N   UNL     1      -7.859 -10.036  13.029  0.00  0.00    -0.232 NA
ATOM     10  C   UNL     1      -6.562 -10.233  13.091  0.00  0.00    +0.113 A 
ATOM     13  C   UNL     1      -7.160  -9.895  15.193  0.00  0.00    +0.066 A 
ATOM     14  C   UNL     1      -8.251  -9.824  14.330  0.00  0.00    +0.089 A 
ATOM     15  C   UNL     1      -7.262  -9.719  16.574  0.00  0.00    +0.028 A 
ATOM     16  C   UNL     1      -9.526  -9.562  14.859  0.00  0.00    +0.030 A 
ATOM     17  C   UNL     1      -8.539  -9.458  17.083  0.00  0.00    +0.002 A 
ATOM     19  C   UNL     1      -9.652  -9.381  16.242  0.00  0.00    +0.002 A 
ATOM     21  H   UNL     1      -5.133 -10.274  14.668  0.00  0.00    +0.167 HD
ENDBRANCH   6  10
BRANCH   1  11
ATOM     11  C   UNL     1      -1.995 -10.141  11.555  0.00  0.00    +0.158 C 
BRANCH  11  12
ATOM      4  N   UNL     1      -0.948  -9.039  13.547  0.00  0.00    -0.347 N 
ATOM      5  N   UNL     1      -2.302 -10.745  13.985  0.00  0.00    -0.239 NA
ATOM     12  C   UNL     1      -1.771 -10.004  13.037  0.00  0.00    +0.121 A 
ATOM     18  C   UNL     1      -0.953  -9.174  14.907  0.00  0.00    +0.104 A 
ATOM     20  C   UNL     1      -1.796 -10.232  15.154  0.00  0.00    +0.130 A 
ATOM     22  H   UNL     1      -0.430  -8.351  13.018  0.00  0.00    +0.167 HD
ENDBRANCH  11  12
ENDBRANCH   1  11
TORSDOF 3
ENDMDL
MODEL 10
REMARK VINA RESULT:      -2.6      2.142      6.925
REMARK  Name = 51137121
REMARK  3 active torsions:
REMARK  status: ('A' for Active; 'I' for Inactive)
REMARK    1  A    between atoms: N_1  and  C_11
REMARK    2  A    between atoms: C_6  and  C_10
REMARK    3  A    between atoms: C_11  and  C_12
REMARK                            x       y       z     vdW  Elec       q    Type
REMARK                         _______ _______ _______ _____ _____    ______ ____
ROOT
ATOM      1  N   UNL     1      -3.750   1.670  25.227  0.00  0.00    -0.295 NA
ATOM      6  C   UNL     1      -1.490   2.191  24.876  0.00  0.00    +0.070 C 
ATOM      7  C   UNL     1      -2.371   3.118  24.021  0.00  0.00    +0.028 C 
ATOM      8  C   UNL     1      -2.425   1.049  25.300  0.00  0.00    +0.096 C 
ATOM      9  C   UNL     1      -3.736   2.443  23.985  0.00  0.00    +0.085 C 
ENDROOT
BRANCH   6  10
ATOM      2  N   UNL     1      -0.264   0.644  23.326  0.00  0.00    -0.342 N 
ATOM      3  N   UNL     1       0.977   2.191  24.329  0.00  0.00    -0.232 NA
ATOM     10  C   UNL     1      -0.234   1.701  24.193  0.00  0.00    +0.113 A 
ATOM     13  C   UNL     1       1.014   0.438  22.873  0.00  0.00    +0.066 A 
ATOM     14  C   UNL     1       1.770   1.416  23.514  0.00  0.00    +0.089 A 
ATOM     15  C   UNL     1       1.556  -0.492  21.985  0.00  0.00    +0.028 A 
ATOM     16  C   UNL     1       3.151   1.484  23.265  0.00  0.00    +0.030 A 
ATOM     17  C   UNL     1       2.933  -0.408  21.750  0.00  0.00    +0.002 A 
ATOM     19  C   UNL     1       3.717   0.562  22.378  0.00  0.00    +0.002 A 
ATOM     21  H   UNL     1      -1.081   0.108  23.063  0.00  0.00    +0.167 HD
ENDBRANCH   6  10
BRANCH   1  11
ATOM     11  C   UNL     1      -4.824   0.689  25.256  0.00  0.00    +0.158 C 
BRANCH  11  12
ATOM      4  N   UNL     1      -3.673  -1.454  25.857  0.00  0.00    -0.347 N 
ATOM      5  N   UNL     1      -4.452  -1.325  23.781  0.00  0.00    -0.239 NA
ATOM     12  C   UNL     1      -4.329  -0.695  24.929  0.00  0.00    +0.121 A 
ATOM     18  C   UNL     1      -3.355  -2.643  25.263  0.00  0.00    +0.104 A 
ATOM     20  C   UNL     1      -3.847  -2.540  23.983  0.00  0.00    +0.130 A 
ATOM     22  H   UNL     1      -3.460  -1.187  26.809  0.00  0.00    +0.167 HD
ENDBRANCH  11  12
ENDBRANCH   1  11
TORSDOF 3
ENDMDL
