MODEL 1
REMARK VINA RESULT:       3.4      0.000      0.000
REMARK  Name = 40777064
REMARK  7 active torsions:
REMARK  status: ('A' for Active; 'I' for Inactive)
REMARK    1  A    between atoms: N_7  and  C_17
REMARK    2  A    between atoms: C_11  and  C_18
REMARK    3  A    between atoms: C_12  and  C_17
REMARK    4  A    between atoms: C_20  and  C_23
REMARK    5  A    between atoms: C_21  and  C_25
REMARK    6  A    between atoms: C_22  and  C_24
REMARK    7  A    between atoms: C_33  and  C_34
REMARK                            x       y       z     vdW  Elec       q    Type
REMARK                         _______ _______ _______ _____ _____    ______ ____
ROOT
ATOM      6  N   UNL     1      -3.149  -2.276  23.917  0.00  0.00    -0.297 NA
ATOM     10  C   UNL     1      -2.966  -1.132  26.249  0.00  0.00    +0.002 C 
ATOM     11  C   UNL     1      -4.091  -0.470  25.407  0.00  0.00    +0.055 C 
ATOM     12  C   UNL     1      -1.734  -1.913  24.195  0.00  0.00    +0.074 C 
ATOM     13  C   UNL     1      -1.634  -1.053  25.473  0.00  0.00    +0.024 C 
ATOM     14  C   UNL     1      -3.327  -2.627  26.380  0.00  0.00    +0.019 C 
ATOM     15  C   UNL     1      -4.005  -1.064  23.972  0.00  0.00    +0.094 C 
ATOM     16  C   UNL     1      -3.597  -3.207  24.980  0.00  0.00    +0.085 C 
ENDROOT
BRANCH  11  18
ATOM      8  N   UNL     1      -5.404   1.582  25.620  0.00  0.00    -0.237 NA
ATOM      9  N   UNL     1      -4.414   3.768  25.392  0.00  0.00    -0.232 NA
ATOM     18  C   UNL     1      -4.185   1.048  25.399  0.00  0.00    +0.050 A 
ATOM     19  C   UNL     1      -3.049   1.798  25.170  0.00  0.00    +0.052 A 
ATOM     20  C   UNL     1      -3.225   3.166  25.178  0.00  0.00    +0.081 A 
ATOM     21  C   UNL     1      -5.445   2.929  25.603  0.00  0.00    +0.127 A 
ATOM     25  C   UNL     1      -6.776   3.557  25.845  0.00  0.00    +0.088 C 
BRANCH  20  23
ATOM      1  S   UNL     1      -0.649   3.437  24.357  0.00  0.00    -0.095 S 
ATOM     23  C   UNL     1      -2.126   4.066  24.951  0.00  0.00    +0.038 A 
ATOM     26  C   UNL     1      -2.067   5.429  25.144  0.00  0.00    +0.017 A 
ATOM     29  C   UNL     1      -0.792   5.963  24.801  0.00  0.00    +0.008 A 
ATOM     30  C   UNL     1       0.075   4.989  24.358  0.00  0.00    +0.046 A 
ENDBRANCH  20  23
ENDBRANCH  11  18
BRANCH  12  17
ATOM     17  C   UNL     1      -1.060  -1.238  22.999  0.00  0.00    +0.123 C 
BRANCH  17   7
ATOM      5  O   UNL     1       0.891  -0.247  21.140  0.00  0.00    -0.270 OA
ATOM      7  N   UNL     1       0.329  -1.013  23.257  0.00  0.00    -0.310 N 
ATOM     22  C   UNL     1       1.210  -0.527  22.293  0.00  0.00    +0.244 C 
ATOM     35  H   UNL     1       0.672  -1.284  24.172  0.00  0.00    +0.149 HD
BRANCH  22  24
ATOM     24  C   UNL     1       2.628  -0.373  22.711  0.00  0.00    +0.037 A 
ATOM     27  C   UNL     1       3.323   0.796  22.405  0.00  0.00    +0.013 A 
ATOM     28  C   UNL     1       3.262  -1.399  23.412  0.00  0.00    +0.013 A 
ATOM     31  C   UNL     1       4.654   0.939  22.796  0.00  0.00    +0.013 A 
ATOM     32  C   UNL     1       4.593  -1.256  23.805  0.00  0.00    +0.013 A 
ATOM     33  C   UNL     1       5.289  -0.088  23.497  0.00  0.00    +0.055 A 
BRANCH  33  34
ATOM      2  F   UNL     1       7.039  -0.738  24.969  0.00  0.00    -0.166 F 
ATOM      3  F   UNL     1       7.609  -0.235  22.931  0.00  0.00    -0.166 F 
ATOM      4  F   UNL     1       7.031   1.335  24.312  0.00  0.00    -0.166 F 
ATOM     34  C   UNL     1       6.712   0.067  23.916  0.00  0.00    +0.417 C 
ENDBRANCH  33  34
ENDBRANCH  22  24
ENDBRANCH  17   7
ENDBRANCH  12  17
TORSDOF 6
ENDMDL
MODEL 2
REMARK VINA RESULT:       5.5      3.654      7.287
REMARK  Name = 40777064
REMARK  7 active torsions:
REMARK  status: ('A' for Active; 'I' for Inactive)
REMARK    1  A    between atoms: N_7  and  C_17
REMARK    2  A    between atoms: C_11  and  C_18
REMARK    3  A    between atoms: C_12  and  C_17
REMARK    4  A    between atoms: C_20  and  C_23
REMARK    5  A    between atoms: C_21  and  C_25
REMARK    6  A    between atoms: C_22  and  C_24
REMARK    7  A    between atoms: C_33  and  C_34
REMARK                            x       y       z     vdW  Elec       q    Type
REMARK                         _______ _______ _______ _____ _____    ______ ____
ROOT
ATOM      6  N   UNL     1      -4.137   4.883  24.215  0.00  0.00    -0.297 NA
ATOM     10  C   UNL     1      -1.763   5.122  25.258  0.00  0.00    +0.002 C 
ATOM     11  C   UNL     1      -1.750   4.068  24.117  0.00  0.00    +0.055 C 
ATOM     12  C   UNL     1      -4.220   4.783  25.697  0.00  0.00    +0.074 C 
ATOM     13  C   UNL     1      -2.809   4.715  26.318  0.00  0.00    +0.024 C 
ATOM     14  C   UNL     1      -2.243   6.450  24.634  0.00  0.00    +0.019 C 
ATOM     15  C   UNL     1      -3.227   3.836  23.686  0.00  0.00    +0.094 C 
ATOM     16  C   UNL     1      -3.562   6.207  23.881  0.00  0.00    +0.085 C 
ENDROOT
BRANCH  11  18
ATOM      8  N   UNL     1      -1.505   1.941  25.298  0.00  0.00    -0.237 NA
ATOM      9  N   UNL     1       0.290   0.406  24.820  0.00  0.00    -0.232 NA
ATOM     18  C   UNL     1      -1.006   2.762  24.352  0.00  0.00    +0.050 A 
ATOM     19  C   UNL     1       0.121   2.479  23.608  0.00  0.00    +0.052 A 
ATOM     20  C   UNL     1       0.734   1.275  23.888  0.00  0.00    +0.081 A 
ATOM     21  C   UNL     1      -0.818   0.797  25.478  0.00  0.00    +0.127 A 
ATOM     25  C   UNL     1      -1.341  -0.138  26.516  0.00  0.00    +0.088 C 
BRANCH  20  23
ATOM      1  S   UNL     1       1.772  -0.289  21.923  0.00  0.00    -0.095 S 
ATOM     23  C   UNL     1       1.919   0.855  23.188  0.00  0.00    +0.038 A 
ATOM     26  C   UNL     1       3.225   1.246  23.382  0.00  0.00    +0.017 A 
ATOM     29  C   UNL     1       4.117   0.597  22.480  0.00  0.00    +0.008 A 
ATOM     30  C   UNL     1       3.459  -0.264  21.631  0.00  0.00    +0.046 A 
ENDBRANCH  20  23
ENDBRANCH  11  18
BRANCH  12  17
ATOM     17  C   UNL     1      -5.101   3.618  26.153  0.00  0.00    +0.123 C 
BRANCH  17   7
ATOM      5  O   UNL     1      -6.341   1.493  24.672  0.00  0.00    -0.270 OA
ATOM      7  N   UNL     1      -4.511   2.363  25.801  0.00  0.00    -0.310 N 
ATOM     22  C   UNL     1      -5.186   1.384  25.077  0.00  0.00    +0.244 C 
ATOM     35  H   UNL     1      -3.579   2.182  26.159  0.00  0.00    +0.149 HD
BRANCH  22  24
ATOM     24  C   UNL     1      -4.442   0.125  24.815  0.00  0.00    +0.037 A 
ATOM     27  C   UNL     1      -4.303  -0.828  25.824  0.00  0.00    +0.013 A 
ATOM     28  C   UNL     1      -3.884  -0.104  23.557  0.00  0.00    +0.013 A 
ATOM     31  C   UNL     1      -3.603  -2.008  25.578  0.00  0.00    +0.013 A 
ATOM     32  C   UNL     1      -3.184  -1.286  23.310  0.00  0.00    +0.013 A 
ATOM     33  C   UNL     1      -3.043  -2.237  24.320  0.00  0.00    +0.055 A 
BRANCH  33  34
ATOM      2  F   UNL     1      -1.596  -3.933  25.145  0.00  0.00    -0.166 F 
ATOM      3  F   UNL     1      -3.098  -4.547  23.697  0.00  0.00    -0.166 F 
ATOM      4  F   UNL     1      -1.379  -3.394  23.050  0.00  0.00    -0.166 F 
ATOM     34  C   UNL     1      -2.296  -3.501  24.057  0.00  0.00    +0.417 C 
ENDBRANCH  33  34
ENDBRANCH  22  24
ENDBRANCH  17   7
ENDBRANCH  12  17
TORSDOF 6
ENDMDL
MODEL 3
REMARK VINA RESULT:       6.1      3.424      5.937
REMARK  Name = 40777064
REMARK  7 active torsions:
REMARK  status: ('A' for Active; 'I' for Inactive)
REMARK    1  A    between atoms: N_7  and  C_17
REMARK    2  A    between atoms: C_11  and  C_18
REMARK    3  A    between atoms: C_12  and  C_17
REMARK    4  A    between atoms: C_20  and  C_23
REMARK    5  A    between atoms: C_21  and  C_25
REMARK    6  A    between atoms: C_22  and  C_24
REMARK    7  A    between atoms: C_33  and  C_34
REMARK                            x       y       z     vdW  Elec       q    Type
REMARK                         _______ _______ _______ _____ _____    ______ ____
ROOT
ATOM      6  N   UNL     1      -4.463   3.489  25.683  0.00  0.00    -0.297 NA
ATOM     10  C   UNL     1      -5.177   1.635  23.999  0.00  0.00    +0.002 C 
ATOM     11  C   UNL     1      -4.295   1.033  25.128  0.00  0.00    +0.055 C 
ATOM     12  C   UNL     1      -4.181   3.931  24.292  0.00  0.00    +0.074 C 
ATOM     13  C   UNL     1      -4.403   2.771  23.297  0.00  0.00    +0.024 C 
ATOM     14  C   UNL     1      -6.401   2.278  24.685  0.00  0.00    +0.019 C 
ATOM     15  C   UNL     1      -3.746   2.221  25.970  0.00  0.00    +0.094 C 
ATOM     16  C   UNL     1      -5.919   3.233  25.792  0.00  0.00    +0.085 C 
ENDROOT
BRANCH  11  18
ATOM      8  N   UNL     1      -3.501  -1.262  24.842  0.00  0.00    -0.237 NA
ATOM      9  N   UNL     1      -1.278  -1.763  24.056  0.00  0.00    -0.232 NA
ATOM     18  C   UNL     1      -3.202   0.049  24.739  0.00  0.00    +0.050 A 
ATOM     19  C   UNL     1      -1.980   0.525  24.308  0.00  0.00    +0.052 A 
ATOM     20  C   UNL     1      -1.048  -0.436  23.977  0.00  0.00    +0.081 A 
ATOM     21  C   UNL     1      -2.508  -2.101  24.490  0.00  0.00    +0.127 A 
ATOM     25  C   UNL     1      -2.801  -3.560  24.590  0.00  0.00    +0.088 C 
BRANCH  20  23
ATOM      1  S   UNL     1       0.804  -0.675  22.003  0.00  0.00    -0.095 S 
ATOM     23  C   UNL     1       0.267  -0.079  23.515  0.00  0.00    +0.038 A 
ATOM     26  C   UNL     1       1.217   0.709  24.127  0.00  0.00    +0.017 A 
ATOM     29  C   UNL     1       2.401   0.824  23.343  0.00  0.00    +0.008 A 
ATOM     30  C   UNL     1       2.312   0.120  22.163  0.00  0.00    +0.046 A 
ENDBRANCH  20  23
ENDBRANCH  11  18
BRANCH  12  17
ATOM     17  C   UNL     1      -2.787   4.547  24.148  0.00  0.00    +0.123 C 
BRANCH  17   7
ATOM      5  O   UNL     1      -0.220   3.274  23.961  0.00  0.00    -0.270 OA
ATOM      7  N   UNL     1      -1.944   4.160  25.236  0.00  0.00    -0.310 N 
ATOM     22  C   UNL     1      -0.707   3.545  25.056  0.00  0.00    +0.244 C 
ATOM     35  H   UNL     1      -2.314   4.298  26.171  0.00  0.00    +0.149 HD
BRANCH  22  24
ATOM     24  C   UNL     1       0.037   3.182  26.290  0.00  0.00    +0.037 A 
ATOM     27  C   UNL     1       1.338   3.645  26.483  0.00  0.00    +0.013 A 
ATOM     28  C   UNL     1      -0.568   2.378  27.256  0.00  0.00    +0.013 A 
ATOM     31  C   UNL     1       2.036   3.303  27.641  0.00  0.00    +0.013 A 
ATOM     32  C   UNL     1       0.130   2.036  28.415  0.00  0.00    +0.013 A 
ATOM     33  C   UNL     1       1.431   2.498  28.607  0.00  0.00    +0.055 A 
BRANCH  33  34
ATOM      2  F   UNL     1       3.186   3.007  30.127  0.00  0.00    -0.166 F 
ATOM      3  F   UNL     1       1.397   2.101  30.966  0.00  0.00    -0.166 F 
ATOM      4  F   UNL     1       2.765   0.901  29.787  0.00  0.00    -0.166 F 
ATOM     34  C   UNL     1       2.177   2.133  29.846  0.00  0.00    +0.417 C 
ENDBRANCH  33  34
ENDBRANCH  22  24
ENDBRANCH  17   7
ENDBRANCH  12  17
TORSDOF 6
ENDMDL
MODEL 4
REMARK VINA RESULT:       6.2      4.122      5.405
REMARK  Name = 40777064
REMARK  7 active torsions:
REMARK  status: ('A' for Active; 'I' for Inactive)
REMARK    1  A    between atoms: N_7  and  C_17
REMARK    2  A    between atoms: C_11  and  C_18
REMARK    3  A    between atoms: C_12  and  C_17
REMARK    4  A    between atoms: C_20  and  C_23
REMARK    5  A    between atoms: C_21  and  C_25
REMARK    6  A    between atoms: C_22  and  C_24
REMARK    7  A    between atoms: C_33  and  C_34
REMARK                            x       y       z     vdW  Elec       q    Type
REMARK                         _______ _______ _______ _____ _____    ______ ____
ROOT
ATOM      6  N   UNL     1      -1.619  -3.099  24.204  0.00  0.00    -0.297 NA
ATOM     10  C   UNL     1      -3.951  -2.089  24.774  0.00  0.00    +0.002 C 
ATOM     11  C   UNL     1      -3.378  -1.438  23.485  0.00  0.00    +0.055 C 
ATOM     12  C   UNL     1      -1.657  -2.680  25.630  0.00  0.00    +0.074 C 
ATOM     13  C   UNL     1      -2.951  -1.894  25.933  0.00  0.00    +0.024 C 
ATOM     14  C   UNL     1      -4.042  -3.606  24.504  0.00  0.00    +0.019 C 
ATOM     15  C   UNL     1      -1.914  -1.938  23.326  0.00  0.00    +0.094 C 
ATOM     16  C   UNL     1      -2.680  -4.114  24.000  0.00  0.00    +0.085 C 
ENDROOT
BRANCH  11  18
ATOM      8  N   UNL     1      -2.823   0.628  22.299  0.00  0.00    -0.237 NA
ATOM      9  N   UNL     1      -3.655   2.777  23.006  0.00  0.00    -0.232 NA
ATOM     18  C   UNL     1      -3.491   0.072  23.331  0.00  0.00    +0.050 A 
ATOM     19  C   UNL     1      -4.252   0.791  24.229  0.00  0.00    +0.052 A 
ATOM     20  C   UNL     1      -4.298   2.153  24.015  0.00  0.00    +0.081 A 
ATOM     21  C   UNL     1      -2.947   1.965  22.197  0.00  0.00    +0.127 A 
ATOM     25  C   UNL     1      -2.223   2.617  21.068  0.00  0.00    +0.088 C 
BRANCH  20  23
ATOM      1  S   UNL     1      -6.189   2.339  25.958  0.00  0.00    -0.095 S 
ATOM     23  C   UNL     1      -5.052   3.024  24.877  0.00  0.00    +0.038 A 
ATOM     26  C   UNL     1      -5.004   4.397  24.981  0.00  0.00    +0.017 A 
ATOM     29  C   UNL     1      -5.913   4.892  25.959  0.00  0.00    +0.008 A 
ATOM     30  C   UNL     1      -6.621   3.879  26.567  0.00  0.00    +0.046 A 
ENDBRANCH  20  23
ENDBRANCH  11  18
BRANCH  12  17
ATOM     17  C   UNL     1      -0.406  -1.899  26.042  0.00  0.00    +0.123 C 
BRANCH  17   7
ATOM      5  O   UNL     1       0.412  -0.240  23.845  0.00  0.00    -0.270 OA
ATOM      7  N   UNL     1      -0.618  -0.491  25.909  0.00  0.00    -0.310 N 
ATOM     22  C   UNL     1      -0.186   0.241  24.805  0.00  0.00    +0.244 C 
ATOM     35  H   UNL     1      -1.051  -0.019  26.697  0.00  0.00    +0.149 HD
BRANCH  22  24
ATOM     24  C   UNL     1      -0.461   1.701  24.831  0.00  0.00    +0.037 A 
ATOM     27  C   UNL     1      -1.283   2.239  25.820  0.00  0.00    +0.013 A 
ATOM     28  C   UNL     1       0.106   2.533  23.866  0.00  0.00    +0.013 A 
ATOM     31  C   UNL     1      -1.541   3.609  25.844  0.00  0.00    +0.013 A 
ATOM     32  C   UNL     1      -0.152   3.904  23.889  0.00  0.00    +0.013 A 
ATOM     33  C   UNL     1      -0.975   4.442  24.877  0.00  0.00    +0.055 A 
BRANCH  33  34
ATOM      2  F   UNL     1      -0.121   6.651  25.086  0.00  0.00    -0.166 F 
ATOM      3  F   UNL     1      -1.817   6.379  23.752  0.00  0.00    -0.166 F 
ATOM      4  F   UNL     1      -2.104   6.286  25.900  0.00  0.00    -0.166 F 
ATOM     34  C   UNL     1      -1.251   5.908  24.903  0.00  0.00    +0.417 C 
ENDBRANCH  33  34
ENDBRANCH  22  24
ENDBRANCH  17   7
ENDBRANCH  12  17
TORSDOF 6
ENDMDL
MODEL 5
REMARK VINA RESULT:       6.2      3.685      6.746
REMARK  Name = 40777064
REMARK  7 active torsions:
REMARK  status: ('A' for Active; 'I' for Inactive)
REMARK    1  A    between atoms: N_7  and  C_17
REMARK    2  A    between atoms: C_11  and  C_18
REMARK    3  A    between atoms: C_12  and  C_17
REMARK    4  A    between atoms: C_20  and  C_23
REMARK    5  A    between atoms: C_21  and  C_25
REMARK    6  A    between atoms: C_22  and  C_24
REMARK    7  A    between atoms: C_33  and  C_34
REMARK                            x       y       z     vdW  Elec       q    Type
REMARK                         _______ _______ _______ _____ _____    ______ ____
ROOT
ATOM      6  N   UNL     1      -3.735  -1.966  25.930  0.00  0.00    -0.297 NA
ATOM     10  C   UNL     1      -1.846  -2.929  24.419  0.00  0.00    +0.002 C 
ATOM     11  C   UNL     1      -1.359  -1.645  25.145  0.00  0.00    +0.055 C 
ATOM     12  C   UNL     1      -4.262  -2.230  24.564  0.00  0.00    +0.074 C 
ATOM     13  C   UNL     1      -3.114  -2.604  23.602  0.00  0.00    +0.024 C 
ATOM     14  C   UNL     1      -2.259  -3.933  25.517  0.00  0.00    +0.019 C 
ATOM     15  C   UNL     1      -2.592  -1.022  25.860  0.00  0.00    +0.094 C 
ATOM     16  C   UNL     1      -3.243  -3.250  26.483  0.00  0.00    +0.085 C 
ENDROOT
BRANCH  11  18
ATOM      8  N   UNL     1      -1.292   0.376  23.769  0.00  0.00    -0.237 NA
ATOM      9  N   UNL     1       0.768   1.257  22.881  0.00  0.00    -0.232 NA
ATOM     18  C   UNL     1      -0.578  -0.616  24.340  0.00  0.00    +0.050 A 
ATOM     19  C   UNL     1       0.792  -0.738  24.228  0.00  0.00    +0.052 A 
ATOM     20  C   UNL     1       1.418   0.237  23.480  0.00  0.00    +0.081 A 
ATOM     21  C   UNL     1      -0.566   1.265  23.065  0.00  0.00    +0.127 A 
ATOM     25  C   UNL     1      -1.321   2.378  22.420  0.00  0.00    +0.088 C 
BRANCH  20  23
ATOM      1  S   UNL     1       3.740  -1.147  23.755  0.00  0.00    -0.095 S 
ATOM     23  C   UNL     1       2.843   0.231  23.280  0.00  0.00    +0.038 A 
ATOM     26  C   UNL     1       3.647   1.209  22.738  0.00  0.00    +0.017 A 
ATOM     29  C   UNL     1       5.017   0.822  22.712  0.00  0.00    +0.008 A 
ATOM     30  C   UNL     1       5.209  -0.437  23.235  0.00  0.00    +0.046 A 
ENDBRANCH  20  23
ENDBRANCH  11  18
BRANCH  12  17
ATOM     17  C   UNL     1      -5.100  -1.068  24.028  0.00  0.00    +0.123 C 
BRANCH  17   7
ATOM      5  O   UNL     1      -5.814   1.212  25.622  0.00  0.00    -0.270 OA
ATOM      7  N   UNL     1      -4.383   0.166  24.125  0.00  0.00    -0.310 N 
ATOM     22  C   UNL     1      -4.802   1.226  24.927  0.00  0.00    +0.244 C 
ATOM     35  H   UNL     1      -3.569   0.268  23.527  0.00  0.00    +0.149 HD
BRANCH  22  24
ATOM     24  C   UNL     1      -3.959   2.449  24.897  0.00  0.00    +0.037 A 
ATOM     27  C   UNL     1      -4.271   3.492  24.026  0.00  0.00    +0.013 A 
ATOM     28  C   UNL     1      -2.855   2.554  25.744  0.00  0.00    +0.013 A 
ATOM     31  C   UNL     1      -3.480   4.639  23.998  0.00  0.00    +0.013 A 
ATOM     32  C   UNL     1      -2.063   3.703  25.716  0.00  0.00    +0.013 A 
ATOM     33  C   UNL     1      -2.374   4.744  24.844  0.00  0.00    +0.055 A 
BRANCH  33  34
ATOM      2  F   UNL     1      -1.640   6.658  23.639  0.00  0.00    -0.166 F 
ATOM      3  F   UNL     1      -1.835   6.873  25.795  0.00  0.00    -0.166 F 
ATOM      4  F   UNL     1      -0.194   5.721  24.966  0.00  0.00    -0.166 F 
ATOM     34  C   UNL     1      -1.528   5.972  24.814  0.00  0.00    +0.417 C 
ENDBRANCH  33  34
ENDBRANCH  22  24
ENDBRANCH  17   7
ENDBRANCH  12  17
TORSDOF 6
ENDMDL
MODEL 6
REMARK VINA RESULT:       6.5      4.091      7.232
REMARK  Name = 40777064
REMARK  7 active torsions:
REMARK  status: ('A' for Active; 'I' for Inactive)
REMARK    1  A    between atoms: N_7  and  C_17
REMARK    2  A    between atoms: C_11  and  C_18
REMARK    3  A    between atoms: C_12  and  C_17
REMARK    4  A    between atoms: C_20  and  C_23
REMARK    5  A    between atoms: C_21  and  C_25
REMARK    6  A    between atoms: C_22  and  C_24
REMARK    7  A    between atoms: C_33  and  C_34
REMARK                            x       y       z     vdW  Elec       q    Type
REMARK                         _______ _______ _______ _____ _____    ______ ____
ROOT
ATOM      6  N   UNL     1      -4.351   4.733  23.869  0.00  0.00    -0.297 NA
ATOM     10  C   UNL     1      -2.157   5.649  24.932  0.00  0.00    +0.002 C 
ATOM     11  C   UNL     1      -1.861   4.381  24.085  0.00  0.00    +0.055 C 
ATOM     12  C   UNL     1      -4.550   4.966  25.324  0.00  0.00    +0.074 C 
ATOM     13  C   UNL     1      -3.210   5.310  26.008  0.00  0.00    +0.024 C 
ATOM     14  C   UNL     1      -2.798   6.681  23.980  0.00  0.00    +0.019 C 
ATOM     15  C   UNL     1      -3.231   3.782  23.655  0.00  0.00    +0.094 C 
ATOM     16  C   UNL     1      -3.983   6.027  23.247  0.00  0.00    +0.085 C 
ENDROOT
BRANCH  11  18
ATOM      8  N   UNL     1      -0.605   2.294  23.865  0.00  0.00    -0.237 NA
ATOM      9  N   UNL     1       0.738   1.408  25.660  0.00  0.00    -0.232 NA
ATOM     18  C   UNL     1      -0.929   3.328  24.668  0.00  0.00    +0.050 A 
ATOM     19  C   UNL     1      -0.467   3.471  25.960  0.00  0.00    +0.052 A 
ATOM     20  C   UNL     1       0.372   2.471  26.407  0.00  0.00    +0.081 A 
ATOM     21  C   UNL     1       0.220   1.383  24.417  0.00  0.00    +0.127 A 
ATOM     25  C   UNL     1       0.602   0.225  23.559  0.00  0.00    +0.088 C 
BRANCH  20  23
ATOM      1  S   UNL     1       2.569   2.922  27.941  0.00  0.00    -0.095 S 
ATOM     23  C   UNL     1       0.925   2.492  27.735  0.00  0.00    +0.038 A 
ATOM     26  C   UNL     1       0.312   2.207  28.935  0.00  0.00    +0.017 A 
ATOM     29  C   UNL     1       1.204   2.343  30.037  0.00  0.00    +0.008 A 
ATOM     30  C   UNL     1       2.465   2.727  29.638  0.00  0.00    +0.046 A 
ENDBRANCH  20  23
ENDBRANCH  11  18
BRANCH  12  17
ATOM     17  C   UNL     1      -5.257   3.795  26.010  0.00  0.00    +0.123 C 
BRANCH  17   7
ATOM      5  O   UNL     1      -6.380   1.531  24.646  0.00  0.00    -0.270 OA
ATOM      7  N   UNL     1      -4.597   2.559  25.718  0.00  0.00    -0.310 N 
ATOM     22  C   UNL     1      -5.219   1.508  25.049  0.00  0.00    +0.244 C 
ATOM     35  H   UNL     1      -3.656   2.449  26.079  0.00  0.00    +0.149 HD
BRANCH  22  24
ATOM     24  C   UNL     1      -4.406   0.281  24.846  0.00  0.00    +0.037 A 
ATOM     27  C   UNL     1      -4.903  -0.766  24.070  0.00  0.00    +0.013 A 
ATOM     28  C   UNL     1      -3.144   0.178  25.431  0.00  0.00    +0.013 A 
ATOM     31  C   UNL     1      -4.139  -1.918  23.882  0.00  0.00    +0.013 A 
ATOM     32  C   UNL     1      -2.380  -0.974  25.242  0.00  0.00    +0.013 A 
ATOM     33  C   UNL     1      -2.877  -2.021  24.468  0.00  0.00    +0.055 A 
BRANCH  33  34
ATOM      2  F   UNL     1      -2.816  -4.328  23.896  0.00  0.00    -0.166 F 
ATOM      3  F   UNL     1      -1.108  -3.124  23.294  0.00  0.00    -0.166 F 
ATOM      4  F   UNL     1      -1.380  -3.648  25.381  0.00  0.00    -0.166 F 
ATOM     34  C   UNL     1      -2.061  -3.253  24.265  0.00  0.00    +0.417 C 
ENDBRANCH  33  34
ENDBRANCH  22  24
ENDBRANCH  17   7
ENDBRANCH  12  17
TORSDOF 6
ENDMDL
MODEL 7
REMARK VINA RESULT:       6.7      3.189      5.281
REMARK  Name = 40777064
REMARK  7 active torsions:
REMARK  status: ('A' for Active; 'I' for Inactive)
REMARK    1  A    between atoms: N_7  and  C_17
REMARK    2  A    between atoms: C_11  and  C_18
REMARK    3  A    between atoms: C_12  and  C_17
REMARK    4  A    between atoms: C_20  and  C_23
REMARK    5  A    between atoms: C_21  and  C_25
REMARK    6  A    between atoms: C_22  and  C_24
REMARK    7  A    between atoms: C_33  and  C_34
REMARK                            x       y       z     vdW  Elec       q    Type
REMARK                         _______ _______ _______ _____ _____    ______ ____
ROOT
ATOM      6  N   UNL     1      -5.537   2.745  24.401  0.00  0.00    -0.297 NA
ATOM     10  C   UNL     1      -4.369   3.807  26.472  0.00  0.00    +0.002 C 
ATOM     11  C   UNL     1      -3.454   3.910  25.221  0.00  0.00    +0.055 C 
ATOM     12  C   UNL     1      -5.591   1.806  25.552  0.00  0.00    +0.074 C 
ATOM     13  C   UNL     1      -4.729   2.328  26.722  0.00  0.00    +0.024 C 
ATOM     14  C   UNL     1      -5.683   4.541  26.125  0.00  0.00    +0.019 C 
ATOM     15  C   UNL     1      -4.125   3.083  24.088  0.00  0.00    +0.094 C 
ATOM     16  C   UNL     1      -6.234   3.992  24.798  0.00  0.00    +0.085 C 
ENDROOT
BRANCH  11  18
ATOM      8  N   UNL     1      -1.243   3.523  24.251  0.00  0.00    -0.237 NA
ATOM      9  N   UNL     1       0.676   2.981  25.606  0.00  0.00    -0.232 NA
ATOM     18  C   UNL     1      -1.978   3.577  25.381  0.00  0.00    +0.050 A 
ATOM     19  C   UNL     1      -1.465   3.348  26.642  0.00  0.00    +0.052 A 
ATOM     20  C   UNL     1      -0.119   3.052  26.694  0.00  0.00    +0.081 A 
ATOM     21  C   UNL     1       0.058   3.224  24.434  0.00  0.00    +0.127 A 
ATOM     25  C   UNL     1       0.904   3.157  23.208  0.00  0.00    +0.088 C 
BRANCH  20  23
ATOM      1  S   UNL     1       2.255   2.831  27.998  0.00  0.00    -0.095 S 
ATOM     23  C   UNL     1       0.544   2.789  27.943  0.00  0.00    +0.038 A 
ATOM     26  C   UNL     1      -0.004   2.494  29.172  0.00  0.00    +0.017 A 
ATOM     29  C   UNL     1       0.993   2.299  30.170  0.00  0.00    +0.008 A 
ATOM     30  C   UNL     1       2.266   2.453  29.667  0.00  0.00    +0.046 A 
ENDBRANCH  20  23
ENDBRANCH  11  18
BRANCH  12  17
ATOM     17  C   UNL     1      -5.212   0.377  25.157  0.00  0.00    +0.123 C 
BRANCH  17   7
ATOM      5  O   UNL     1      -3.128  -1.443  25.927  0.00  0.00    -0.270 OA
ATOM      7  N   UNL     1      -3.882   0.329  24.632  0.00  0.00    -0.310 N 
ATOM     22  C   UNL     1      -2.929  -0.591  25.064  0.00  0.00    +0.244 C 
ATOM     35  H   UNL     1      -3.631   1.047  23.960  0.00  0.00    +0.149 HD
BRANCH  22  24
ATOM     24  C   UNL     1      -1.584  -0.492  24.438  0.00  0.00    +0.037 A 
ATOM     27  C   UNL     1      -0.499  -1.159  25.006  0.00  0.00    +0.013 A 
ATOM     28  C   UNL     1      -1.409   0.267  23.282  0.00  0.00    +0.013 A 
ATOM     31  C   UNL     1       0.762  -1.066  24.419  0.00  0.00    +0.013 A 
ATOM     32  C   UNL     1      -0.147   0.361  22.694  0.00  0.00    +0.013 A 
ATOM     33  C   UNL     1       0.938  -0.305  23.262  0.00  0.00    +0.055 A 
BRANCH  33  34
ATOM      2  F   UNL     1       2.239  -0.283  21.273  0.00  0.00    -0.166 F 
ATOM      3  F   UNL     1       2.936   0.964  22.912  0.00  0.00    -0.166 F 
ATOM      4  F   UNL     1       3.147  -1.192  23.028  0.00  0.00    -0.166 F 
ATOM     34  C   UNL     1       2.287  -0.206  22.634  0.00  0.00    +0.417 C 
ENDBRANCH  33  34
ENDBRANCH  22  24
ENDBRANCH  17   7
ENDBRANCH  12  17
TORSDOF 6
ENDMDL
MODEL 8
REMARK VINA RESULT:       6.8      3.029      6.172
REMARK  Name = 40777064
REMARK  7 active torsions:
REMARK  status: ('A' for Active; 'I' for Inactive)
REMARK    1  A    between atoms: N_7  and  C_17
REMARK    2  A    between atoms: C_11  and  C_18
REMARK    3  A    between atoms: C_12  and  C_17
REMARK    4  A    between atoms: C_20  and  C_23
REMARK    5  A    between atoms: C_21  and  C_25
REMARK    6  A    between atoms: C_22  and  C_24
REMARK    7  A    between atoms: C_33  and  C_34
REMARK                            x       y       z     vdW  Elec       q    Type
REMARK                         _______ _______ _______ _____ _____    ______ ____
ROOT
ATOM      6  N   UNL     1      -5.160   3.821  24.169  0.00  0.00    -0.297 NA
ATOM     10  C   UNL     1      -3.579   4.573  26.097  0.00  0.00    +0.002 C 
ATOM     11  C   UNL     1      -2.752   4.105  24.868  0.00  0.00    +0.055 C 
ATOM     12  C   UNL     1      -5.561   3.163  25.440  0.00  0.00    +0.074 C 
ATOM     13  C   UNL     1      -4.517   3.433  26.545  0.00  0.00    +0.024 C 
ATOM     14  C   UNL     1      -4.475   5.734  25.615  0.00  0.00    +0.019 C 
ATOM     15  C   UNL     1      -3.749   3.487  23.847  0.00  0.00    +0.094 C 
ATOM     16  C   UNL     1      -5.255   5.287  24.366  0.00  0.00    +0.085 C 
ENDROOT
BRANCH  11  18
ATOM      8  N   UNL     1      -1.047   3.192  26.364  0.00  0.00    -0.237 NA
ATOM      9  N   UNL     1       0.617   1.620  25.608  0.00  0.00    -0.232 NA
ATOM     18  C   UNL     1      -1.547   3.209  25.112  0.00  0.00    +0.050 A 
ATOM     19  C   UNL     1      -1.027   2.470  24.068  0.00  0.00    +0.052 A 
ATOM     20  C   UNL     1       0.065   1.686  24.378  0.00  0.00    +0.081 A 
ATOM     21  C   UNL     1       0.019   2.387  26.540  0.00  0.00    +0.127 A 
ATOM     25  C   UNL     1       0.600   2.341  27.913  0.00  0.00    +0.088 C 
BRANCH  20  23
ATOM      1  S   UNL     1       2.400   1.006  23.164  0.00  0.00    -0.095 S 
ATOM     23  C   UNL     1       0.708   0.867  23.385  0.00  0.00    +0.038 A 
ATOM     26  C   UNL     1       0.151  -0.064  22.536  0.00  0.00    +0.017 A 
ATOM     29  C   UNL     1       1.126  -0.670  21.693  0.00  0.00    +0.008 A 
ATOM     30  C   UNL     1       2.391  -0.180  21.930  0.00  0.00    +0.046 A 
ENDBRANCH  20  23
ENDBRANCH  11  18
BRANCH  12  17
ATOM     17  C   UNL     1      -5.830   1.667  25.263  0.00  0.00    +0.123 C 
BRANCH  17   7
ATOM      5  O   UNL     1      -5.232  -0.814  23.948  0.00  0.00    -0.270 OA
ATOM      7  N   UNL     1      -4.619   0.915  25.369  0.00  0.00    -0.310 N 
ATOM     22  C   UNL     1      -4.410  -0.286  24.693  0.00  0.00    +0.244 C 
ATOM     35  H   UNL     1      -3.921   1.263  26.018  0.00  0.00    +0.149 HD
BRANCH  22  24
ATOM     24  C   UNL     1      -3.107  -0.959  24.929  0.00  0.00    +0.037 A 
ATOM     27  C   UNL     1      -2.236  -0.474  25.905  0.00  0.00    +0.013 A 
ATOM     28  C   UNL     1      -2.755  -2.078  24.175  0.00  0.00    +0.013 A 
ATOM     31  C   UNL     1      -1.013  -1.105  26.125  0.00  0.00    +0.013 A 
ATOM     32  C   UNL     1      -1.531  -2.711  24.396  0.00  0.00    +0.013 A 
ATOM     33  C   UNL     1      -0.660  -2.225  25.370  0.00  0.00    +0.055 A 
BRANCH  33  34
ATOM      2  F   UNL     1       1.135  -2.676  26.861  0.00  0.00    -0.166 F 
ATOM      3  F   UNL     1       0.595  -4.259  25.472  0.00  0.00    -0.166 F 
ATOM      4  F   UNL     1       1.634  -2.496  24.753  0.00  0.00    -0.166 F 
ATOM     34  C   UNL     1       0.648  -2.900  25.607  0.00  0.00    +0.417 C 
ENDBRANCH  33  34
ENDBRANCH  22  24
ENDBRANCH  17   7
ENDBRANCH  12  17
TORSDOF 6
ENDMDL
MODEL 9
REMARK VINA RESULT:       6.9      4.541      7.198
REMARK  Name = 40777064
REMARK  7 active torsions:
REMARK  status: ('A' for Active; 'I' for Inactive)
REMARK    1  A    between atoms: N_7  and  C_17
REMARK    2  A    between atoms: C_11  and  C_18
REMARK    3  A    between atoms: C_12  and  C_17
REMARK    4  A    between atoms: C_20  and  C_23
REMARK    5  A    between atoms: C_21  and  C_25
REMARK    6  A    between atoms: C_22  and  C_24
REMARK    7  A    between atoms: C_33  and  C_34
REMARK                            x       y       z     vdW  Elec       q    Type
REMARK                         _______ _______ _______ _____ _____    ______ ____
ROOT
ATOM      6  N   UNL     1      -3.487  -2.490  25.604  0.00  0.00    -0.297 NA
ATOM     10  C   UNL     1      -0.967  -2.809  25.029  0.00  0.00    +0.002 C 
ATOM     11  C   UNL     1      -1.218  -1.385  25.598  0.00  0.00    +0.055 C 
ATOM     12  C   UNL     1      -3.344  -3.028  24.225  0.00  0.00    +0.074 C 
ATOM     13  C   UNL     1      -1.862  -3.030  23.792  0.00  0.00    +0.024 C 
ATOM     14  C   UNL     1      -1.432  -3.809  26.109  0.00  0.00    +0.019 C 
ATOM     15  C   UNL     1      -2.758  -1.202  25.724  0.00  0.00    +0.094 C 
ATOM     16  C   UNL     1      -2.869  -3.461  26.537  0.00  0.00    +0.085 C 
ENDROOT
BRANCH  11  18
ATOM      8  N   UNL     1       0.464  -0.491  24.065  0.00  0.00    -0.237 NA
ATOM      9  N   UNL     1       0.682   1.870  23.633  0.00  0.00    -0.232 NA
ATOM     18  C   UNL     1      -0.552  -0.206  24.904  0.00  0.00    +0.050 A 
ATOM     19  C   UNL     1      -1.002   1.074  25.157  0.00  0.00    +0.052 A 
ATOM     20  C   UNL     1      -0.341   2.082  24.487  0.00  0.00    +0.081 A 
ATOM     21  C   UNL     1       1.028   0.579  23.471  0.00  0.00    +0.127 A 
ATOM     25  C   UNL     1       2.155   0.303  22.534  0.00  0.00    +0.088 C 
BRANCH  20  23
ATOM      1  S   UNL     1      -1.844   3.876  25.869  0.00  0.00    -0.095 S 
ATOM     23  C   UNL     1      -0.706   3.463  24.659  0.00  0.00    +0.038 A 
ATOM     26  C   UNL     1      -0.261   4.570  23.969  0.00  0.00    +0.017 A 
ATOM     29  C   UNL     1      -0.864   5.772  24.440  0.00  0.00    +0.008 A 
ATOM     30  C   UNL     1      -1.746   5.538  25.472  0.00  0.00    +0.046 A 
ENDBRANCH  20  23
ENDBRANCH  11  18
BRANCH  12  17
ATOM     17  C   UNL     1      -4.232  -2.294  23.218  0.00  0.00    +0.123 C 
BRANCH  17   7
ATOM      5  O   UNL     1      -2.984   0.209  22.570  0.00  0.00    -0.270 OA
ATOM      7  N   UNL     1      -4.602  -1.003  23.710  0.00  0.00    -0.310 N 
ATOM     22  C   UNL     1      -3.939   0.166  23.342  0.00  0.00    +0.244 C 
ATOM     35  H   UNL     1      -5.343  -0.974  24.402  0.00  0.00    +0.149 HD
BRANCH  22  24
ATOM     24  C   UNL     1      -4.428   1.425  23.962  0.00  0.00    +0.037 A 
ATOM     27  C   UNL     1      -4.041   2.658  23.437  0.00  0.00    +0.013 A 
ATOM     28  C   UNL     1      -5.275   1.373  25.069  0.00  0.00    +0.013 A 
ATOM     31  C   UNL     1      -4.499   3.839  24.020  0.00  0.00    +0.013 A 
ATOM     32  C   UNL     1      -5.733   2.555  25.652  0.00  0.00    +0.013 A 
ATOM     33  C   UNL     1      -5.346   3.787  25.128  0.00  0.00    +0.055 A 
BRANCH  33  34
ATOM      2  F   UNL     1      -4.865   5.700  26.456  0.00  0.00    -0.166 F 
ATOM      3  F   UNL     1      -6.302   5.962  24.845  0.00  0.00    -0.166 F 
ATOM      4  F   UNL     1      -6.865   4.864  26.629  0.00  0.00    -0.166 F 
ATOM     34  C   UNL     1      -5.836   5.051  25.750  0.00  0.00    +0.417 C 
ENDBRANCH  33  34
ENDBRANCH  22  24
ENDBRANCH  17   7
ENDBRANCH  12  17
TORSDOF 6
ENDMDL
