MODEL 1
REMARK VINA RESULT:      -1.5      0.000      0.000
REMARK  Name = 26762945
REMARK  5 active torsions:
REMARK  status: ('A' for Active; 'I' for Inactive)
REMARK    1  A    between atoms: N_7  and  C_12
REMARK    2  A    between atoms: N_9  and  C_26
REMARK    3  A    between atoms: C_11  and  C_16
REMARK    4  A    between atoms: C_16  and  C_18
REMARK    5  A    between atoms: C_18  and  C_19
REMARK                            x       y       z     vdW  Elec       q    Type
REMARK                         _______ _______ _______ _____ _____    ______ ____
ROOT
ATOM      2  O   UNL     1      14.608  -8.308  27.427  0.00  0.00    -0.274 OA
ATOM      5  N   UNL     1      16.442  -8.400  30.330  0.00  0.00    -0.285 NA
ATOM      6  N   UNL     1      16.170  -6.785  28.187  0.00  0.00    -0.313 N 
ATOM     10  C   UNL     1      16.274  -9.043  29.029  0.00  0.00    +0.145 C 
ATOM     11  C   UNL     1      17.383  -7.277  30.313  0.00  0.00    +0.075 C 
ATOM     12  C   UNL     1      15.767 -10.562  30.851  0.00  0.00    +0.090 C 
ATOM     13  C   UNL     1      15.481 -10.300  29.365  0.00  0.00    +0.052 C 
ATOM     14  C   UNL     1      16.762  -9.476  31.263  0.00  0.00    +0.107 C 
ATOM     15  C   UNL     1      17.397  -6.573  28.937  0.00  0.00    +0.123 C 
ATOM     17  C   UNL     1      15.570  -8.037  28.138  0.00  0.00    +0.230 C 
ATOM     30  H   UNL     1      15.804  -6.036  27.607  0.00  0.00    +0.149 HD
ENDROOT
BRANCH  12   7
ATOM      4  O   UNL     1      13.082 -10.448  29.855  0.00  0.00    -0.253 OA
ATOM      7  N   UNL     1      14.557 -10.501  31.637  0.00  0.00    -0.295 N 
ATOM      9  N   UNL     1      12.304 -10.393  32.070  0.00  0.00    -0.269 N 
ATOM     20  C   UNL     1      13.278 -10.447  31.069  0.00  0.00    +0.304 C 
ATOM     31  H   UNL     1      14.631 -10.583  32.646  0.00  0.00    +0.151 HD
ATOM     32  H   UNL     1      12.623 -10.398  33.035  0.00  0.00    +0.156 HD
BRANCH   9  26
ATOM      1  S   UNL     1       8.416  -9.877  32.388  0.00  0.00    -0.103 S 
ATOM     26  C   UNL     1      10.900 -10.331  31.912  0.00  0.00    +0.042 A 
ATOM     27  C   UNL     1      10.187 -10.781  30.763  0.00  0.00    +0.031 A 
ATOM     28  C   UNL     1      10.057  -9.816  32.873  0.00  0.00    +0.068 A 
ATOM     29  C   UNL     1       8.830 -10.594  30.889  0.00  0.00    +0.047 A 
ENDBRANCH   9  26
ENDBRANCH  12   7
BRANCH  11  16
ATOM     16  C   UNL     1      16.982  -6.287  31.410  0.00  0.00    +0.029 C 
BRANCH  16  18
ATOM     18  C   UNL     1      16.527  -4.949  30.846  0.00  0.00    +0.097 C 
BRANCH  18  19
ATOM      3  O   UNL     1      15.638  -3.484  32.481  0.00  0.00    -0.276 OA
ATOM      8  N   UNL     1      14.127  -4.901  31.429  0.00  0.00    -0.301 N 
ATOM     19  C   UNL     1      15.397  -4.373  31.661  0.00  0.00    +0.216 C 
ATOM     21  C   UNL     1      12.979  -4.395  32.184  0.00  0.00    +0.108 C 
ATOM     22  C   UNL     1      13.802  -5.926  30.430  0.00  0.00    +0.108 C 
ATOM     23  C   UNL     1      12.227  -5.536  32.864  0.00  0.00    +0.019 C 
ATOM     24  C   UNL     1      13.065  -7.098  31.076  0.00  0.00    +0.019 C 
ATOM     25  C   UNL     1      11.843  -6.622  31.859  0.00  0.00    +0.003 C 
ENDBRANCH  18  19
ENDBRANCH  16  18
ENDBRANCH  11  16
TORSDOF 5
ENDMDL
MODEL 2
REMARK VINA RESULT:       1.2     17.798     20.427
REMARK  Name = 26762945
REMARK  5 active torsions:
REMARK  status: ('A' for Active; 'I' for Inactive)
REMARK    1  A    between atoms: N_7  and  C_12
REMARK    2  A    between atoms: N_9  and  C_26
REMARK    3  A    between atoms: C_11  and  C_16
REMARK    4  A    between atoms: C_16  and  C_18
REMARK    5  A    between atoms: C_18  and  C_19
REMARK                            x       y       z     vdW  Elec       q    Type
REMARK                         _______ _______ _______ _____ _____    ______ ____
ROOT
ATOM      2  O   UNL     1      -3.432   4.026  22.305  0.00  0.00    -0.274 OA
ATOM      5  N   UNL     1      -3.408   2.572  25.417  0.00  0.00    -0.285 NA
ATOM      6  N   UNL     1      -5.018   2.638  23.252  0.00  0.00    -0.313 N 
ATOM     10  C   UNL     1      -3.537   3.851  24.721  0.00  0.00    +0.145 C 
ATOM     11  C   UNL     1      -4.685   1.876  25.607  0.00  0.00    +0.075 C 
ATOM     12  C   UNL     1      -1.558   3.787  26.123  0.00  0.00    +0.090 C 
ATOM     13  C   UNL     1      -2.155   4.472  24.884  0.00  0.00    +0.052 C 
ATOM     14  C   UNL     1      -2.660   2.860  26.636  0.00  0.00    +0.107 C 
ATOM     15  C   UNL     1      -5.680   2.204  24.471  0.00  0.00    +0.123 C 
ATOM     17  C   UNL     1      -3.952   3.528  23.298  0.00  0.00    +0.230 C 
ATOM     30  H   UNL     1      -5.404   2.371  22.352  0.00  0.00    +0.149 HD
ENDROOT
BRANCH  12   7
ATOM      4  O   UNL     1      -0.999   2.452  23.649  0.00  0.00    -0.253 OA
ATOM      7  N   UNL     1      -0.359   3.054  25.789  0.00  0.00    -0.295 N 
ATOM      9  N   UNL     1       1.083   1.798  24.517  0.00  0.00    -0.269 N 
ATOM     20  C   UNL     1      -0.165   2.428  24.552  0.00  0.00    +0.304 C 
ATOM     31  H   UNL     1       0.412   3.062  26.449  0.00  0.00    +0.151 HD
ATOM     32  H   UNL     1       1.665   1.865  25.347  0.00  0.00    +0.156 HD
BRANCH   9  26
ATOM      1  S   UNL     1       3.365   0.160  21.762  0.00  0.00    -0.103 S 
ATOM     26  C   UNL     1       1.653   1.061  23.452  0.00  0.00    +0.042 A 
ATOM     27  C   UNL     1       0.953   0.120  22.644  0.00  0.00    +0.031 A 
ATOM     28  C   UNL     1       2.975   1.180  23.080  0.00  0.00    +0.068 A 
ATOM     29  C   UNL     1       1.764  -0.444  21.685  0.00  0.00    +0.047 A 
ENDBRANCH   9  26
ENDBRANCH  12   7
BRANCH  11  16
ATOM     16  C   UNL     1      -4.417   0.370  25.659  0.00  0.00    +0.029 C 
BRANCH  16  18
ATOM     18  C   UNL     1      -4.926  -0.353  24.421  0.00  0.00    +0.097 C 
BRANCH  18  19
ATOM      3  O   UNL     1      -4.725  -2.642  23.847  0.00  0.00    -0.276 OA
ATOM      8  N   UNL     1      -2.747  -1.509  24.296  0.00  0.00    -0.301 N 
ATOM     19  C   UNL     1      -4.132  -1.607  24.160  0.00  0.00    +0.216 C 
ATOM     21  C   UNL     1      -1.907  -2.685  24.061  0.00  0.00    +0.108 C 
ATOM     22  C   UNL     1      -2.010  -0.282  24.621  0.00  0.00    +0.108 C 
ATOM     23  C   UNL     1      -0.995  -2.951  25.256  0.00  0.00    +0.019 C 
ATOM     24  C   UNL     1      -1.099  -0.502  25.827  0.00  0.00    +0.019 C 
ATOM     25  C   UNL     1      -0.185  -1.708  25.621  0.00  0.00    +0.003 C 
ENDBRANCH  18  19
ENDBRANCH  16  18
ENDBRANCH  11  16
TORSDOF 5
ENDMDL
MODEL 3
REMARK VINA RESULT:       1.3     17.513     19.923
REMARK  Name = 26762945
REMARK  5 active torsions:
REMARK  status: ('A' for Active; 'I' for Inactive)
REMARK    1  A    between atoms: N_7  and  C_12
REMARK    2  A    between atoms: N_9  and  C_26
REMARK    3  A    between atoms: C_11  and  C_16
REMARK    4  A    between atoms: C_16  and  C_18
REMARK    5  A    between atoms: C_18  and  C_19
REMARK                            x       y       z     vdW  Elec       q    Type
REMARK                         _______ _______ _______ _____ _____    ______ ____
ROOT
ATOM      2  O   UNL     1      -0.501  -2.658  25.151  0.00  0.00    -0.274 OA
ATOM      5  N   UNL     1      -2.410   0.092  24.384  0.00  0.00    -0.285 NA
ATOM      6  N   UNL     1      -2.785  -2.389  25.377  0.00  0.00    -0.313 N 
ATOM     10  C   UNL     1      -1.620  -0.987  23.797  0.00  0.00    +0.145 C 
ATOM     11  C   UNL     1      -3.819  -0.257  24.589  0.00  0.00    +0.075 C 
ATOM     12  C   UNL     1      -0.654   1.190  23.330  0.00  0.00    +0.090 C 
ATOM     13  C   UNL     1      -0.303  -0.301  23.452  0.00  0.00    +0.052 C 
ATOM     14  C   UNL     1      -2.167   1.262  23.547  0.00  0.00    +0.107 C 
ATOM     15  C   UNL     1      -3.993  -1.769  24.857  0.00  0.00    +0.123 C 
ATOM     17  C   UNL     1      -1.539  -2.083  24.842  0.00  0.00    +0.230 C 
ATOM     30  H   UNL     1      -2.861  -3.130  26.066  0.00  0.00    +0.149 HD
ENDROOT
BRANCH  12   7
ATOM      4  O   UNL     1      -0.422   0.646  26.134  0.00  0.00    -0.253 OA
ATOM      7  N   UNL     1       0.061   1.978  24.306  0.00  0.00    -0.295 N 
ATOM      9  N   UNL     1       0.883   2.585  26.364  0.00  0.00    -0.269 N 
ATOM     20  C   UNL     1       0.125   1.641  25.663  0.00  0.00    +0.304 C 
ATOM     31  H   UNL     1       0.611   2.767  23.981  0.00  0.00    +0.151 HD
ATOM     32  H   UNL     1       1.272   3.360  25.832  0.00  0.00    +0.156 HD
BRANCH   9  26
ATOM      1  S   UNL     1       0.907   2.477  30.296  0.00  0.00    -0.103 S 
ATOM     26  C   UNL     1       1.184   2.603  27.745  0.00  0.00    +0.042 A 
ATOM     27  C   UNL     1       2.477   2.833  28.296  0.00  0.00    +0.031 A 
ATOM     28  C   UNL     1       0.235   2.395  28.723  0.00  0.00    +0.068 A 
ATOM     29  C   UNL     1       2.470   2.792  29.671  0.00  0.00    +0.047 A 
ENDBRANCH   9  26
ENDBRANCH  12   7
BRANCH  11  16
ATOM     16  C   UNL     1      -4.358   0.556  25.770  0.00  0.00    +0.029 C 
BRANCH  16  18
ATOM     18  C   UNL     1      -5.464   1.515  25.357  0.00  0.00    +0.097 C 
BRANCH  18  19
ATOM      3  O   UNL     1      -5.240   2.399  23.170  0.00  0.00    -0.276 OA
ATOM      8  N   UNL     1      -4.185   3.573  24.875  0.00  0.00    -0.301 N 
ATOM     19  C   UNL     1      -4.958   2.531  24.364  0.00  0.00    +0.216 C 
ATOM     21  C   UNL     1      -3.655   4.597  23.973  0.00  0.00    +0.108 C 
ATOM     22  C   UNL     1      -3.871   3.781  26.294  0.00  0.00    +0.108 C 
ATOM     23  C   UNL     1      -2.144   4.739  24.135  0.00  0.00    +0.019 C 
ATOM     24  C   UNL     1      -2.363   3.908  26.501  0.00  0.00    +0.019 C 
ATOM     25  C   UNL     1      -1.765   4.983  25.595  0.00  0.00    +0.003 C 
ENDBRANCH  18  19
ENDBRANCH  16  18
ENDBRANCH  11  16
TORSDOF 5
ENDMDL
MODEL 4
REMARK VINA RESULT:       1.3     17.945     20.557
REMARK  Name = 26762945
REMARK  5 active torsions:
REMARK  status: ('A' for Active; 'I' for Inactive)
REMARK    1  A    between atoms: N_7  and  C_12
REMARK    2  A    between atoms: N_9  and  C_26
REMARK    3  A    between atoms: C_11  and  C_16
REMARK    4  A    between atoms: C_16  and  C_18
REMARK    5  A    between atoms: C_18  and  C_19
REMARK                            x       y       z     vdW  Elec       q    Type
REMARK                         _______ _______ _______ _____ _____    ______ ____
ROOT
ATOM      2  O   UNL     1      -4.331   5.907  23.544  0.00  0.00    -0.274 OA
ATOM      5  N   UNL     1      -3.428   3.244  25.517  0.00  0.00    -0.285 NA
ATOM      6  N   UNL     1      -5.700   4.364  24.586  0.00  0.00    -0.313 N 
ATOM     10  C   UNL     1      -3.480   4.704  25.469  0.00  0.00    +0.145 C 
ATOM     11  C   UNL     1      -4.650   2.630  26.044  0.00  0.00    +0.075 C 
ATOM     12  C   UNL     1      -1.199   3.892  25.611  0.00  0.00    +0.090 C 
ATOM     13  C   UNL     1      -2.042   5.090  25.148  0.00  0.00    +0.052 C 
ATOM     14  C   UNL     1      -2.199   2.916  26.232  0.00  0.00    +0.107 C 
ATOM     15  C   UNL     1      -5.895   3.491  25.731  0.00  0.00    +0.123 C 
ATOM     17  C   UNL     1      -4.512   5.065  24.417  0.00  0.00    +0.230 C 
ATOM     30  H   UNL     1      -6.476   4.545  23.958  0.00  0.00    +0.149 HD
ENDROOT
BRANCH  12   7
ATOM      4  O   UNL     1       0.962   2.017  25.778  0.00  0.00    -0.253 OA
ATOM      7  N   UNL     1      -0.488   3.293  24.506  0.00  0.00    -0.295 N 
ATOM      9  N   UNL     1       1.055   1.973  23.432  0.00  0.00    -0.269 N 
ATOM     20  C   UNL     1       0.561   2.382  24.674  0.00  0.00    +0.304 C 
ATOM     31  H   UNL     1      -0.817   3.477  23.563  0.00  0.00    +0.151 HD
ATOM     32  H   UNL     1       0.619   2.366  22.602  0.00  0.00    +0.156 HD
BRANCH   9  26
ATOM      1  S   UNL     1       4.462   0.125  22.756  0.00  0.00    -0.103 S 
ATOM     26  C   UNL     1       2.107   1.064  23.173  0.00  0.00    +0.042 A 
ATOM     27  C   UNL     1       1.946  -0.339  22.987  0.00  0.00    +0.031 A 
ATOM     28  C   UNL     1       3.426   1.451  23.073  0.00  0.00    +0.068 A 
ATOM     29  C   UNL     1       3.146  -0.972  22.751  0.00  0.00    +0.047 A 
ENDBRANCH   9  26
ENDBRANCH  12   7
BRANCH  11  16
ATOM     16  C   UNL     1      -4.802   1.237  25.428  0.00  0.00    +0.029 C 
BRANCH  16  18
ATOM     18  C   UNL     1      -4.387   1.201  23.965  0.00  0.00    +0.097 C 
BRANCH  18  19
ATOM      3  O   UNL     1      -2.198   1.416  23.086  0.00  0.00    -0.276 OA
ATOM      8  N   UNL     1      -2.561  -0.361  24.538  0.00  0.00    -0.301 N 
ATOM     19  C   UNL     1      -2.950   0.769  23.819  0.00  0.00    +0.216 C 
ATOM     21  C   UNL     1      -1.182  -0.845  24.445  0.00  0.00    +0.108 C 
ATOM     22  C   UNL     1      -3.420  -1.124  25.452  0.00  0.00    +0.108 C 
ATOM     23  C   UNL     1      -1.145  -2.319  24.053  0.00  0.00    +0.019 C 
ATOM     24  C   UNL     1      -3.426  -2.605  25.079  0.00  0.00    +0.019 C 
ATOM     25  C   UNL     1      -2.007  -3.163  24.992  0.00  0.00    +0.003 C 
ENDBRANCH  18  19
ENDBRANCH  16  18
ENDBRANCH  11  16
TORSDOF 5
ENDMDL
MODEL 5
REMARK VINA RESULT:       2.5     17.736     20.063
REMARK  Name = 26762945
REMARK  5 active torsions:
REMARK  status: ('A' for Active; 'I' for Inactive)
REMARK    1  A    between atoms: N_7  and  C_12
REMARK    2  A    between atoms: N_9  and  C_26
REMARK    3  A    between atoms: C_11  and  C_16
REMARK    4  A    between atoms: C_16  and  C_18
REMARK    5  A    between atoms: C_18  and  C_19
REMARK                            x       y       z     vdW  Elec       q    Type
REMARK                         _______ _______ _______ _____ _____    ______ ____
ROOT
ATOM      2  O   UNL     1      -3.443  -2.103  25.452  0.00  0.00    -0.274 OA
ATOM      5  N   UNL     1      -3.572   1.115  24.259  0.00  0.00    -0.285 NA
ATOM      6  N   UNL     1      -4.942  -0.431  25.995  0.00  0.00    -0.313 N 
ATOM     10  C   UNL     1      -3.778  -0.282  23.887  0.00  0.00    +0.145 C 
ATOM     11  C   UNL     1      -4.768   1.760  24.809  0.00  0.00    +0.075 C 
ATOM     12  C   UNL     1      -1.964   0.722  22.628  0.00  0.00    +0.090 C 
ATOM     13  C   UNL     1      -2.506  -0.627  23.123  0.00  0.00    +0.052 C 
ATOM     14  C   UNL     1      -2.995   1.757  23.082  0.00  0.00    +0.107 C 
ATOM     15  C   UNL     1      -5.671   0.742  25.542  0.00  0.00    +0.123 C 
ATOM     17  C   UNL     1      -4.001  -1.046  25.179  0.00  0.00    +0.230 C 
ATOM     30  H   UNL     1      -5.196  -0.867  26.875  0.00  0.00    +0.149 HD
ENDROOT
BRANCH  12   7
ATOM      4  O   UNL     1       0.482  -0.631  21.994  0.00  0.00    -0.253 OA
ATOM      7  N   UNL     1      -0.658   0.996  23.179  0.00  0.00    -0.295 N 
ATOM      9  N   UNL     1       1.604   0.769  23.509  0.00  0.00    -0.269 N 
ATOM     20  C   UNL     1       0.491   0.285  22.815  0.00  0.00    +0.304 C 
ATOM     31  H   UNL     1      -0.552   1.794  23.798  0.00  0.00    +0.151 HD
ATOM     32  H   UNL     1       1.453   1.535  24.160  0.00  0.00    +0.156 HD
BRANCH   9  26
ATOM      1  S   UNL     1       5.015  -1.192  23.561  0.00  0.00    -0.103 S 
ATOM     26  C   UNL     1       2.943   0.321  23.423  0.00  0.00    +0.042 A 
ATOM     27  C   UNL     1       4.039   1.108  22.966  0.00  0.00    +0.031 A 
ATOM     28  C   UNL     1       3.333  -0.952  23.779  0.00  0.00    +0.068 A 
ATOM     29  C   UNL     1       5.224   0.409  22.990  0.00  0.00    +0.047 A 
ENDBRANCH   9  26
ENDBRANCH  12   7
BRANCH  11  16
ATOM     16  C   UNL     1      -4.329   2.867  25.771  0.00  0.00    +0.029 C 
BRANCH  16  18
ATOM     18  C   UNL     1      -4.592   4.257  25.214  0.00  0.00    +0.097 C 
BRANCH  18  19
ATOM      3  O   UNL     1      -3.462   5.510  23.550  0.00  0.00    -0.276 OA
ATOM      8  N   UNL     1      -2.137   4.534  25.190  0.00  0.00    -0.301 N 
ATOM     19  C   UNL     1      -3.352   4.828  24.571  0.00  0.00    +0.216 C 
ATOM     21  C   UNL     1      -0.889   5.049  24.624  0.00  0.00    +0.108 C 
ATOM     22  C   UNL     1      -1.978   3.763  26.429  0.00  0.00    +0.108 C 
ATOM     23  C   UNL     1       0.110   3.920  24.387  0.00  0.00    +0.019 C 
ATOM     24  C   UNL     1      -0.999   2.608  26.227  0.00  0.00    +0.019 C 
ATOM     25  C   UNL     1       0.330   3.100  25.657  0.00  0.00    +0.003 C 
ENDBRANCH  18  19
ENDBRANCH  16  18
ENDBRANCH  11  16
TORSDOF 5
ENDMDL
