MODEL 1
REMARK VINA RESULT:      -7.3      0.000      0.000
REMARK  Name = 75536539
REMARK  7 active torsions:
REMARK  status: ('A' for Active; 'I' for Inactive)
REMARK    1  A    between atoms: O_2  and  C_10
REMARK    2  A    between atoms: N_4  and  C_12
REMARK    3  A    between atoms: N_5  and  C_11
REMARK    4  A    between atoms: N_5  and  C_15
REMARK    5  A    between atoms: C_6  and  C_14
REMARK    6  A    between atoms: C_9  and  C_12
REMARK    7  A    between atoms: C_15  and  C_16
REMARK                            x       y       z     vdW  Elec       q    Type
REMARK                         _______ _______ _______ _____ _____    ______ ____
ROOT
ATOM      1  O   UNL     1      -0.995   2.983  26.551  0.00  0.00    -0.371 OA
ATOM      9  C   UNL     1      -0.793   3.813  25.395  0.00  0.00    +0.165 C 
ATOM     10  C   UNL     1      -0.641   2.861  24.215  0.00  0.00    +0.164 C 
ATOM     11  C   UNL     1       0.084   1.699  24.869  0.00  0.00    +0.111 C 
ATOM     13  C   UNL     1      -0.604   1.639  26.223  0.00  0.00    +0.181 C 
ENDROOT
BRANCH  10   2
ATOM      2  O   UNL     1       0.099   3.442  23.160  0.00  0.00    -0.388 OA
ATOM     24  H   UNL     1       0.633   2.747  22.741  0.00  0.00    +0.210 HD
ENDBRANCH  10   2
BRANCH  11   5
ATOM      5  N   UNL     1      -0.018   0.454  24.126  0.00  0.00    -0.305 NA
ATOM     23  H   UNL     1       0.898   0.220  23.742  0.00  0.00    +0.123 HD
BRANCH   5  15
ATOM     15  C   UNL     1      -0.463  -0.636  24.986  0.00  0.00    +0.116 C 
BRANCH  15  16
ATOM     16  C   UNL     1      -1.834  -1.128  24.604  0.00  0.00    -0.034 A 
ATOM     17  C   UNL     1      -2.804  -0.225  24.170  0.00  0.00    +0.005 A 
ATOM     18  C   UNL     1      -2.134  -2.488  24.684  0.00  0.00    +0.005 A 
ATOM     19  C   UNL     1      -4.074  -0.680  23.817  0.00  0.00    +0.000 A 
ATOM     20  C   UNL     1      -3.404  -2.944  24.330  0.00  0.00    +0.000 A 
ATOM     21  C   UNL     1      -4.374  -2.040  23.897  0.00  0.00    +0.000 A 
ENDBRANCH  15  16
ENDBRANCH   5  15
ENDBRANCH  11   5
BRANCH   9  12
ATOM     12  C   UNL     1      -1.957   4.776  25.242  0.00  0.00    +0.138 C 
BRANCH  12   4
ATOM      3  O   UNL     1      -3.978   3.376  23.687  0.00  0.00    -0.276 OA
ATOM      4  N   UNL     1      -3.180   4.194  25.718  0.00  0.00    -0.313 N 
ATOM     14  C   UNL     1      -4.088   3.541  24.897  0.00  0.00    +0.216 C 
ATOM     22  H   UNL     1      -3.375   4.254  26.713  0.00  0.00    +0.149 HD
BRANCH  14   6
ATOM      6  C   UNL     1      -5.290   3.011  25.606  0.00  0.00    +0.075 C 
ATOM      7  C   UNL     1      -6.222   2.118  24.856  0.00  0.00    +0.013 C 
ATOM      8  C   UNL     1      -5.340   1.555  25.929  0.00  0.00    +0.013 C 
ENDBRANCH  14   6
ENDBRANCH  12   4
ENDBRANCH   9  12
TORSDOF 7
ENDMDL
MODEL 2
REMARK VINA RESULT:      -6.7      1.528      4.566
REMARK  Name = 75536539
REMARK  7 active torsions:
REMARK  status: ('A' for Active; 'I' for Inactive)
REMARK    1  A    between atoms: O_2  and  C_10
REMARK    2  A    between atoms: N_4  and  C_12
REMARK    3  A    between atoms: N_5  and  C_11
REMARK    4  A    between atoms: N_5  and  C_15
REMARK    5  A    between atoms: C_6  and  C_14
REMARK    6  A    between atoms: C_9  and  C_12
REMARK    7  A    between atoms: C_15  and  C_16
REMARK                            x       y       z     vdW  Elec       q    Type
REMARK                         _______ _______ _______ _____ _____    ______ ____
ROOT
ATOM      1  O   UNL     1       0.152   2.606  23.404  0.00  0.00    -0.371 OA
ATOM      9  C   UNL     1       0.292   1.644  24.463  0.00  0.00    +0.165 C 
ATOM     10  C   UNL     1      -0.704   2.055  25.540  0.00  0.00    +0.164 C 
ATOM     11  C   UNL     1      -0.655   3.567  25.421  0.00  0.00    +0.111 C 
ATOM     13  C   UNL     1      -0.558   3.747  23.915  0.00  0.00    +0.181 C 
ENDROOT
BRANCH  10   2
ATOM      2  O   UNL     1      -0.317   1.596  26.819  0.00  0.00    -0.388 OA
ATOM     24  H   UNL     1      -1.097   1.607  27.398  0.00  0.00    +0.210 HD
ENDBRANCH  10   2
BRANCH  11   5
ATOM      5  N   UNL     1      -1.810   4.236  25.998  0.00  0.00    -0.305 NA
ATOM     23  H   UNL     1      -1.513   5.131  26.390  0.00  0.00    +0.123 HD
BRANCH   5  15
ATOM     15  C   UNL     1      -2.835   4.477  24.990  0.00  0.00    +0.116 C 
BRANCH  15  16
ATOM     16  C   UNL     1      -3.937   3.454  25.055  0.00  0.00    -0.034 A 
ATOM     17  C   UNL     1      -4.966   3.595  25.987  0.00  0.00    +0.005 A 
ATOM     18  C   UNL     1      -3.929   2.364  24.185  0.00  0.00    +0.005 A 
ATOM     19  C   UNL     1      -5.987   2.646  26.048  0.00  0.00    +0.000 A 
ATOM     20  C   UNL     1      -4.950   1.415  24.245  0.00  0.00    +0.000 A 
ATOM     21  C   UNL     1      -5.978   1.556  25.177  0.00  0.00    +0.000 A 
ENDBRANCH  15  16
ENDBRANCH   5  15
ENDBRANCH  11   5
BRANCH   9  12
ATOM     12  C   UNL     1       0.050   0.246  23.924  0.00  0.00    +0.138 C 
BRANCH  12   4
ATOM      3  O   UNL     1      -0.703  -2.182  25.337  0.00  0.00    -0.276 OA
ATOM      4  N   UNL     1      -1.274  -0.210  24.235  0.00  0.00    -0.313 N 
ATOM     14  C   UNL     1      -1.539  -1.389  24.918  0.00  0.00    +0.216 C 
ATOM     22  H   UNL     1      -2.054   0.375  23.951  0.00  0.00    +0.149 HD
BRANCH  14   6
ATOM      6  C   UNL     1      -2.990  -1.664  25.135  0.00  0.00    +0.075 C 
ATOM      7  C   UNL     1      -3.896  -1.682  23.949  0.00  0.00    +0.013 C 
ATOM      8  C   UNL     1      -3.547  -2.961  24.650  0.00  0.00    +0.013 C 
ENDBRANCH  14   6
ENDBRANCH  12   4
ENDBRANCH   9  12
TORSDOF 7
ENDMDL
MODEL 3
REMARK VINA RESULT:      -6.6      2.305      4.959
REMARK  Name = 75536539
REMARK  7 active torsions:
REMARK  status: ('A' for Active; 'I' for Inactive)
REMARK    1  A    between atoms: O_2  and  C_10
REMARK    2  A    between atoms: N_4  and  C_12
REMARK    3  A    between atoms: N_5  and  C_11
REMARK    4  A    between atoms: N_5  and  C_15
REMARK    5  A    between atoms: C_6  and  C_14
REMARK    6  A    between atoms: C_9  and  C_12
REMARK    7  A    between atoms: C_15  and  C_16
REMARK                            x       y       z     vdW  Elec       q    Type
REMARK                         _______ _______ _______ _____ _____    ______ ____
ROOT
ATOM      1  O   UNL     1      -1.239   2.052  22.991  0.00  0.00    -0.371 OA
ATOM      9  C   UNL     1      -1.041   2.685  24.266  0.00  0.00    +0.165 C 
ATOM     10  C   UNL     1      -2.355   2.533  25.021  0.00  0.00    +0.164 C 
ATOM     11  C   UNL     1      -3.357   2.646  23.887  0.00  0.00    +0.111 C 
ATOM     13  C   UNL     1      -2.651   1.876  22.783  0.00  0.00    +0.181 C 
ENDROOT
BRANCH  10   2
ATOM      2  O   UNL     1      -2.522   3.540  25.999  0.00  0.00    -0.388 OA
ATOM     24  H   UNL     1      -2.375   3.144  26.874  0.00  0.00    +0.210 HD
ENDBRANCH  10   2
BRANCH  11   5
ATOM      5  N   UNL     1      -4.667   2.101  24.208  0.00  0.00    -0.305 NA
ATOM     23  H   UNL     1      -4.988   1.526  23.427  0.00  0.00    +0.123 HD
BRANCH   5  15
ATOM     15  C   UNL     1      -4.613   1.279  25.410  0.00  0.00    +0.116 C 
BRANCH  15  16
ATOM     16  C   UNL     1      -4.203  -0.137  25.103  0.00  0.00    -0.034 A 
ATOM     17  C   UNL     1      -4.684  -0.770  23.957  0.00  0.00    +0.005 A 
ATOM     18  C   UNL     1      -3.342  -0.816  25.965  0.00  0.00    +0.005 A 
ATOM     19  C   UNL     1      -4.305  -2.082  23.672  0.00  0.00    +0.000 A 
ATOM     20  C   UNL     1      -2.962  -2.128  25.680  0.00  0.00    +0.000 A 
ATOM     21  C   UNL     1      -3.444  -2.761  24.534  0.00  0.00    +0.000 A 
ENDBRANCH  15  16
ENDBRANCH   5  15
ENDBRANCH  11   5
BRANCH   9  12
ATOM     12  C   UNL     1       0.138   2.047  24.979  0.00  0.00    +0.138 C 
BRANCH  12   4
ATOM      3  O   UNL     1       0.402  -0.569  23.737  0.00  0.00    -0.276 OA
ATOM      4  N   UNL     1       1.141   1.619  24.047  0.00  0.00    -0.313 N 
ATOM     14  C   UNL     1       1.187   0.343  23.503  0.00  0.00    +0.216 C 
ATOM     22  H   UNL     1       1.842   2.297  23.763  0.00  0.00    +0.149 HD
BRANCH  14   6
ATOM      6  C   UNL     1       2.316   0.118  22.552  0.00  0.00    +0.075 C 
ATOM      7  C   UNL     1       3.527   0.982  22.669  0.00  0.00    +0.013 C 
ATOM      8  C   UNL     1       3.586  -0.458  23.081  0.00  0.00    +0.013 C 
ENDBRANCH  14   6
ENDBRANCH  12   4
ENDBRANCH   9  12
TORSDOF 7
ENDMDL
MODEL 4
REMARK VINA RESULT:      -6.4      3.080      6.336
REMARK  Name = 75536539
REMARK  7 active torsions:
REMARK  status: ('A' for Active; 'I' for Inactive)
REMARK    1  A    between atoms: O_2  and  C_10
REMARK    2  A    between atoms: N_4  and  C_12
REMARK    3  A    between atoms: N_5  and  C_11
REMARK    4  A    between atoms: N_5  and  C_15
REMARK    5  A    between atoms: C_6  and  C_14
REMARK    6  A    between atoms: C_9  and  C_12
REMARK    7  A    between atoms: C_15  and  C_16
REMARK                            x       y       z     vdW  Elec       q    Type
REMARK                         _______ _______ _______ _____ _____    ______ ____
ROOT
ATOM      1  O   UNL     1      -0.009   0.731  25.003  0.00  0.00    -0.371 OA
ATOM      9  C   UNL     1       0.153  -0.466  24.224  0.00  0.00    +0.165 C 
ATOM     10  C   UNL     1      -1.232  -1.089  24.116  0.00  0.00    +0.164 C 
ATOM     11  C   UNL     1      -1.817  -0.736  25.471  0.00  0.00    +0.111 C 
ATOM     13  C   UNL     1      -1.280   0.671  25.673  0.00  0.00    +0.181 C 
ENDROOT
BRANCH  10   2
ATOM      2  O   UNL     1      -1.168  -2.483  23.896  0.00  0.00    -0.388 OA
ATOM     24  H   UNL     1      -0.664  -2.886  24.624  0.00  0.00    +0.210 HD
ENDBRANCH  10   2
BRANCH  11   5
ATOM      5  N   UNL     1      -3.270  -0.798  25.514  0.00  0.00    -0.305 NA
ATOM     23  H   UNL     1      -3.598  -0.309  26.348  0.00  0.00    +0.123 HD
BRANCH   5  15
ATOM     15  C   UNL     1      -3.857  -0.172  24.336  0.00  0.00    +0.116 C 
BRANCH  15  16
ATOM     16  C   UNL     1      -4.270   1.251  24.605  0.00  0.00    -0.034 A 
ATOM     17  C   UNL     1      -3.620   2.301  23.957  0.00  0.00    +0.005 A 
ATOM     18  C   UNL     1      -5.304   1.519  25.503  0.00  0.00    +0.005 A 
ATOM     19  C   UNL     1      -4.002   3.619  24.207  0.00  0.00    +0.000 A 
ATOM     20  C   UNL     1      -5.687   2.837  25.752  0.00  0.00    +0.000 A 
ATOM     21  C   UNL     1      -5.035   3.887  25.105  0.00  0.00    +0.000 A 
ENDBRANCH  15  16
ENDBRANCH   5  15
ENDBRANCH  11   5
BRANCH   9  12
ATOM     12  C   UNL     1       0.764  -0.124  22.877  0.00  0.00    +0.138 C 
BRANCH  12   4
ATOM      3  O   UNL     1       2.962   1.775  23.039  0.00  0.00    -0.276 OA
ATOM      4  N   UNL     1       2.170  -0.409  22.855  0.00  0.00    -0.313 N 
ATOM     14  C   UNL     1       3.152   0.568  22.939  0.00  0.00    +0.216 C 
ATOM     22  H   UNL     1       2.454  -1.382  22.790  0.00  0.00    +0.149 HD
BRANCH  14   6
ATOM      6  C   UNL     1       4.549   0.043  22.900  0.00  0.00    +0.075 C 
ATOM      7  C   UNL     1       5.483   0.423  24.002  0.00  0.00    +0.013 C 
ATOM      8  C   UNL     1       4.954  -0.977  23.912  0.00  0.00    +0.013 C 
ENDBRANCH  14   6
ENDBRANCH  12   4
ENDBRANCH   9  12
TORSDOF 7
ENDMDL
MODEL 5
REMARK VINA RESULT:      -6.3      1.588      4.119
REMARK  Name = 75536539
REMARK  7 active torsions:
REMARK  status: ('A' for Active; 'I' for Inactive)
REMARK    1  A    between atoms: O_2  and  C_10
REMARK    2  A    between atoms: N_4  and  C_12
REMARK    3  A    between atoms: N_5  and  C_11
REMARK    4  A    between atoms: N_5  and  C_15
REMARK    5  A    between atoms: C_6  and  C_14
REMARK    6  A    between atoms: C_9  and  C_12
REMARK    7  A    between atoms: C_15  and  C_16
REMARK                            x       y       z     vdW  Elec       q    Type
REMARK                         _______ _______ _______ _____ _____    ______ ____
ROOT
ATOM      1  O   UNL     1      -3.156   4.417  23.775  0.00  0.00    -0.371 OA
ATOM      9  C   UNL     1      -2.604   4.613  25.087  0.00  0.00    +0.165 C 
ATOM     10  C   UNL     1      -3.178   3.502  25.956  0.00  0.00    +0.164 C 
ATOM     11  C   UNL     1      -4.568   3.357  25.363  0.00  0.00    +0.111 C 
ATOM     13  C   UNL     1      -4.282   3.529  23.881  0.00  0.00    +0.181 C 
ENDROOT
BRANCH  10   2
ATOM      2  O   UNL     1      -3.203   3.860  27.323  0.00  0.00    -0.388 OA
ATOM     24  H   UNL     1      -3.792   4.626  27.429  0.00  0.00    +0.210 HD
ENDBRANCH  10   2
BRANCH  11   5
ATOM      5  N   UNL     1      -5.205   2.087  25.672  0.00  0.00    -0.305 NA
ATOM     23  H   UNL     1      -6.163   2.263  25.982  0.00  0.00    +0.123 HD
BRANCH   5  15
ATOM     15  C   UNL     1      -5.238   1.217  24.503  0.00  0.00    +0.116 C 
BRANCH  15  16
ATOM     16  C   UNL     1      -4.504  -0.075  24.745  0.00  0.00    -0.034 A 
ATOM     17  C   UNL     1      -4.486  -1.063  23.761  0.00  0.00    +0.005 A 
ATOM     18  C   UNL     1      -3.840  -0.283  25.955  0.00  0.00    +0.005 A 
ATOM     19  C   UNL     1      -3.807  -2.260  23.986  0.00  0.00    +0.000 A 
ATOM     20  C   UNL     1      -3.160  -1.480  26.180  0.00  0.00    +0.000 A 
ATOM     21  C   UNL     1      -3.144  -2.469  25.195  0.00  0.00    +0.000 A 
ENDBRANCH  15  16
ENDBRANCH   5  15
ENDBRANCH  11   5
BRANCH   9  12
ATOM     12  C   UNL     1      -1.087   4.596  25.016  0.00  0.00    +0.138 C 
BRANCH  12   4
ATOM      3  O   UNL     1       0.116   2.325  26.378  0.00  0.00    -0.276 OA
ATOM      4  N   UNL     1      -0.608   3.378  24.429  0.00  0.00    -0.313 N 
ATOM     14  C   UNL     1      -0.046   2.343  25.163  0.00  0.00    +0.216 C 
ATOM     22  H   UNL     1      -0.703   3.269  23.424  0.00  0.00    +0.149 HD
BRANCH  14   6
ATOM      6  C   UNL     1       0.382   1.169  24.346  0.00  0.00    +0.075 C 
ATOM      7  C   UNL     1      -0.246  -0.157  24.623  0.00  0.00    +0.013 C 
ATOM      8  C   UNL     1      -0.589   0.591  23.370  0.00  0.00    +0.013 C 
ENDBRANCH  14   6
ENDBRANCH  12   4
ENDBRANCH   9  12
TORSDOF 7
ENDMDL
MODEL 6
REMARK VINA RESULT:      -6.0      1.694      4.120
REMARK  Name = 75536539
REMARK  7 active torsions:
REMARK  status: ('A' for Active; 'I' for Inactive)
REMARK    1  A    between atoms: O_2  and  C_10
REMARK    2  A    between atoms: N_4  and  C_12
REMARK    3  A    between atoms: N_5  and  C_11
REMARK    4  A    between atoms: N_5  and  C_15
REMARK    5  A    between atoms: C_6  and  C_14
REMARK    6  A    between atoms: C_9  and  C_12
REMARK    7  A    between atoms: C_15  and  C_16
REMARK                            x       y       z     vdW  Elec       q    Type
REMARK                         _______ _______ _______ _____ _____    ______ ____
ROOT
ATOM      1  O   UNL     1      -3.735   3.673  23.907  0.00  0.00    -0.371 OA
ATOM      9  C   UNL     1      -4.362   3.971  25.166  0.00  0.00    +0.165 C 
ATOM     10  C   UNL     1      -4.889   2.645  25.698  0.00  0.00    +0.164 C 
ATOM     11  C   UNL     1      -5.295   1.954  24.409  0.00  0.00    +0.111 C 
ATOM     13  C   UNL     1      -4.170   2.372  23.477  0.00  0.00    +0.181 C 
ENDROOT
BRANCH  10   2
ATOM      2  O   UNL     1      -5.974   2.827  26.585  0.00  0.00    -0.388 OA
ATOM     24  H   UNL     1      -5.894   3.706  26.992  0.00  0.00    +0.210 HD
ENDBRANCH  10   2
BRANCH  11   5
ATOM      5  N   UNL     1      -5.419   0.511  24.535  0.00  0.00    -0.305 NA
ATOM     23  H   UNL     1      -5.067   0.072  23.682  0.00  0.00    +0.123 HD
BRANCH   5  15
ATOM     15  C   UNL     1      -4.654   0.015  25.672  0.00  0.00    +0.116 C 
BRANCH  15  16
ATOM     16  C   UNL     1      -3.526  -0.884  25.240  0.00  0.00    -0.034 A 
ATOM     17  C   UNL     1      -2.207  -0.541  25.535  0.00  0.00    +0.005 A 
ATOM     18  C   UNL     1      -3.801  -2.061  24.543  0.00  0.00    +0.005 A 
ATOM     19  C   UNL     1      -1.162  -1.373  25.134  0.00  0.00    +0.000 A 
ATOM     20  C   UNL     1      -2.756  -2.894  24.142  0.00  0.00    +0.000 A 
ATOM     21  C   UNL     1      -1.437  -2.550  24.437  0.00  0.00    +0.000 A 
ENDBRANCH  15  16
ENDBRANCH   5  15
ENDBRANCH  11   5
BRANCH   9  12
ATOM     12  C   UNL     1      -3.361   4.636  26.095  0.00  0.00    +0.138 C 
BRANCH  12   4
ATOM      3  O   UNL     1      -0.931   5.327  24.655  0.00  0.00    -0.276 OA
ATOM      4  N   UNL     1      -2.111   3.933  26.101  0.00  0.00    -0.313 N 
ATOM     14  C   UNL     1      -0.998   4.340  25.379  0.00  0.00    +0.216 C 
ATOM     22  H   UNL     1      -2.039   3.102  26.681  0.00  0.00    +0.149 HD
BRANCH  14   6
ATOM      6  C   UNL     1       0.197   3.460  25.537  0.00  0.00    +0.075 C 
ATOM      7  C   UNL     1       0.078   2.246  26.398  0.00  0.00    +0.013 C 
ATOM      8  C   UNL     1       0.171   2.106  24.908  0.00  0.00    +0.013 C 
ENDBRANCH  14   6
ENDBRANCH  12   4
ENDBRANCH   9  12
TORSDOF 7
ENDMDL
MODEL 7
REMARK VINA RESULT:      -5.6      2.066      4.675
REMARK  Name = 75536539
REMARK  7 active torsions:
REMARK  status: ('A' for Active; 'I' for Inactive)
REMARK    1  A    between atoms: O_2  and  C_10
REMARK    2  A    between atoms: N_4  and  C_12
REMARK    3  A    between atoms: N_5  and  C_11
REMARK    4  A    between atoms: N_5  and  C_15
REMARK    5  A    between atoms: C_6  and  C_14
REMARK    6  A    between atoms: C_9  and  C_12
REMARK    7  A    between atoms: C_15  and  C_16
REMARK                            x       y       z     vdW  Elec       q    Type
REMARK                         _______ _______ _______ _____ _____    ______ ____
ROOT
ATOM      1  O   UNL     1       0.431  -0.607  23.381  0.00  0.00    -0.371 OA
ATOM      9  C   UNL     1       0.249  -0.558  24.806  0.00  0.00    +0.165 C 
ATOM     10  C   UNL     1      -0.637   0.650  25.076  0.00  0.00    +0.164 C 
ATOM     11  C   UNL     1      -0.160   1.608  24.000  0.00  0.00    +0.111 C 
ATOM     13  C   UNL     1       0.049   0.664  22.828  0.00  0.00    +0.181 C 
ENDROOT
BRANCH  10   2
ATOM      2  O   UNL     1      -0.451   1.160  26.382  0.00  0.00    -0.388 OA
ATOM     24  H   UNL     1       0.426   1.576  26.426  0.00  0.00    +0.210 HD
ENDBRANCH  10   2
BRANCH  11   5
ATOM      5  N   UNL     1      -1.104   2.674  23.706  0.00  0.00    -0.305 NA
ATOM     23  H   UNL     1      -0.704   3.284  22.992  0.00  0.00    +0.123 HD
BRANCH   5  15
ATOM     15  C   UNL     1      -2.367   2.137  23.217  0.00  0.00    +0.116 C 
BRANCH  15  16
ATOM     16  C   UNL     1      -3.506   2.437  24.156  0.00  0.00    -0.034 A 
ATOM     17  C   UNL     1      -3.535   3.644  24.854  0.00  0.00    +0.005 A 
ATOM     18  C   UNL     1      -4.532   1.507  24.327  0.00  0.00    +0.005 A 
ATOM     19  C   UNL     1      -4.589   3.922  25.724  0.00  0.00    +0.000 A 
ATOM     20  C   UNL     1      -5.586   1.785  25.197  0.00  0.00    +0.000 A 
ATOM     21  C   UNL     1      -5.615   2.992  25.895  0.00  0.00    +0.000 A 
ENDBRANCH  15  16
ENDBRANCH   5  15
ENDBRANCH  11   5
BRANCH   9  12
ATOM     12  C   UNL     1      -0.353  -1.865  25.293  0.00  0.00    +0.138 C 
BRANCH  12   4
ATOM      3  O   UNL     1      -2.832  -1.086  26.600  0.00  0.00    -0.276 OA
ATOM      4  N   UNL     1      -1.691  -2.035  24.804  0.00  0.00    -0.313 N 
ATOM     14  C   UNL     1      -2.820  -1.629  25.501  0.00  0.00    +0.216 C 
ATOM     22  H   UNL     1      -1.809  -2.463  23.890  0.00  0.00    +0.149 HD
BRANCH  14   6
ATOM      6  C   UNL     1      -4.110  -1.904  24.801  0.00  0.00    +0.075 C 
ATOM      7  C   UNL     1      -4.203  -1.610  23.341  0.00  0.00    +0.013 C 
ATOM      8  C   UNL     1      -4.162  -3.029  23.823  0.00  0.00    +0.013 C 
ENDBRANCH  14   6
ENDBRANCH  12   4
ENDBRANCH   9  12
TORSDOF 7
ENDMDL
MODEL 8
REMARK VINA RESULT:      -5.0      1.832      4.489
REMARK  Name = 75536539
REMARK  7 active torsions:
REMARK  status: ('A' for Active; 'I' for Inactive)
REMARK    1  A    between atoms: O_2  and  C_10
REMARK    2  A    between atoms: N_4  and  C_12
REMARK    3  A    between atoms: N_5  and  C_11
REMARK    4  A    between atoms: N_5  and  C_15
REMARK    5  A    between atoms: C_6  and  C_14
REMARK    6  A    between atoms: C_9  and  C_12
REMARK    7  A    between atoms: C_15  and  C_16
REMARK                            x       y       z     vdW  Elec       q    Type
REMARK                         _______ _______ _______ _____ _____    ______ ____
ROOT
ATOM      1  O   UNL     1       0.128  -1.330  24.812  0.00  0.00    -0.371 OA
ATOM      9  C   UNL     1      -0.120  -0.326  23.814  0.00  0.00    +0.165 C 
ATOM     10  C   UNL     1      -1.531   0.185  24.072  0.00  0.00    +0.164 C 
ATOM     11  C   UNL     1      -2.219  -1.083  24.544  0.00  0.00    +0.111 C 
ATOM     13  C   UNL     1      -1.130  -1.719  25.391  0.00  0.00    +0.181 C 
ENDROOT
BRANCH  10   2
ATOM      2  O   UNL     1      -2.119   0.723  22.905  0.00  0.00    -0.388 OA
ATOM     24  H   UNL     1      -1.420   1.141  22.375  0.00  0.00    +0.210 HD
ENDBRANCH  10   2
BRANCH  11   5
ATOM      5  N   UNL     1      -3.445  -0.841  25.287  0.00  0.00    -0.305 NA
ATOM     23  H   UNL     1      -3.254  -0.171  26.033  0.00  0.00    +0.123 HD
BRANCH   5  15
ATOM     15  C   UNL     1      -4.486  -0.300  24.421  0.00  0.00    +0.116 C 
BRANCH  15  16
ATOM     16  C   UNL     1      -4.852   1.111  24.799  0.00  0.00    -0.034 A 
ATOM     17  C   UNL     1      -5.705   1.346  25.877  0.00  0.00    +0.005 A 
ATOM     18  C   UNL     1      -4.337   2.183  24.070  0.00  0.00    +0.005 A 
ATOM     19  C   UNL     1      -6.045   2.653  26.226  0.00  0.00    +0.000 A 
ATOM     20  C   UNL     1      -4.676   3.491  24.420  0.00  0.00    +0.000 A 
ATOM     21  C   UNL     1      -5.530   3.725  25.498  0.00  0.00    +0.000 A 
ENDBRANCH  15  16
ENDBRANCH   5  15
ENDBRANCH  11   5
BRANCH   9  12
ATOM     12  C   UNL     1       0.937   0.760  23.904  0.00  0.00    +0.138 C 
BRANCH  12   4
ATOM      3  O   UNL     1      -0.551   3.171  23.247  0.00  0.00    -0.276 OA
ATOM      4  N   UNL     1       0.533   1.808  24.795  0.00  0.00    -0.313 N 
ATOM     14  C   UNL     1      -0.180   2.927  24.390  0.00  0.00    +0.216 C 
ATOM     22  H   UNL     1       0.771   1.710  25.778  0.00  0.00    +0.149 HD
BRANCH  14   6
ATOM      6  C   UNL     1      -0.497   3.889  25.488  0.00  0.00    +0.075 C 
ATOM      7  C   UNL     1      -1.439   5.010  25.201  0.00  0.00    +0.013 C 
ATOM      8  C   UNL     1      -1.869   3.870  26.074  0.00  0.00    +0.013 C 
ENDBRANCH  14   6
ENDBRANCH  12   4
ENDBRANCH   9  12
TORSDOF 7
ENDMDL
MODEL 9
REMARK VINA RESULT:      -4.8      1.610      4.284
REMARK  Name = 75536539
REMARK  7 active torsions:
REMARK  status: ('A' for Active; 'I' for Inactive)
REMARK    1  A    between atoms: O_2  and  C_10
REMARK    2  A    between atoms: N_4  and  C_12
REMARK    3  A    between atoms: N_5  and  C_11
REMARK    4  A    between atoms: N_5  and  C_15
REMARK    5  A    between atoms: C_6  and  C_14
REMARK    6  A    between atoms: C_9  and  C_12
REMARK    7  A    between atoms: C_15  and  C_16
REMARK                            x       y       z     vdW  Elec       q    Type
REMARK                         _______ _______ _______ _____ _____    ______ ____
ROOT
ATOM      1  O   UNL     1      -1.710   2.714  22.934  0.00  0.00    -0.371 OA
ATOM      9  C   UNL     1      -1.059   3.184  24.127  0.00  0.00    +0.165 C 
ATOM     10  C   UNL     1      -1.978   2.812  25.283  0.00  0.00    +0.164 C 
ATOM     11  C   UNL     1      -3.342   2.986  24.639  0.00  0.00    +0.111 C 
ATOM     13  C   UNL     1      -3.088   2.440  23.244  0.00  0.00    +0.181 C 
ENDROOT
BRANCH  10   2
ATOM      2  O   UNL     1      -1.791   3.658  26.399  0.00  0.00    -0.388 OA
ATOM     24  H   UNL     1      -0.881   4.000  26.375  0.00  0.00    +0.210 HD
ENDBRANCH  10   2
BRANCH  11   5
ATOM      5  N   UNL     1      -4.410   2.285  25.335  0.00  0.00    -0.305 NA
ATOM     23  H   UNL     1      -5.117   2.962  25.624  0.00  0.00    +0.123 HD
BRANCH   5  15
ATOM     15  C   UNL     1      -5.033   1.289  24.472  0.00  0.00    +0.116 C 
BRANCH  15  16
ATOM     16  C   UNL     1      -4.503  -0.095  24.741  0.00  0.00    -0.034 A 
ATOM     17  C   UNL     1      -3.928  -0.394  25.976  0.00  0.00    +0.005 A 
ATOM     18  C   UNL     1      -4.588  -1.078  23.754  0.00  0.00    +0.005 A 
ATOM     19  C   UNL     1      -3.436  -1.676  26.225  0.00  0.00    +0.000 A 
ATOM     20  C   UNL     1      -4.097  -2.360  24.003  0.00  0.00    +0.000 A 
ATOM     21  C   UNL     1      -3.521  -2.658  25.238  0.00  0.00    +0.000 A 
ENDBRANCH  15  16
ENDBRANCH   5  15
ENDBRANCH  11   5
BRANCH   9  12
ATOM     12  C   UNL     1       0.323   2.565  24.236  0.00  0.00    +0.138 C 
BRANCH  12   4
ATOM      3  O   UNL     1       1.145   0.360  22.528  0.00  0.00    -0.276 OA
ATOM      4  N   UNL     1       0.244   1.162  24.521  0.00  0.00    -0.313 N 
ATOM     14  C   UNL     1       0.664   0.175  23.640  0.00  0.00    +0.216 C 
ATOM     22  H   UNL     1      -0.125   0.884  25.426  0.00  0.00    +0.149 HD
BRANCH  14   6
ATOM      6  C   UNL     1       0.491  -1.219  24.146  0.00  0.00    +0.075 C 
ATOM      7  C   UNL     1      -0.376  -1.440  25.341  0.00  0.00    +0.013 C 
ATOM      8  C   UNL     1      -0.839  -1.874  23.983  0.00  0.00    +0.013 C 
ENDBRANCH  14   6
ENDBRANCH  12   4
ENDBRANCH   9  12
TORSDOF 7
ENDMDL
MODEL 10
REMARK VINA RESULT:      -4.7     14.841     17.560
REMARK  Name = 75536539
REMARK  7 active torsions:
REMARK  status: ('A' for Active; 'I' for Inactive)
REMARK    1  A    between atoms: O_2  and  C_10
REMARK    2  A    between atoms: N_4  and  C_12
REMARK    3  A    between atoms: N_5  and  C_11
REMARK    4  A    between atoms: N_5  and  C_15
REMARK    5  A    between atoms: C_6  and  C_14
REMARK    6  A    between atoms: C_9  and  C_12
REMARK    7  A    between atoms: C_15  and  C_16
REMARK                            x       y       z     vdW  Elec       q    Type
REMARK                         _______ _______ _______ _____ _____    ______ ____
ROOT
ATOM      1  O   UNL     1      -9.032  -9.973  10.698  0.00  0.00    -0.371 OA
ATOM      9  C   UNL     1      -7.786  -9.265  10.809  0.00  0.00    +0.165 C 
ATOM     10  C   UNL     1      -7.215  -9.629  12.173  0.00  0.00    +0.164 C 
ATOM     11  C   UNL     1      -8.483  -9.749  12.998  0.00  0.00    +0.111 C 
ATOM     13  C   UNL     1      -9.423 -10.417  12.008  0.00  0.00    +0.181 C 
ENDROOT
BRANCH  10   2
ATOM      2  O   UNL     1      -6.339  -8.633  12.661  0.00  0.00    -0.388 OA
ATOM     24  H   UNL     1      -5.545  -8.621  12.099  0.00  0.00    +0.210 HD
ENDBRANCH  10   2
BRANCH  11   5
ATOM      5  N   UNL     1      -8.313 -10.515  14.222  0.00  0.00    -0.305 NA
ATOM     23  H   UNL     1      -7.411 -10.992  14.193  0.00  0.00    +0.123 HD
BRANCH   5  15
ATOM     15  C   UNL     1      -8.352  -9.648  15.394  0.00  0.00    +0.116 C 
BRANCH  15  16
ATOM     16  C   UNL     1      -7.228  -9.947  16.350  0.00  0.00    -0.034 A 
ATOM     17  C   UNL     1      -7.503 -10.200  17.693  0.00  0.00    +0.005 A 
ATOM     18  C   UNL     1      -5.910  -9.972  15.891  0.00  0.00    +0.005 A 
ATOM     19  C   UNL     1      -6.462 -10.476  18.579  0.00  0.00    +0.000 A 
ATOM     20  C   UNL     1      -4.869 -10.249  16.776  0.00  0.00    +0.000 A 
ATOM     21  C   UNL     1      -5.144 -10.501  18.120  0.00  0.00    +0.000 A 
ENDBRANCH  15  16
ENDBRANCH   5  15
ENDBRANCH  11   5
BRANCH   9  12
ATOM     12  C   UNL     1      -6.874  -9.644   9.655  0.00  0.00    +0.138 C 
BRANCH  12   4
ATOM      3  O   UNL     1      -4.188  -8.660   9.130  0.00  0.00    -0.276 OA
ATOM      4  N   UNL     1      -5.634 -10.189  10.129  0.00  0.00    -0.313 N 
ATOM     14  C   UNL     1      -4.393  -9.648   9.825  0.00  0.00    +0.216 C 
ATOM     22  H   UNL     1      -5.677 -11.005  10.732  0.00  0.00    +0.149 HD
BRANCH  14   6
ATOM      6  C   UNL     1      -3.238 -10.376  10.429  0.00  0.00    +0.075 C 
ATOM      7  C   UNL     1      -2.121  -9.577  11.015  0.00  0.00    +0.013 C 
ATOM      8  C   UNL     1      -3.062 -10.326  11.910  0.00  0.00    +0.013 C 
ENDBRANCH  14   6
ENDBRANCH  12   4
ENDBRANCH   9  12
TORSDOF 7
ENDMDL
