MODEL 1
REMARK VINA RESULT:      -0.5      0.000      0.000
REMARK  Name = 25314937
REMARK  4 active torsions:
REMARK  status: ('A' for Active; 'I' for Inactive)
REMARK    1  A    between atoms: O_3  and  C_11
REMARK    2  A    between atoms: N_6  and  C_9
REMARK    3  A    between atoms: N_7  and  C_10
REMARK    4  A    between atoms: N_8  and  C_17
REMARK                            x       y       z     vdW  Elec       q    Type
REMARK                         _______ _______ _______ _____ _____    ______ ____
ROOT
ATOM      1  O   UNL     1      -2.008   2.418  26.140  0.00  0.00    -0.342 OA
ATOM      2  O   UNL     1      -3.769   3.462  25.052  0.00  0.00    -0.347 OA
ATOM      9  C   UNL     1      -3.170   1.210  24.407  0.00  0.00    +0.144 C 
ATOM     10  C   UNL     1      -1.035   2.590  23.940  0.00  0.00    +0.136 C 
ATOM     11  C   UNL     1      -2.188   1.753  23.343  0.00  0.00    +0.159 C 
ATOM     12  C   UNL     1      -1.438   3.353  25.219  0.00  0.00    +0.170 C 
ATOM     13  C   UNL     1      -3.307   2.206  25.574  0.00  0.00    +0.270 C 
ATOM     14  C   UNL     1      -2.606   4.303  25.033  0.00  0.00    +0.196 C 
ENDROOT
BRANCH   9   6
ATOM      4  O   UNL     1      -2.792  -2.922  25.034  0.00  0.00    -0.377 OA
ATOM      6  N   UNL     1      -2.702  -0.080  24.910  0.00  0.00    -0.288 NA
ATOM     15  C   UNL     1      -2.192  -0.913  23.813  0.00  0.00    +0.113 C 
ATOM     16  C   UNL     1      -3.780  -0.785  25.618  0.00  0.00    +0.113 C 
ATOM     18  C   UNL     1      -1.722  -2.259  24.360  0.00  0.00    +0.175 C 
ATOM     19  C   UNL     1      -3.272  -2.132  26.123  0.00  0.00    +0.175 C 
ENDBRANCH   9   6
BRANCH  10   7
ATOM      5  O   UNL     1       0.325   0.880  22.073  0.00  0.00    -0.253 OA
ATOM      7  N   UNL     1       0.105   1.742  24.215  0.00  0.00    -0.291 N 
ATOM      8  N   UNL     1       1.773   0.231  23.766  0.00  0.00    -0.297 N 
ATOM     20  C   UNL     1       0.700   0.944  23.242  0.00  0.00    +0.300 C 
ATOM     26  H   UNL     1       0.436   1.669  25.172  0.00  0.00    +0.151 HD
ATOM     28  H   UNL     1       1.951   0.304  24.763  0.00  0.00    +0.151 HD
BRANCH   8  17
ATOM     17  C   UNL     1       2.578  -0.678  22.981  0.00  0.00    +0.074 C 
ATOM     21  C   UNL     1       3.259   0.051  21.818  0.00  0.00    +0.022 C 
ATOM     22  C   UNL     1       3.604  -1.404  23.858  0.00  0.00    +0.022 C 
ATOM     23  C   UNL     1       4.388   0.970  22.286  0.00  0.00    +0.002 C 
ATOM     24  C   UNL     1       4.732  -0.482  24.323  0.00  0.00    +0.002 C 
ATOM     25  C   UNL     1       5.401   0.224  23.147  0.00  0.00    +0.000 C 
ENDBRANCH   8  17
ENDBRANCH  10   7
BRANCH  11   3
ATOM      3  O   UNL     1      -2.935   2.579  22.440  0.00  0.00    -0.388 OA
ATOM     27  H   UNL     1      -2.384   2.729  21.654  0.00  0.00    +0.210 HD
ENDBRANCH  11   3
TORSDOF 4
ENDMDL
MODEL 2
REMARK VINA RESULT:      -0.2     18.100     19.621
REMARK  Name = 25314937
REMARK  4 active torsions:
REMARK  status: ('A' for Active; 'I' for Inactive)
REMARK    1  A    between atoms: O_3  and  C_11
REMARK    2  A    between atoms: N_6  and  C_9
REMARK    3  A    between atoms: N_7  and  C_10
REMARK    4  A    between atoms: N_8  and  C_17
REMARK                            x       y       z     vdW  Elec       q    Type
REMARK                         _______ _______ _______ _____ _____    ______ ____
ROOT
ATOM      1  O   UNL     1      15.200  -7.526  26.829  0.00  0.00    -0.342 OA
ATOM      2  O   UNL     1      15.494  -9.003  25.065  0.00  0.00    -0.347 OA
ATOM      9  C   UNL     1      15.262  -9.890  27.303  0.00  0.00    +0.144 C 
ATOM     10  C   UNL     1      17.367  -8.396  27.431  0.00  0.00    +0.136 C 
ATOM     11  C   UNL     1      16.793  -9.828  27.509  0.00  0.00    +0.159 C 
ATOM     12  C   UNL     1      16.584  -7.480  26.467  0.00  0.00    +0.170 C 
ATOM     13  C   UNL     1      14.806  -8.804  26.311  0.00  0.00    +0.270 C 
ATOM     14  C   UNL     1      16.514  -7.993  25.041  0.00  0.00    +0.196 C 
ENDROOT
BRANCH   9   6
ATOM      4  O   UNL     1      13.710 -10.636  31.130  0.00  0.00    -0.377 OA
ATOM      6  N   UNL     1      14.575  -9.712  28.581  0.00  0.00    -0.288 NA
ATOM     15  C   UNL     1      15.513  -9.864  29.701  0.00  0.00    +0.113 C 
ATOM     16  C   UNL     1      13.469 -10.669  28.716  0.00  0.00    +0.113 C 
ATOM     18  C   UNL     1      14.772  -9.687  31.025  0.00  0.00    +0.175 C 
ATOM     19  C   UNL     1      12.776 -10.473  30.061  0.00  0.00    +0.175 C 
ENDBRANCH   9   6
BRANCH  10   7
ATOM      5  O   UNL     1      17.268  -5.592  28.057  0.00  0.00    -0.253 OA
ATOM      7  N   UNL     1      17.405  -7.802  28.749  0.00  0.00    -0.291 N 
ATOM      8  N   UNL     1      17.405  -6.122  30.313  0.00  0.00    -0.297 N 
ATOM     20  C   UNL     1      17.352  -6.427  28.956  0.00  0.00    +0.300 C 
ATOM     26  H   UNL     1      17.553  -8.408  29.550  0.00  0.00    +0.151 HD
ATOM     28  H   UNL     1      17.547  -6.885  30.966  0.00  0.00    +0.151 HD
BRANCH   8  17
ATOM     17  C   UNL     1      17.367  -4.769  30.821  0.00  0.00    +0.074 C 
ATOM     21  C   UNL     1      16.208  -3.979  30.203  0.00  0.00    +0.022 C 
ATOM     22  C   UNL     1      17.291  -4.758  32.352  0.00  0.00    +0.022 C 
ATOM     23  C   UNL     1      14.846  -4.433  30.728  0.00  0.00    +0.002 C 
ATOM     24  C   UNL     1      15.927  -5.210  32.873  0.00  0.00    +0.002 C 
ATOM     25  C   UNL     1      14.791  -4.403  32.252  0.00  0.00    +0.000 C 
ENDBRANCH   8  17
ENDBRANCH  10   7
BRANCH  11   3
ATOM      3  O   UNL     1      17.404 -10.625  26.486  0.00  0.00    -0.388 OA
ATOM     27  H   UNL     1      16.975 -11.497  26.495  0.00  0.00    +0.210 HD
ENDBRANCH  11   3
TORSDOF 4
ENDMDL
MODEL 3
REMARK VINA RESULT:      -0.1      1.637      3.877
REMARK  Name = 25314937
REMARK  4 active torsions:
REMARK  status: ('A' for Active; 'I' for Inactive)
REMARK    1  A    between atoms: O_3  and  C_11
REMARK    2  A    between atoms: N_6  and  C_9
REMARK    3  A    between atoms: N_7  and  C_10
REMARK    4  A    between atoms: N_8  and  C_17
REMARK                            x       y       z     vdW  Elec       q    Type
REMARK                         _______ _______ _______ _____ _____    ______ ____
ROOT
ATOM      1  O   UNL     1      -2.680  -0.312  23.219  0.00  0.00    -0.342 OA
ATOM      2  O   UNL     1      -4.350  -1.328  24.466  0.00  0.00    -0.347 OA
ATOM      9  C   UNL     1      -3.334   0.698  25.309  0.00  0.00    +0.144 C 
ATOM     10  C   UNL     1      -1.366  -0.969  25.132  0.00  0.00    +0.136 C 
ATOM     11  C   UNL     1      -2.266  -0.127  26.064  0.00  0.00    +0.159 C 
ATOM     12  C   UNL     1      -2.094  -1.450  23.860  0.00  0.00    +0.170 C 
ATOM     13  C   UNL     1      -3.815  -0.059  24.057  0.00  0.00    +0.270 C 
ATOM     14  C   UNL     1      -3.332  -2.283  24.129  0.00  0.00    +0.196 C 
ENDROOT
BRANCH   9   6
ATOM      4  O   UNL     1      -2.112   4.710  25.453  0.00  0.00    -0.377 OA
ATOM      6  N   UNL     1      -2.785   1.996  24.922  0.00  0.00    -0.288 NA
ATOM     15  C   UNL     1      -1.640   2.351  25.770  0.00  0.00    +0.113 C 
ATOM     16  C   UNL     1      -3.814   3.041  25.002  0.00  0.00    +0.113 C 
ATOM     18  C   UNL     1      -1.092   3.715  25.356  0.00  0.00    +0.175 C 
ATOM     19  C   UNL     1      -3.217   4.388  24.606  0.00  0.00    +0.175 C 
ENDBRANCH   9   6
BRANCH  10   7
ATOM      5  O   UNL     1       0.403  -1.508  22.932  0.00  0.00    -0.253 OA
ATOM      7  N   UNL     1      -0.185  -0.218  24.767  0.00  0.00    -0.291 N 
ATOM      8  N   UNL     1       1.683   0.327  23.550  0.00  0.00    -0.297 N 
ATOM     20  C   UNL     1       0.614  -0.555  23.680  0.00  0.00    +0.300 C 
ATOM     26  H   UNL     1       0.114   0.540  25.373  0.00  0.00    +0.151 HD
ATOM     28  H   UNL     1       1.803   1.036  24.266  0.00  0.00    +0.151 HD
BRANCH   8  17
ATOM     17  C   UNL     1       2.676   0.218  22.506  0.00  0.00    +0.074 C 
ATOM     21  C   UNL     1       3.741   1.312  22.640  0.00  0.00    +0.022 C 
ATOM     22  C   UNL     1       3.312  -1.177  22.493  0.00  0.00    +0.022 C 
ATOM     23  C   UNL     1       4.671   1.080  23.831  0.00  0.00    +0.002 C 
ATOM     24  C   UNL     1       4.243  -1.405  23.685  0.00  0.00    +0.002 C 
ATOM     25  C   UNL     1       5.300  -0.310  23.791  0.00  0.00    +0.000 C 
ENDBRANCH   8  17
ENDBRANCH  10   7
BRANCH  11   3
ATOM      3  O   UNL     1      -2.950  -1.009  26.964  0.00  0.00    -0.388 OA
ATOM     27  H   UNL     1      -2.289  -1.611  27.346  0.00  0.00    +0.210 HD
ENDBRANCH  11   3
TORSDOF 4
ENDMDL
MODEL 4
REMARK VINA RESULT:       1.0      3.078      4.593
REMARK  Name = 25314937
REMARK  4 active torsions:
REMARK  status: ('A' for Active; 'I' for Inactive)
REMARK    1  A    between atoms: O_3  and  C_11
REMARK    2  A    between atoms: N_6  and  C_9
REMARK    3  A    between atoms: N_7  and  C_10
REMARK    4  A    between atoms: N_8  and  C_17
REMARK                            x       y       z     vdW  Elec       q    Type
REMARK                         _______ _______ _______ _____ _____    ______ ____
ROOT
ATOM      1  O   UNL     1      -1.665   3.939  26.374  0.00  0.00    -0.342 OA
ATOM      2  O   UNL     1      -1.552   5.516  24.678  0.00  0.00    -0.347 OA
ATOM      9  C   UNL     1      -2.976   3.584  24.381  0.00  0.00    +0.144 C 
ATOM     10  C   UNL     1      -0.610   2.586  24.680  0.00  0.00    +0.136 C 
ATOM     11  C   UNL     1      -1.812   2.800  23.732  0.00  0.00    +0.159 C 
ATOM     12  C   UNL     1      -0.423   3.736  25.691  0.00  0.00    +0.170 C 
ATOM     13  C   UNL     1      -2.435   4.625  25.379  0.00  0.00    +0.270 C 
ATOM     14  C   UNL     1      -0.232   5.099  25.055  0.00  0.00    +0.196 C 
ENDROOT
BRANCH   9   6
ATOM      4  O   UNL     1      -6.341   1.255  25.309  0.00  0.00    -0.377 OA
ATOM      6  N   UNL     1      -3.880   2.663  25.068  0.00  0.00    -0.288 NA
ATOM     15  C   UNL     1      -4.188   1.505  24.219  0.00  0.00    +0.113 C 
ATOM     16  C   UNL     1      -5.121   3.346  25.458  0.00  0.00    +0.113 C 
ATOM     18  C   UNL     1      -5.143   0.566  24.951  0.00  0.00    +0.175 C 
ATOM     19  C   UNL     1      -6.053   2.365  26.162  0.00  0.00    +0.175 C 
ENDBRANCH   9   6
BRANCH  10   7
ATOM      5  O   UNL     1      -0.797  -0.031  23.506  0.00  0.00    -0.253 OA
ATOM      7  N   UNL     1      -0.748   1.330  25.384  0.00  0.00    -0.291 N 
ATOM      8  N   UNL     1      -0.959  -0.942  25.635  0.00  0.00    -0.297 N 
ATOM     20  C   UNL     1      -0.831   0.106  24.728  0.00  0.00    +0.300 C 
ATOM     26  H   UNL     1      -0.865   1.350  26.392  0.00  0.00    +0.151 HD
ATOM     28  H   UNL     1      -1.050  -0.710  26.619  0.00  0.00    +0.151 HD
BRANCH   8  17
ATOM     17  C   UNL     1      -1.065  -2.327  25.235  0.00  0.00    +0.074 C 
ATOM     21  C   UNL     1      -2.066  -3.081  26.117  0.00  0.00    +0.022 C 
ATOM     22  C   UNL     1      -1.434  -2.445  23.751  0.00  0.00    +0.022 C 
ATOM     23  C   UNL     1      -3.513  -2.677  25.837  0.00  0.00    +0.002 C 
ATOM     24  C   UNL     1      -2.883  -2.041  23.476  0.00  0.00    +0.002 C 
ATOM     25  C   UNL     1      -3.859  -2.813  24.358  0.00  0.00    +0.000 C 
ENDBRANCH   8  17
ENDBRANCH  10   7
BRANCH  11   3
ATOM      3  O   UNL     1      -1.369   3.542  22.588  0.00  0.00    -0.388 OA
ATOM     27  H   UNL     1      -1.895   4.358  22.544  0.00  0.00    +0.210 HD
ENDBRANCH  11   3
TORSDOF 4
ENDMDL
MODEL 5
REMARK VINA RESULT:       1.1      2.700      6.226
REMARK  Name = 25314937
REMARK  4 active torsions:
REMARK  status: ('A' for Active; 'I' for Inactive)
REMARK    1  A    between atoms: O_3  and  C_11
REMARK    2  A    between atoms: N_6  and  C_9
REMARK    3  A    between atoms: N_7  and  C_10
REMARK    4  A    between atoms: N_8  and  C_17
REMARK                            x       y       z     vdW  Elec       q    Type
REMARK                         _______ _______ _______ _____ _____    ______ ____
ROOT
ATOM      1  O   UNL     1      -2.247  -1.501  26.084  0.00  0.00    -0.342 OA
ATOM      2  O   UNL     1      -2.143  -3.107  24.414  0.00  0.00    -0.347 OA
ATOM      9  C   UNL     1      -1.888  -0.779  23.811  0.00  0.00    +0.144 C 
ATOM     10  C   UNL     1      -4.243  -0.904  24.869  0.00  0.00    +0.136 C 
ATOM     11  C   UNL     1      -3.413  -0.647  23.591  0.00  0.00    +0.159 C 
ATOM     12  C   UNL     1      -3.590  -1.926  25.822  0.00  0.00    +0.170 C 
ATOM     13  C   UNL     1      -1.586  -1.862  24.864  0.00  0.00    +0.270 C 
ATOM     14  C   UNL     1      -3.333  -3.283  25.197  0.00  0.00    +0.196 C 
ENDROOT
BRANCH   9   6
ATOM      4  O   UNL     1       0.749   2.105  25.340  0.00  0.00    -0.377 OA
ATOM      6  N   UNL     1      -1.331   0.501  24.243  0.00  0.00    -0.288 NA
ATOM     15  C   UNL     1      -0.127   0.833  23.469  0.00  0.00    +0.113 C 
ATOM     16  C   UNL     1      -1.014   0.474  25.678  0.00  0.00    +0.113 C 
ATOM     18  C   UNL     1       0.444   2.166  23.946  0.00  0.00    +0.175 C 
ATOM     19  C   UNL     1      -0.423   1.814  26.103  0.00  0.00    +0.175 C 
ENDBRANCH   9   6
BRANCH  10   7
ATOM      5  O   UNL     1      -4.230   1.736  23.734  0.00  0.00    -0.253 OA
ATOM      7  N   UNL     1      -4.477   0.340  25.569  0.00  0.00    -0.291 N 
ATOM      8  N   UNL     1      -4.706   2.609  25.831  0.00  0.00    -0.297 N 
ATOM     20  C   UNL     1      -4.451   1.577  24.933  0.00  0.00    +0.300 C 
ATOM     26  H   UNL     1      -4.591   0.315  26.578  0.00  0.00    +0.151 HD
ATOM     28  H   UNL     1      -4.803   2.371  26.813  0.00  0.00    +0.151 HD
BRANCH   8  17
ATOM     17  C   UNL     1      -4.742   4.002  25.446  0.00  0.00    +0.074 C 
ATOM     21  C   UNL     1      -4.056   4.882  26.496  0.00  0.00    +0.022 C 
ATOM     22  C   UNL     1      -4.122   4.207  24.059  0.00  0.00    +0.022 C 
ATOM     23  C   UNL     1      -2.537   4.711  26.501  0.00  0.00    +0.002 C 
ATOM     24  C   UNL     1      -2.602   4.037  24.068  0.00  0.00    +0.002 C 
ATOM     25  C   UNL     1      -1.942   4.930  25.113  0.00  0.00    +0.000 C 
ENDBRANCH   8  17
ENDBRANCH  10   7
BRANCH  11   3
ATOM      3  O   UNL     1      -3.796  -1.604  22.595  0.00  0.00    -0.388 OA
ATOM     27  H   UNL     1      -3.369  -1.347  21.760  0.00  0.00    +0.210 HD
ENDBRANCH  11   3
TORSDOF 4
ENDMDL
MODEL 6
REMARK VINA RESULT:       1.5     16.767     19.259
REMARK  Name = 25314937
REMARK  4 active torsions:
REMARK  status: ('A' for Active; 'I' for Inactive)
REMARK    1  A    between atoms: O_3  and  C_11
REMARK    2  A    between atoms: N_6  and  C_9
REMARK    3  A    between atoms: N_7  and  C_10
REMARK    4  A    between atoms: N_8  and  C_17
REMARK                            x       y       z     vdW  Elec       q    Type
REMARK                         _______ _______ _______ _____ _____    ______ ____
ROOT
ATOM      1  O   UNL     1      17.074  -8.690  28.305  0.00  0.00    -0.342 OA
ATOM      2  O   UNL     1      16.812 -10.092  26.477  0.00  0.00    -0.347 OA
ATOM      9  C   UNL     1      16.681  -7.700  26.142  0.00  0.00    +0.144 C 
ATOM     10  C   UNL     1      14.765  -8.212  27.800  0.00  0.00    +0.136 C 
ATOM     11  C   UNL     1      15.154  -7.729  26.384  0.00  0.00    +0.159 C 
ATOM     12  C   UNL     1      15.755  -9.241  28.383  0.00  0.00    +0.170 C 
ATOM     13  C   UNL     1      17.372  -8.842  26.912  0.00  0.00    +0.270 C 
ATOM     14  C   UNL     1      15.927 -10.487  27.536  0.00  0.00    +0.196 C 
ENDROOT
BRANCH   9   6
ATOM      4  O   UNL     1      16.966  -3.718  27.436  0.00  0.00    -0.377 OA
ATOM      6  N   UNL     1      17.233  -6.414  26.564  0.00  0.00    -0.288 NA
ATOM     15  C   UNL     1      16.807  -6.089  27.932  0.00  0.00    +0.113 C 
ATOM     16  C   UNL     1      16.827  -5.345  25.642  0.00  0.00    +0.113 C 
ATOM     18  C   UNL     1      17.384  -4.737  28.346  0.00  0.00    +0.175 C 
ATOM     19  C   UNL     1      17.405  -4.012  26.109  0.00  0.00    +0.175 C 
ENDBRANCH   9   6
BRANCH  10   7
ATOM      5  O   UNL     1      14.315  -8.309  30.636  0.00  0.00    -0.253 OA
ATOM      7  N   UNL     1      14.646  -7.083  28.696  0.00  0.00    -0.291 N 
ATOM      8  N   UNL     1      14.353  -5.989  30.693  0.00  0.00    -0.297 N 
ATOM     20  C   UNL     1      14.428  -7.228  30.062  0.00  0.00    +0.300 C 
ATOM     26  H   UNL     1      14.647  -6.147  28.301  0.00  0.00    +0.151 HD
ATOM     28  H   UNL     1      14.387  -5.158  30.112  0.00  0.00    +0.151 HD
BRANCH   8  17
ATOM     17  C   UNL     1      14.133  -5.836  32.113  0.00  0.00    +0.074 C 
ATOM     21  C   UNL     1      13.520  -4.469  32.433  0.00  0.00    +0.022 C 
ATOM     22  C   UNL     1      13.267  -6.975  32.662  0.00  0.00    +0.022 C 
ATOM     23  C   UNL     1      12.061  -4.364  31.988  0.00  0.00    +0.002 C 
ATOM     24  C   UNL     1      11.808  -6.866  32.217  0.00  0.00    +0.002 C 
ATOM     25  C   UNL     1      11.217  -5.501  32.555  0.00  0.00    +0.000 C 
ENDBRANCH   8  17
ENDBRANCH  10   7
BRANCH  11   3
ATOM      3  O   UNL     1      14.575  -8.617  25.419  0.00  0.00    -0.388 OA
ATOM     27  H   UNL     1      15.213  -8.720  24.694  0.00  0.00    +0.210 HD
ENDBRANCH  11   3
TORSDOF 4
ENDMDL
MODEL 7
REMARK VINA RESULT:       2.4      3.001      5.301
REMARK  Name = 25314937
REMARK  4 active torsions:
REMARK  status: ('A' for Active; 'I' for Inactive)
REMARK    1  A    between atoms: O_3  and  C_11
REMARK    2  A    between atoms: N_6  and  C_9
REMARK    3  A    between atoms: N_7  and  C_10
REMARK    4  A    between atoms: N_8  and  C_17
REMARK                            x       y       z     vdW  Elec       q    Type
REMARK                         _______ _______ _______ _____ _____    ______ ____
ROOT
ATOM      1  O   UNL     1      -3.557  -1.142  23.130  0.00  0.00    -0.342 OA
ATOM      2  O   UNL     1      -4.660  -2.715  24.430  0.00  0.00    -0.347 OA
ATOM      9  C   UNL     1      -4.153  -0.555  25.392  0.00  0.00    +0.144 C 
ATOM     10  C   UNL     1      -1.840  -1.532  24.778  0.00  0.00    +0.136 C 
ATOM     11  C   UNL     1      -2.793  -1.080  25.907  0.00  0.00    +0.159 C 
ATOM     12  C   UNL     1      -2.581  -2.101  23.551  0.00  0.00    +0.170 C 
ATOM     13  C   UNL     1      -4.579  -1.314  24.121  0.00  0.00    +0.270 C 
ATOM     14  C   UNL     1      -3.474  -3.287  23.859  0.00  0.00    +0.196 C 
ENDROOT
BRANCH   9   6
ATOM      4  O   UNL     1      -4.978   3.259  23.847  0.00  0.00    -0.377 OA
ATOM      6  N   UNL     1      -4.064   0.876  25.106  0.00  0.00    -0.288 NA
ATOM     15  C   UNL     1      -5.269   1.576  25.571  0.00  0.00    +0.113 C 
ATOM     16  C   UNL     1      -3.868   1.110  23.669  0.00  0.00    +0.113 C 
ATOM     18  C   UNL     1      -5.159   3.065  25.251  0.00  0.00    +0.175 C 
ATOM     19  C   UNL     1      -3.790   2.608  23.394  0.00  0.00    +0.175 C 
ENDBRANCH   9   6
BRANCH  10   7
ATOM      5  O   UNL     1      -1.124   0.760  26.357  0.00  0.00    -0.253 OA
ATOM      7  N   UNL     1      -0.992  -0.432  24.372  0.00  0.00    -0.291 N 
ATOM      8  N   UNL     1       0.135   1.557  24.577  0.00  0.00    -0.297 N 
ATOM     20  C   UNL     1      -0.700   0.640  25.209  0.00  0.00    +0.300 C 
ATOM     26  H   UNL     1      -0.659  -0.405  23.413  0.00  0.00    +0.151 HD
ATOM     28  H   UNL     1       0.367   1.395  23.603  0.00  0.00    +0.151 HD
BRANCH   8  17
ATOM     17  C   UNL     1       0.603   2.769  25.211  0.00  0.00    +0.074 C 
ATOM     21  C   UNL     1       0.516   3.962  24.253  0.00  0.00    +0.022 C 
ATOM     22  C   UNL     1      -0.165   3.043  26.510  0.00  0.00    +0.022 C 
ATOM     23  C   UNL     1      -0.925   4.406  24.001  0.00  0.00    +0.002 C 
ATOM     24  C   UNL     1      -1.605   3.490  26.254  0.00  0.00    +0.002 C 
ATOM     25  C   UNL     1      -1.664   4.684  25.307  0.00  0.00    +0.000 C 
ENDBRANCH   8  17
ENDBRANCH  10   7
BRANCH  11   3
ATOM      3  O   UNL     1      -3.053  -2.199  26.765  0.00  0.00    -0.388 OA
ATOM     27  H   UNL     1      -3.581  -1.878  27.516  0.00  0.00    +0.210 HD
ENDBRANCH  11   3
TORSDOF 4
ENDMDL
MODEL 8
REMARK VINA RESULT:       2.5      2.069      6.202
REMARK  Name = 25314937
REMARK  4 active torsions:
REMARK  status: ('A' for Active; 'I' for Inactive)
REMARK    1  A    between atoms: O_3  and  C_11
REMARK    2  A    between atoms: N_6  and  C_9
REMARK    3  A    between atoms: N_7  and  C_10
REMARK    4  A    between atoms: N_8  and  C_17
REMARK                            x       y       z     vdW  Elec       q    Type
REMARK                         _______ _______ _______ _____ _____    ______ ____
ROOT
ATOM      1  O   UNL     1      -0.034   0.114  22.602  0.00  0.00    -0.342 OA
ATOM      2  O   UNL     1       1.882   0.059  23.908  0.00  0.00    -0.347 OA
ATOM      9  C   UNL     1      -0.264  -0.279  24.970  0.00  0.00    +0.144 C 
ATOM     10  C   UNL     1      -0.437   2.083  23.934  0.00  0.00    +0.136 C 
ATOM     11  C   UNL     1      -0.399   1.240  25.229  0.00  0.00    +0.159 C 
ATOM     12  C   UNL     1       0.390   1.469  22.786  0.00  0.00    +0.170 C 
ATOM     13  C   UNL     1       0.590  -0.540  23.715  0.00  0.00    +0.270 C 
ATOM     14  C   UNL     1       1.854   1.257  23.118  0.00  0.00    +0.196 C 
ENDROOT
BRANCH   9   6
ATOM      4  O   UNL     1      -3.661  -2.667  25.575  0.00  0.00    -0.377 OA
ATOM      6  N   UNL     1      -1.586  -0.879  24.802  0.00  0.00    -0.288 NA
ATOM     15  C   UNL     1      -2.431  -0.614  25.974  0.00  0.00    +0.113 C 
ATOM     16  C   UNL     1      -1.476  -2.327  24.578  0.00  0.00    +0.113 C 
ATOM     18  C   UNL     1      -3.801  -1.261  25.782  0.00  0.00    +0.175 C 
ATOM     19  C   UNL     1      -2.867  -2.933  24.418  0.00  0.00    +0.175 C 
ENDBRANCH   9   6
BRANCH  10   7
ATOM      5  O   UNL     1      -2.540   3.360  25.420  0.00  0.00    -0.253 OA
ATOM      7  N   UNL     1      -1.805   2.276  23.505  0.00  0.00    -0.291 N 
ATOM      8  N   UNL     1      -3.989   2.964  23.651  0.00  0.00    -0.297 N 
ATOM     20  C   UNL     1      -2.758   2.909  24.297  0.00  0.00    +0.300 C 
ATOM     26  H   UNL     1      -2.099   1.867  22.624  0.00  0.00    +0.151 HD
ATOM     28  H   UNL     1      -4.077   2.496  22.755  0.00  0.00    +0.151 HD
BRANCH   8  17
ATOM     17  C   UNL     1      -5.165   3.568  24.238  0.00  0.00    +0.074 C 
ATOM     21  C   UNL     1      -6.376   2.635  24.131  0.00  0.00    +0.022 C 
ATOM     22  C   UNL     1      -4.906   3.977  25.692  0.00  0.00    +0.022 C 
ATOM     23  C   UNL     1      -6.274   1.434  25.071  0.00  0.00    +0.002 C 
ATOM     24  C   UNL     1      -4.806   2.773  26.629  0.00  0.00    +0.002 C 
ATOM     25  C   UNL     1      -6.027   1.866  26.513  0.00  0.00    +0.000 C 
ENDBRANCH   8  17
ENDBRANCH  10   7
BRANCH  11   3
ATOM      3  O   UNL     1       0.728   1.652  26.013  0.00  0.00    -0.388 OA
ATOM     27  H   UNL     1       1.341   0.899  26.066  0.00  0.00    +0.210 HD
ENDBRANCH  11   3
TORSDOF 4
ENDMDL
MODEL 9
REMARK VINA RESULT:       2.6      2.450      5.180
REMARK  Name = 25314937
REMARK  4 active torsions:
REMARK  status: ('A' for Active; 'I' for Inactive)
REMARK    1  A    between atoms: O_3  and  C_11
REMARK    2  A    between atoms: N_6  and  C_9
REMARK    3  A    between atoms: N_7  and  C_10
REMARK    4  A    between atoms: N_8  and  C_17
REMARK                            x       y       z     vdW  Elec       q    Type
REMARK                         _______ _______ _______ _____ _____    ______ ____
ROOT
ATOM      1  O   UNL     1      -1.134   4.039  23.544  0.00  0.00    -0.342 OA
ATOM      2  O   UNL     1      -1.216   5.701  25.159  0.00  0.00    -0.347 OA
ATOM      9  C   UNL     1      -0.842   3.415  25.854  0.00  0.00    +0.144 C 
ATOM     10  C   UNL     1      -3.145   3.350  24.683  0.00  0.00    +0.136 C 
ATOM     11  C   UNL     1      -2.364   3.190  26.007  0.00  0.00    +0.159 C 
ATOM     12  C   UNL     1      -2.512   4.381  23.726  0.00  0.00    +0.170 C 
ATOM     13  C   UNL     1      -0.558   4.481  24.779  0.00  0.00    +0.270 C 
ATOM     14  C   UNL     1      -2.375   5.772  24.314  0.00  0.00    +0.196 C 
ENDROOT
BRANCH   9   6
ATOM      4  O   UNL     1       0.053  -0.209  23.937  0.00  0.00    -0.377 OA
ATOM      6  N   UNL     1      -0.182   2.162  25.494  0.00  0.00    -0.288 NA
ATOM     15  C   UNL     1       0.286   2.201  24.102  0.00  0.00    +0.113 C 
ATOM     16  C   UNL     1      -1.087   1.021  25.690  0.00  0.00    +0.113 C 
ATOM     18  C   UNL     1       0.959   0.878  23.745  0.00  0.00    +0.175 C 
ATOM     19  C   UNL     1      -0.381  -0.273  25.297  0.00  0.00    +0.175 C 
ENDBRANCH   9   6
BRANCH  10   7
ATOM      5  O   UNL     1      -4.526   1.025  25.657  0.00  0.00    -0.253 OA
ATOM      7  N   UNL     1      -3.263   2.071  24.017  0.00  0.00    -0.291 N 
ATOM      8  N   UNL     1      -3.916  -0.110  23.727  0.00  0.00    -0.297 N 
ATOM     20  C   UNL     1      -3.955   0.998  24.568  0.00  0.00    +0.300 C 
ATOM     26  H   UNL     1      -2.757   1.928  23.148  0.00  0.00    +0.151 HD
ATOM     28  H   UNL     1      -3.355  -0.047  22.884  0.00  0.00    +0.151 HD
BRANCH   8  17
ATOM     17  C   UNL     1      -4.554  -1.368  24.045  0.00  0.00    +0.074 C 
ATOM     21  C   UNL     1      -3.946  -2.516  23.231  0.00  0.00    +0.022 C 
ATOM     22  C   UNL     1      -4.484  -1.657  25.549  0.00  0.00    +0.022 C 
ATOM     23  C   UNL     1      -2.536  -2.879  23.695  0.00  0.00    +0.002 C 
ATOM     24  C   UNL     1      -3.072  -2.021  26.009  0.00  0.00    +0.002 C 
ATOM     25  C   UNL     1      -2.494  -3.172  25.192  0.00  0.00    +0.000 C 
ENDBRANCH   8  17
ENDBRANCH  10   7
BRANCH  11   3
ATOM      3  O   UNL     1      -2.856   4.151  26.950  0.00  0.00    -0.388 OA
ATOM     27  H   UNL     1      -3.590   3.738  27.436  0.00  0.00    +0.210 HD
ENDBRANCH  11   3
TORSDOF 4
ENDMDL
MODEL 10
REMARK VINA RESULT:       3.1     18.102     19.520
REMARK  Name = 25314937
REMARK  4 active torsions:
REMARK  status: ('A' for Active; 'I' for Inactive)
REMARK    1  A    between atoms: O_3  and  C_11
REMARK    2  A    between atoms: N_6  and  C_9
REMARK    3  A    between atoms: N_7  and  C_10
REMARK    4  A    between atoms: N_8  and  C_17
REMARK                            x       y       z     vdW  Elec       q    Type
REMARK                         _______ _______ _______ _____ _____    ______ ____
ROOT
ATOM      1  O   UNL     1      15.032  -6.727  28.505  0.00  0.00    -0.342 OA
ATOM      2  O   UNL     1      15.282  -7.899  26.520  0.00  0.00    -0.347 OA
ATOM      9  C   UNL     1      15.285  -9.122  28.606  0.00  0.00    +0.144 C 
ATOM     10  C   UNL     1      17.292  -7.507  28.819  0.00  0.00    +0.136 C 
ATOM     11  C   UNL     1      16.820  -8.975  28.715  0.00  0.00    +0.159 C 
ATOM     12  C   UNL     1      16.377  -6.522  28.062  0.00  0.00    +0.170 C 
ATOM     13  C   UNL     1      14.683  -7.939  27.825  0.00  0.00    +0.270 C 
ATOM     14  C   UNL     1      16.229  -6.822  26.583  0.00  0.00    +0.196 C 
ENDROOT
BRANCH   9   6
ATOM      4  O   UNL     1      13.581 -10.614  32.139  0.00  0.00    -0.377 OA
ATOM      6  N   UNL     1      14.690  -9.189  29.940  0.00  0.00    -0.288 NA
ATOM     15  C   UNL     1      15.534  -9.978  30.847  0.00  0.00    +0.113 C 
ATOM     16  C   UNL     1      13.340  -9.763  29.880  0.00  0.00    +0.113 C 
ATOM     18  C   UNL     1      14.887 -10.044  32.229  0.00  0.00    +0.175 C 
ATOM     19  C   UNL     1      12.745  -9.833  31.283  0.00  0.00    +0.175 C 
ENDBRANCH   9   6
BRANCH  10   7
ATOM      5  O   UNL     1      16.040  -5.236  30.059  0.00  0.00    -0.253 OA
ATOM      7  N   UNL     1      17.394  -7.114  30.207  0.00  0.00    -0.291 N 
ATOM      8  N   UNL     1      17.012  -5.841  32.079  0.00  0.00    -0.297 N 
ATOM     20  C   UNL     1      16.749  -5.993  30.721  0.00  0.00    +0.300 C 
ATOM     26  H   UNL     1      18.021  -7.634  30.814  0.00  0.00    +0.151 HD
ATOM     28  H   UNL     1      17.670  -6.483  32.510  0.00  0.00    +0.151 HD
BRANCH   8  17
ATOM     17  C   UNL     1      16.471  -4.761  32.873  0.00  0.00    +0.074 C 
ATOM     21  C   UNL     1      17.404  -3.545  32.859  0.00  0.00    +0.022 C 
ATOM     22  C   UNL     1      15.061  -4.385  32.405  0.00  0.00    +0.022 C 
ATOM     23  C   UNL     1      17.405  -2.825  31.511  0.00  0.00    +0.002 C 
ATOM     24  C   UNL     1      15.066  -3.663  31.057  0.00  0.00    +0.002 C 
ATOM     25  C   UNL     1      15.993  -2.451  31.071  0.00  0.00    +0.000 C 
ENDBRANCH   8  17
ENDBRANCH  10   7
BRANCH  11   3
ATOM      3  O   UNL     1      17.400  -9.563  27.543  0.00  0.00    -0.388 OA
ATOM     27  H   UNL     1      17.307  -8.924  26.816  0.00  0.00    +0.210 HD
ENDBRANCH  11   3
TORSDOF 4
ENDMDL
