MODEL 1
REMARK VINA RESULT:      -3.2      0.000      0.000
REMARK  Name = 26743812
REMARK  6 active torsions:
REMARK  status: ('A' for Active; 'I' for Inactive)
REMARK    1  A    between atoms: O_2  and  C_11
REMARK    2  A    between atoms: N_4  and  C_13
REMARK    3  A    between atoms: C_9  and  C_14
REMARK    4  A    between atoms: C_13  and  C_15
REMARK    5  A    between atoms: C_16  and  C_17
REMARK    6  A    between atoms: C_24  and  C_25
REMARK                            x       y       z     vdW  Elec       q    Type
REMARK                         _______ _______ _______ _____ _____    ______ ____
ROOT
ATOM      4  N   UNL     1      -3.046   1.566  24.753  0.00  0.00    -0.282 NA
ATOM      9  C   UNL     1      -1.992   2.204  23.939  0.00  0.00    +0.149 C 
ATOM     10  C   UNL     1      -1.640   3.499  24.694  0.00  0.00    +0.061 C 
ATOM     11  C   UNL     1      -2.579   3.524  25.893  0.00  0.00    +0.130 C 
ATOM     12  C   UNL     1      -3.737   2.646  25.456  0.00  0.00    +0.117 C 
ENDROOT
BRANCH   9  14
ATOM      3  O   UNL     1      -1.054  -0.012  23.512  0.00  0.00    -0.336 OA
ATOM      5  N   UNL     1       0.482   1.605  23.724  0.00  0.00    -0.190 NA
ATOM      8  N   UNL     1       0.191  -0.633  23.350  0.00  0.00    -0.056 NA
ATOM     14  C   UNL     1      -0.793   1.303  23.729  0.00  0.00    +0.245 A 
ATOM     16  C   UNL     1       1.045   0.385  23.488  0.00  0.00    +0.202 A 
BRANCH  16  17
ATOM      1  F   UNL     1       4.991  -2.317  24.047  0.00  0.00    -0.205 F 
ATOM     17  C   UNL     1       2.467   0.218  23.396  0.00  0.00    +0.025 A 
ATOM     20  C   UNL     1       3.054  -0.991  23.773  0.00  0.00    +0.050 A 
ATOM     21  C   UNL     1       3.263   1.264  22.930  0.00  0.00    +0.012 A 
ATOM     22  C   UNL     1       4.436  -1.152  23.683  0.00  0.00    +0.127 A 
ATOM     23  C   UNL     1       4.645   1.102  22.839  0.00  0.00    +0.007 A 
ATOM     24  C   UNL     1       5.232  -0.106  23.215  0.00  0.00    -0.015 A 
ATOM     25  C   UNL     1       6.711  -0.276  23.118  0.00  0.00    +0.047 C 
ENDBRANCH  16  17
ENDBRANCH   9  14
BRANCH  11   2
ATOM      2  O   UNL     1      -2.999   4.845  26.175  0.00  0.00    -0.390 OA
ATOM     26  H   UNL     1      -2.971   4.960  27.140  0.00  0.00    +0.210 HD
ENDBRANCH  11   2
BRANCH   4  13
ATOM     13  C   UNL     1      -3.963   0.748  23.969  0.00  0.00    +0.159 C 
BRANCH  13  15
ATOM      6  N   UNL     1      -3.160  -1.133  25.416  0.00  0.00    -0.347 N 
ATOM      7  N   UNL     1      -4.327  -1.724  23.623  0.00  0.00    -0.239 NA
ATOM     15  C   UNL     1      -3.837  -0.714  24.306  0.00  0.00    +0.121 A 
ATOM     18  C   UNL     1      -3.222  -2.498  25.444  0.00  0.00    +0.104 A 
ATOM     19  C   UNL     1      -3.949  -2.839  24.328  0.00  0.00    +0.130 A 
ATOM     27  H   UNL     1      -2.695  -0.542  26.094  0.00  0.00    +0.167 HD
ENDBRANCH  13  15
ENDBRANCH   4  13
TORSDOF 5
ENDMDL
MODEL 2
REMARK VINA RESULT:      -2.6      1.829      2.606
REMARK  Name = 26743812
REMARK  6 active torsions:
REMARK  status: ('A' for Active; 'I' for Inactive)
REMARK    1  A    between atoms: O_2  and  C_11
REMARK    2  A    between atoms: N_4  and  C_13
REMARK    3  A    between atoms: C_9  and  C_14
REMARK    4  A    between atoms: C_13  and  C_15
REMARK    5  A    between atoms: C_16  and  C_17
REMARK    6  A    between atoms: C_24  and  C_25
REMARK                            x       y       z     vdW  Elec       q    Type
REMARK                         _______ _______ _______ _____ _____    ______ ____
ROOT
ATOM      4  N   UNL     1      -4.720   1.642  24.986  0.00  0.00    -0.282 NA
ATOM      9  C   UNL     1      -4.048   2.641  24.130  0.00  0.00    +0.149 C 
ATOM     10  C   UNL     1      -4.506   4.003  24.682  0.00  0.00    +0.061 C 
ATOM     11  C   UNL     1      -5.468   3.667  25.815  0.00  0.00    +0.130 C 
ATOM     12  C   UNL     1      -5.947   2.269  25.470  0.00  0.00    +0.117 C 
ENDROOT
BRANCH   9  14
ATOM      3  O   UNL     1      -1.823   3.548  24.577  0.00  0.00    -0.336 OA
ATOM      5  N   UNL     1      -1.812   1.468  23.747  0.00  0.00    -0.190 NA
ATOM      8  N   UNL     1      -0.477   3.175  24.479  0.00  0.00    -0.056 NA
ATOM     14  C   UNL     1      -2.541   2.487  24.126  0.00  0.00    +0.245 A 
ATOM     16  C   UNL     1      -0.553   1.937  23.982  0.00  0.00    +0.202 A 
BRANCH  16  17
ATOM      1  F   UNL     1       4.106   1.589  22.815  0.00  0.00    -0.205 F 
ATOM     17  C   UNL     1       0.610   1.142  23.709  0.00  0.00    +0.025 A 
ATOM     20  C   UNL     1       1.819   1.760  23.388  0.00  0.00    +0.050 A 
ATOM     21  C   UNL     1       0.531  -0.250  23.764  0.00  0.00    +0.012 A 
ATOM     22  C   UNL     1       2.948   0.986  23.123  0.00  0.00    +0.127 A 
ATOM     23  C   UNL     1       1.661  -1.023  23.499  0.00  0.00    +0.007 A 
ATOM     24  C   UNL     1       2.870  -0.405  23.179  0.00  0.00    -0.015 A 
ATOM     25  C   UNL     1       4.076  -1.236  22.896  0.00  0.00    +0.047 C 
ENDBRANCH  16  17
ENDBRANCH   9  14
BRANCH  11   2
ATOM      2  O   UNL     1      -6.536   4.593  25.859  0.00  0.00    -0.390 OA
ATOM     26  H   UNL     1      -7.282   4.201  25.376  0.00  0.00    +0.210 HD
ENDBRANCH  11   2
BRANCH   4  13
ATOM     13  C   UNL     1      -4.981   0.382  24.301  0.00  0.00    +0.159 C 
BRANCH  13  15
ATOM      6  N   UNL     1      -3.092  -0.507  25.686  0.00  0.00    -0.347 N 
ATOM      7  N   UNL     1      -3.731  -1.787  23.987  0.00  0.00    -0.239 NA
ATOM     15  C   UNL     1      -3.945  -0.660  24.629  0.00  0.00    +0.121 A 
ATOM     18  C   UNL     1      -2.281  -1.607  25.720  0.00  0.00    +0.104 A 
ATOM     19  C   UNL     1      -2.695  -2.383  24.663  0.00  0.00    +0.130 A 
ATOM     27  H   UNL     1      -3.063   0.276  26.325  0.00  0.00    +0.167 HD
ENDBRANCH  13  15
ENDBRANCH   4  13
TORSDOF 5
ENDMDL
MODEL 3
REMARK VINA RESULT:      -1.7      1.482      3.702
REMARK  Name = 26743812
REMARK  6 active torsions:
REMARK  status: ('A' for Active; 'I' for Inactive)
REMARK    1  A    between atoms: O_2  and  C_11
REMARK    2  A    between atoms: N_4  and  C_13
REMARK    3  A    between atoms: C_9  and  C_14
REMARK    4  A    between atoms: C_13  and  C_15
REMARK    5  A    between atoms: C_16  and  C_17
REMARK    6  A    between atoms: C_24  and  C_25
REMARK                            x       y       z     vdW  Elec       q    Type
REMARK                         _______ _______ _______ _____ _____    ______ ____
ROOT
ATOM      4  N   UNL     1      -3.539  -0.138  24.501  0.00  0.00    -0.282 NA
ATOM      9  C   UNL     1      -2.357  -0.982  24.771  0.00  0.00    +0.149 C 
ATOM     10  C   UNL     1      -2.694  -2.345  24.137  0.00  0.00    +0.061 C 
ATOM     11  C   UNL     1      -4.102  -2.183  23.579  0.00  0.00    +0.130 C 
ATOM     12  C   UNL     1      -4.681  -1.045  24.399  0.00  0.00    +0.117 C 
ENDROOT
BRANCH   9  14
ATOM      3  O   UNL     1      -1.197   0.788  23.549  0.00  0.00    -0.336 OA
ATOM      5  N   UNL     1       0.150  -0.832  24.308  0.00  0.00    -0.190 NA
ATOM      8  N   UNL     1       0.098   1.139  23.148  0.00  0.00    -0.056 NA
ATOM     14  C   UNL     1      -1.077  -0.383  24.225  0.00  0.00    +0.245 A 
ATOM     16  C   UNL     1       0.835   0.135  23.632  0.00  0.00    +0.202 A 
BRANCH  16  17
ATOM      1  F   UNL     1       4.998  -2.249  24.042  0.00  0.00    -0.205 F 
ATOM     17  C   UNL     1       2.258   0.069  23.460  0.00  0.00    +0.025 A 
ATOM     20  C   UNL     1       2.954  -1.079  23.841  0.00  0.00    +0.050 A 
ATOM     21  C   UNL     1       2.945   1.152  22.912  0.00  0.00    +0.012 A 
ATOM     22  C   UNL     1       4.337  -1.142  23.673  0.00  0.00    +0.127 A 
ATOM     23  C   UNL     1       4.328   1.088  22.743  0.00  0.00    +0.007 A 
ATOM     24  C   UNL     1       5.024  -0.060  23.124  0.00  0.00    -0.015 A 
ATOM     25  C   UNL     1       6.504  -0.125  22.943  0.00  0.00    +0.047 C 
ENDBRANCH  16  17
ENDBRANCH   9  14
BRANCH  11   2
ATOM      2  O   UNL     1      -4.846  -3.376  23.738  0.00  0.00    -0.390 OA
ATOM     26  H   UNL     1      -4.317  -3.978  24.288  0.00  0.00    +0.210 HD
ENDBRANCH  11   2
BRANCH   4  13
ATOM     13  C   UNL     1      -3.748   0.895  25.508  0.00  0.00    +0.159 C 
BRANCH  13  15
ATOM      6  N   UNL     1      -2.363   2.976  25.348  0.00  0.00    -0.347 N 
ATOM      7  N   UNL     1      -4.201   2.942  24.103  0.00  0.00    -0.239 NA
ATOM     15  C   UNL     1      -3.469   2.272  24.964  0.00  0.00    +0.121 A 
ATOM     18  C   UNL     1      -2.391   4.174  24.690  0.00  0.00    +0.104 A 
ATOM     19  C   UNL     1      -3.534   4.128  23.926  0.00  0.00    +0.130 A 
ATOM     27  H   UNL     1      -1.653   2.671  26.002  0.00  0.00    +0.167 HD
ENDBRANCH  13  15
ENDBRANCH   4  13
TORSDOF 5
ENDMDL
MODEL 4
REMARK VINA RESULT:      -1.6      0.989      1.382
REMARK  Name = 26743812
REMARK  6 active torsions:
REMARK  status: ('A' for Active; 'I' for Inactive)
REMARK    1  A    between atoms: O_2  and  C_11
REMARK    2  A    between atoms: N_4  and  C_13
REMARK    3  A    between atoms: C_9  and  C_14
REMARK    4  A    between atoms: C_13  and  C_15
REMARK    5  A    between atoms: C_16  and  C_17
REMARK    6  A    between atoms: C_24  and  C_25
REMARK                            x       y       z     vdW  Elec       q    Type
REMARK                         _______ _______ _______ _____ _____    ______ ____
ROOT
ATOM      4  N   UNL     1      -3.393   1.597  24.958  0.00  0.00    -0.282 NA
ATOM      9  C   UNL     1      -2.381   2.163  24.044  0.00  0.00    +0.149 C 
ATOM     10  C   UNL     1      -1.984   3.507  24.681  0.00  0.00    +0.061 C 
ATOM     11  C   UNL     1      -2.858   3.630  25.922  0.00  0.00    +0.130 C 
ATOM     12  C   UNL     1      -4.041   2.731  25.613  0.00  0.00    +0.117 C 
ENDROOT
BRANCH   9  14
ATOM      3  O   UNL     1      -1.481  -0.078  23.668  0.00  0.00    -0.336 OA
ATOM      5  N   UNL     1       0.080   1.522  23.804  0.00  0.00    -0.190 NA
ATOM      8  N   UNL     1      -0.249  -0.722  23.502  0.00  0.00    -0.056 NA
ATOM     14  C   UNL     1      -1.198   1.239  23.840  0.00  0.00    +0.245 A 
ATOM     16  C   UNL     1       0.622   0.287  23.594  0.00  0.00    +0.202 A 
BRANCH  16  17
ATOM      1  F   UNL     1       5.016   2.004  22.631  0.00  0.00    -0.205 F 
ATOM     17  C   UNL     1       2.039   0.097  23.481  0.00  0.00    +0.025 A 
ATOM     20  C   UNL     1       2.858   1.162  23.103  0.00  0.00    +0.050 A 
ATOM     21  C   UNL     1       2.598  -1.153  23.748  0.00  0.00    +0.012 A 
ATOM     22  C   UNL     1       4.236   0.975  22.994  0.00  0.00    +0.127 A 
ATOM     23  C   UNL     1       3.976  -1.338  23.639  0.00  0.00    +0.007 A 
ATOM     24  C   UNL     1       4.795  -0.274  23.262  0.00  0.00    -0.015 A 
ATOM     25  C   UNL     1       6.269  -0.476  23.146  0.00  0.00    +0.047 C 
ENDBRANCH  16  17
ENDBRANCH   9  14
BRANCH  11   2
ATOM      2  O   UNL     1      -3.257   4.972  26.125  0.00  0.00    -0.390 OA
ATOM     26  H   UNL     1      -4.065   5.118  25.605  0.00  0.00    +0.210 HD
ENDBRANCH  11   2
BRANCH   4  13
ATOM     13  C   UNL     1      -4.354   0.729  24.287  0.00  0.00    +0.159 C 
BRANCH  13  15
ATOM      6  N   UNL     1      -3.408  -1.152  25.645  0.00  0.00    -0.347 N 
ATOM      7  N   UNL     1      -4.336  -1.727  23.711  0.00  0.00    -0.239 NA
ATOM     15  C   UNL     1      -4.048  -0.727  24.514  0.00  0.00    +0.121 A 
ATOM     18  C   UNL     1      -3.278  -2.510  25.557  0.00  0.00    +0.104 A 
ATOM     19  C   UNL     1      -3.860  -2.841  24.355  0.00  0.00    +0.130 A 
ATOM     27  H   UNL     1      -3.086  -0.569  26.406  0.00  0.00    +0.167 HD
ENDBRANCH  13  15
ENDBRANCH   4  13
TORSDOF 5
ENDMDL
MODEL 5
REMARK VINA RESULT:      -0.9      3.264      6.920
REMARK  Name = 26743812
REMARK  6 active torsions:
REMARK  status: ('A' for Active; 'I' for Inactive)
REMARK    1  A    between atoms: O_2  and  C_11
REMARK    2  A    between atoms: N_4  and  C_13
REMARK    3  A    between atoms: C_9  and  C_14
REMARK    4  A    between atoms: C_13  and  C_15
REMARK    5  A    between atoms: C_16  and  C_17
REMARK    6  A    between atoms: C_24  and  C_25
REMARK                            x       y       z     vdW  Elec       q    Type
REMARK                         _______ _______ _______ _____ _____    ______ ____
ROOT
ATOM      4  N   UNL     1       0.503  -0.639  23.560  0.00  0.00    -0.282 NA
ATOM      9  C   UNL     1       1.165   0.496  24.235  0.00  0.00    +0.149 C 
ATOM     10  C   UNL     1       2.074   1.117  23.158  0.00  0.00    +0.061 C 
ATOM     11  C   UNL     1       1.891   0.235  21.930  0.00  0.00    +0.130 C 
ATOM     12  C   UNL     1       1.414  -1.084  22.508  0.00  0.00    +0.117 C 
ENDROOT
BRANCH   9  14
ATOM      3  O   UNL     1       0.660   2.357  25.736  0.00  0.00    -0.336 OA
ATOM      5  N   UNL     1      -1.098   1.640  24.547  0.00  0.00    -0.190 NA
ATOM      8  N   UNL     1      -0.422   3.162  26.116  0.00  0.00    -0.056 NA
ATOM     14  C   UNL     1       0.176   1.489  24.811  0.00  0.00    +0.245 A 
ATOM     16  C   UNL     1      -1.421   2.678  25.372  0.00  0.00    +0.202 A 
BRANCH  16  17
ATOM      1  F   UNL     1      -6.156   2.196  24.645  0.00  0.00    -0.205 F 
ATOM     17  C   UNL     1      -2.752   3.208  25.428  0.00  0.00    +0.025 A 
ATOM     20  C   UNL     1      -3.831   2.432  25.001  0.00  0.00    +0.050 A 
ATOM     21  C   UNL     1      -2.969   4.499  25.909  0.00  0.00    +0.012 A 
ATOM     22  C   UNL     1      -5.125   2.949  25.057  0.00  0.00    +0.127 A 
ATOM     23  C   UNL     1      -4.263   5.015  25.964  0.00  0.00    +0.007 A 
ATOM     24  C   UNL     1      -5.342   4.239  25.538  0.00  0.00    -0.015 A 
ATOM     25  C   UNL     1      -6.725   4.795  25.598  0.00  0.00    +0.047 C 
ENDBRANCH  16  17
ENDBRANCH   9  14
BRANCH  11   2
ATOM      2  O   UNL     1       3.110   0.092  21.228  0.00  0.00    -0.390 OA
ATOM     26  H   UNL     1       3.827   0.345  21.833  0.00  0.00    +0.210 HD
ENDBRANCH  11   2
BRANCH   4  13
ATOM     13  C   UNL     1       0.147  -1.720  24.471  0.00  0.00    +0.159 C 
BRANCH  13  15
ATOM      6  N   UNL     1      -1.924  -0.964  25.660  0.00  0.00    -0.347 N 
ATOM      7  N   UNL     1      -2.212  -2.549  24.132  0.00  0.00    -0.239 NA
ATOM     15  C   UNL     1      -1.336  -1.772  24.728  0.00  0.00    +0.121 A 
ATOM     18  C   UNL     1      -3.262  -1.244  25.659  0.00  0.00    +0.104 A 
ATOM     19  C   UNL     1      -3.415  -2.224  24.707  0.00  0.00    +0.130 A 
ATOM     27  H   UNL     1      -1.457  -0.285  26.247  0.00  0.00    +0.167 HD
ENDBRANCH  13  15
ENDBRANCH   4  13
TORSDOF 5
ENDMDL
MODEL 6
REMARK VINA RESULT:      -0.8      2.129      4.048
REMARK  Name = 26743812
REMARK  6 active torsions:
REMARK  status: ('A' for Active; 'I' for Inactive)
REMARK    1  A    between atoms: O_2  and  C_11
REMARK    2  A    between atoms: N_4  and  C_13
REMARK    3  A    between atoms: C_9  and  C_14
REMARK    4  A    between atoms: C_13  and  C_15
REMARK    5  A    between atoms: C_16  and  C_17
REMARK    6  A    between atoms: C_24  and  C_25
REMARK                            x       y       z     vdW  Elec       q    Type
REMARK                         _______ _______ _______ _____ _____    ______ ____
ROOT
ATOM      4  N   UNL     1      -3.937   2.674  25.319  0.00  0.00    -0.282 NA
ATOM      9  C   UNL     1      -3.825   1.227  25.590  0.00  0.00    +0.149 C 
ATOM     10  C   UNL     1      -5.127   0.620  25.034  0.00  0.00    +0.061 C 
ATOM     11  C   UNL     1      -5.925   1.809  24.514  0.00  0.00    +0.130 C 
ATOM     12  C   UNL     1      -5.365   2.982  25.296  0.00  0.00    +0.117 C 
ENDROOT
BRANCH   9  14
ATOM      3  O   UNL     1      -2.691  -0.672  24.550  0.00  0.00    -0.336 OA
ATOM      5  N   UNL     1      -1.400   1.143  24.791  0.00  0.00    -0.190 NA
ATOM      8  N   UNL     1      -1.437  -1.014  24.030  0.00  0.00    -0.056 NA
ATOM     14  C   UNL     1      -2.583   0.613  24.976  0.00  0.00    +0.245 A 
ATOM     16  C   UNL     1      -0.731   0.106  24.208  0.00  0.00    +0.202 A 
BRANCH  16  17
ATOM      1  F   UNL     1       3.587  -1.874  23.421  0.00  0.00    -0.205 F 
ATOM     17  C   UNL     1       0.643   0.224  23.814  0.00  0.00    +0.025 A 
ATOM     20  C   UNL     1       1.467  -0.902  23.808  0.00  0.00    +0.050 A 
ATOM     21  C   UNL     1       1.157   1.466  23.439  0.00  0.00    +0.012 A 
ATOM     22  C   UNL     1       2.802  -0.786  23.425  0.00  0.00    +0.127 A 
ATOM     23  C   UNL     1       2.493   1.581  23.056  0.00  0.00    +0.007 A 
ATOM     24  C   UNL     1       3.316   0.455  23.049  0.00  0.00    -0.015 A 
ATOM     25  C   UNL     1       4.745   0.582  22.639  0.00  0.00    +0.047 C 
ENDBRANCH  16  17
ENDBRANCH   9  14
BRANCH  11   2
ATOM      2  O   UNL     1      -7.307   1.629  24.754  0.00  0.00    -0.390 OA
ATOM     26  H   UNL     1      -7.475   1.858  25.683  0.00  0.00    +0.210 HD
ENDBRANCH  11   2
BRANCH   4  13
ATOM     13  C   UNL     1      -3.214   3.497  26.280  0.00  0.00    +0.159 C 
BRANCH  13  15
ATOM      6  N   UNL     1      -0.895   3.756  25.367  0.00  0.00    -0.347 N 
ATOM      7  N   UNL     1      -2.193   5.552  25.229  0.00  0.00    -0.239 NA
ATOM     15  C   UNL     1      -2.122   4.300  25.622  0.00  0.00    +0.121 A 
ATOM     18  C   UNL     1      -0.134   4.723  24.773  0.00  0.00    +0.104 A 
ATOM     19  C   UNL     1      -0.958   5.822  24.697  0.00  0.00    +0.130 A 
ATOM     27  H   UNL     1      -0.601   2.812  25.581  0.00  0.00    +0.167 HD
ENDBRANCH  13  15
ENDBRANCH   4  13
TORSDOF 5
ENDMDL
MODEL 7
REMARK VINA RESULT:       0.2      1.584      2.099
REMARK  Name = 26743812
REMARK  6 active torsions:
REMARK  status: ('A' for Active; 'I' for Inactive)
REMARK    1  A    between atoms: O_2  and  C_11
REMARK    2  A    between atoms: N_4  and  C_13
REMARK    3  A    between atoms: C_9  and  C_14
REMARK    4  A    between atoms: C_13  and  C_15
REMARK    5  A    between atoms: C_16  and  C_17
REMARK    6  A    between atoms: C_24  and  C_25
REMARK                            x       y       z     vdW  Elec       q    Type
REMARK                         _______ _______ _______ _____ _____    ______ ____
ROOT
ATOM      4  N   UNL     1      -2.132   1.781  25.174  0.00  0.00    -0.282 NA
ATOM      9  C   UNL     1      -1.491   2.196  23.909  0.00  0.00    +0.149 C 
ATOM     10  C   UNL     1      -1.108   3.671  24.127  0.00  0.00    +0.061 C 
ATOM     11  C   UNL     1      -1.615   4.008  25.524  0.00  0.00    +0.130 C 
ATOM     12  C   UNL     1      -2.713   2.987  25.759  0.00  0.00    +0.117 C 
ENDROOT
BRANCH   9  14
ATOM      3  O   UNL     1      -0.571   0.196  22.848  0.00  0.00    -0.336 OA
ATOM      5  N   UNL     1       0.967   1.510  23.808  0.00  0.00    -0.190 NA
ATOM      8  N   UNL     1       0.664  -0.429  22.633  0.00  0.00    -0.056 NA
ATOM     14  C   UNL     1      -0.303   1.329  23.546  0.00  0.00    +0.245 A 
ATOM     16  C   UNL     1       1.520   0.406  23.228  0.00  0.00    +0.202 A 
BRANCH  16  17
ATOM      1  F   UNL     1       5.258  -2.514  24.057  0.00  0.00    -0.205 F 
ATOM     17  C   UNL     1       2.934   0.167  23.261  0.00  0.00    +0.025 A 
ATOM     20  C   UNL     1       3.423  -1.081  23.651  0.00  0.00    +0.050 A 
ATOM     21  C   UNL     1       3.821   1.183  22.905  0.00  0.00    +0.012 A 
ATOM     22  C   UNL     1       4.798  -1.312  23.682  0.00  0.00    +0.127 A 
ATOM     23  C   UNL     1       5.196   0.951  22.937  0.00  0.00    +0.007 A 
ATOM     24  C   UNL     1       5.684  -0.297  23.325  0.00  0.00    -0.015 A 
ATOM     25  C   UNL     1       7.156  -0.541  23.359  0.00  0.00    +0.047 C 
ENDBRANCH  16  17
ENDBRANCH   9  14
BRANCH  11   2
ATOM      2  O   UNL     1      -2.109   5.332  25.573  0.00  0.00    -0.390 OA
ATOM     26  H   UNL     1      -1.349   5.923  25.709  0.00  0.00    +0.210 HD
ENDBRANCH  11   2
BRANCH   4  13
ATOM     13  C   UNL     1      -3.121   0.726  24.998  0.00  0.00    +0.159 C 
BRANCH  13  15
ATOM      6  N   UNL     1      -5.101   2.085  24.284  0.00  0.00    -0.347 N 
ATOM      7  N   UNL     1      -5.339   0.954  26.180  0.00  0.00    -0.239 NA
ATOM     15  C   UNL     1      -4.525   1.236  25.187  0.00  0.00    +0.121 A 
ATOM     18  C   UNL     1      -6.362   2.364  24.731  0.00  0.00    +0.104 A 
ATOM     19  C   UNL     1      -6.486   1.653  25.902  0.00  0.00    +0.130 A 
ATOM     27  H   UNL     1      -4.673   2.446  23.442  0.00  0.00    +0.167 HD
ENDBRANCH  13  15
ENDBRANCH   4  13
TORSDOF 5
ENDMDL
