MODEL 1
REMARK VINA RESULT:       3.8      0.000      0.000
REMARK  Name = 11884110
REMARK  9 active torsions:
REMARK  status: ('A' for Active; 'I' for Inactive)
REMARK    1  A    between atoms: S_2  and  N_9
REMARK    2  A    between atoms: S_2  and  C_17
REMARK    3  A    between atoms: O_5  and  C_14
REMARK    4  A    between atoms: O_5  and  C_18
REMARK    5  A    between atoms: N_9  and  C_13
REMARK    6  A    between atoms: N_10  and  C_21
REMARK    7  A    between atoms: C_27  and  C_28
REMARK    8  A    between atoms: C_28  and  C_31
REMARK    9  A    between atoms: C_28  and  C_32
REMARK                            x       y       z     vdW  Elec       q    Type
REMARK                         _______ _______ _______ _____ _____    ______ ____
ROOT
ATOM      3  O   UNL     1      -3.010   0.622  23.787  0.00  0.00    -0.369 OA
ATOM      4  O   UNL     1      -3.004  -2.216  24.974  0.00  0.00    -0.368 OA
ATOM     11  C   UNL     1      -3.203  -0.921  25.580  0.00  0.00    +0.171 C 
ATOM     12  C   UNL     1      -2.270   0.043  24.873  0.00  0.00    +0.191 C 
ATOM     13  C   UNL     1      -4.580  -0.404  25.247  0.00  0.00    +0.133 C 
ATOM     14  C   UNL     1      -1.171  -0.868  24.378  0.00  0.00    +0.235 C 
ATOM     15  C   UNL     1      -4.385   0.218  23.877  0.00  0.00    +0.183 C 
ATOM     16  C   UNL     1      -1.934  -2.123  24.022  0.00  0.00    +0.207 C 
ENDROOT
BRANCH  13   9
ATOM      9  N   UNL     1      -4.977   0.642  26.219  0.00  0.00    -0.182 NA
ATOM     33  H   UNL     1      -5.055   0.371  27.207  0.00  0.00    +0.148 HD
BRANCH   9   2
ATOM      2  S   UNL     1      -5.662   2.093  25.666  0.00  0.00    +0.059 S 
ATOM      6  O   UNL     1      -6.426   2.706  26.737  0.00  0.00    -0.153 OA
ATOM      7  O   UNL     1      -6.276   1.857  24.374  0.00  0.00    -0.153 OA
BRANCH   2  17
ATOM      1 CL   UNL     1      -0.592   5.619  24.661  0.00  0.00    -0.084 Cl
ATOM     17  C   UNL     1      -4.229   3.089  25.382  0.00  0.00    +0.105 A 
ATOM     19  C   UNL     1      -3.266   3.185  26.371  0.00  0.00    +0.030 A 
ATOM     20  C   UNL     1      -4.098   3.755  24.176  0.00  0.00    +0.030 A 
ATOM     22  C   UNL     1      -2.136   3.971  26.147  0.00  0.00    +0.022 A 
ATOM     23  C   UNL     1      -2.968   4.541  23.952  0.00  0.00    +0.022 A 
ATOM     24  C   UNL     1      -1.987   4.650  24.937  0.00  0.00    +0.041 A 
ENDBRANCH   2  17
ENDBRANCH   9   2
ENDBRANCH  13   9
BRANCH  14   5
ATOM      5  O   UNL     1      -0.462  -0.347  23.277  0.00  0.00    -0.442 OA
BRANCH   5  18
ATOM      8  O   UNL     1       0.905   1.353  23.961  0.00  0.00    -0.226 OA
ATOM     10  N   UNL     1       1.765  -0.701  23.242  0.00  0.00    -0.251 N 
ATOM     18  C   UNL     1       0.772   0.212  23.536  0.00  0.00    +0.405 C 
ATOM     34  H   UNL     1       1.454  -1.606  22.897  0.00  0.00    +0.158 HD
BRANCH  10  21
ATOM     21  C   UNL     1       3.164  -0.536  23.364  0.00  0.00    +0.036 A 
ATOM     25  C   UNL     1       3.928  -1.571  23.879  0.00  0.00    +0.024 A 
ATOM     26  C   UNL     1       3.743   0.657  22.964  0.00  0.00    +0.024 A 
ATOM     27  C   UNL     1       5.906  -0.213  23.600  0.00  0.00    -0.045 A 
ATOM     29  C   UNL     1       5.308  -1.408  23.998  0.00  0.00    +0.006 A 
ATOM     30  C   UNL     1       5.124   0.820  23.082  0.00  0.00    +0.006 A 
BRANCH  27  28
ATOM     28  C   UNL     1       7.382  -0.038  23.727  0.00  0.00    +0.013 C 
ATOM     31  C   UNL     1       8.157  -0.727  22.588  0.00  0.00    +0.012 C 
ATOM     32  C   UNL     1       7.793   1.444  23.817  0.00  0.00    +0.012 C 
ENDBRANCH  27  28
ENDBRANCH  10  21
ENDBRANCH   5  18
ENDBRANCH  14   5
TORSDOF 7
ENDMDL
MODEL 2
REMARK VINA RESULT:       4.0      0.547      1.452
REMARK  Name = 11884110
REMARK  9 active torsions:
REMARK  status: ('A' for Active; 'I' for Inactive)
REMARK    1  A    between atoms: S_2  and  N_9
REMARK    2  A    between atoms: S_2  and  C_17
REMARK    3  A    between atoms: O_5  and  C_14
REMARK    4  A    between atoms: O_5  and  C_18
REMARK    5  A    between atoms: N_9  and  C_13
REMARK    6  A    between atoms: N_10  and  C_21
REMARK    7  A    between atoms: C_27  and  C_28
REMARK    8  A    between atoms: C_28  and  C_31
REMARK    9  A    between atoms: C_28  and  C_32
REMARK                            x       y       z     vdW  Elec       q    Type
REMARK                         _______ _______ _______ _____ _____    ______ ____
ROOT
ATOM      3  O   UNL     1      -3.245   0.277  23.906  0.00  0.00    -0.369 OA
ATOM      4  O   UNL     1      -3.555  -2.420  25.352  0.00  0.00    -0.368 OA
ATOM     11  C   UNL     1      -3.584  -1.061  25.837  0.00  0.00    +0.171 C 
ATOM     12  C   UNL     1      -2.556  -0.286  25.034  0.00  0.00    +0.191 C 
ATOM     13  C   UNL     1      -4.895  -0.412  25.471  0.00  0.00    +0.133 C 
ATOM     14  C   UNL     1      -1.586  -1.365  24.615  0.00  0.00    +0.235 C 
ATOM     15  C   UNL     1      -4.656   0.053  24.047  0.00  0.00    +0.183 C 
ATOM     16  C   UNL     1      -2.502  -2.546  24.385  0.00  0.00    +0.207 C 
ENDROOT
BRANCH  13   9
ATOM      9  N   UNL     1      -5.143   0.759  26.346  0.00  0.00    -0.182 NA
ATOM     33  H   UNL     1      -5.170   0.599  27.360  0.00  0.00    +0.148 HD
BRANCH   9   2
ATOM      2  S   UNL     1      -5.756   2.195  25.681  0.00  0.00    +0.059 S 
ATOM      6  O   UNL     1      -6.529   2.901  26.686  0.00  0.00    -0.153 OA
ATOM      7  O   UNL     1      -6.341   1.898  24.387  0.00  0.00    -0.153 OA
BRANCH   2  17
ATOM      1 CL   UNL     1      -0.530   5.464  24.613  0.00  0.00    -0.084 Cl
ATOM     17  C   UNL     1      -4.280   3.119  25.380  0.00  0.00    +0.105 A 
ATOM     19  C   UNL     1      -3.975   3.500  24.085  0.00  0.00    +0.030 A 
ATOM     20  C   UNL     1      -3.457   3.444  26.444  0.00  0.00    +0.030 A 
ATOM     22  C   UNL     1      -2.809   4.229  23.847  0.00  0.00    +0.022 A 
ATOM     23  C   UNL     1      -2.292   4.172  26.205  0.00  0.00    +0.022 A 
ATOM     24  C   UNL     1      -1.967   4.565  24.907  0.00  0.00    +0.041 A 
ENDBRANCH   2  17
ENDBRANCH   9   2
ENDBRANCH  13   9
BRANCH  14   5
ATOM      5  O   UNL     1      -0.844  -1.037  23.463  0.00  0.00    -0.442 OA
BRANCH   5  18
ATOM      8  O   UNL     1       0.290   0.825  24.154  0.00  0.00    -0.226 OA
ATOM     10  N   UNL     1       1.395  -0.998  23.188  0.00  0.00    -0.251 N 
ATOM     18  C   UNL     1       0.302  -0.291  23.649  0.00  0.00    +0.405 C 
ATOM     34  H   UNL     1       1.202  -1.918  22.799  0.00  0.00    +0.158 HD
BRANCH  10  21
ATOM     21  C   UNL     1       2.752  -0.602  23.189  0.00  0.00    +0.036 A 
ATOM     25  C   UNL     1       3.116   0.578  22.562  0.00  0.00    +0.024 A 
ATOM     26  C   UNL     1       3.692  -1.404  23.817  0.00  0.00    +0.024 A 
ATOM     27  C   UNL     1       5.413   0.173  23.192  0.00  0.00    -0.045 A 
ATOM     29  C   UNL     1       4.455   0.969  22.564  0.00  0.00    +0.006 A 
ATOM     30  C   UNL     1       5.031  -1.014  23.818  0.00  0.00    +0.006 A 
BRANCH  27  28
ATOM     28  C   UNL     1       6.845   0.590  23.194  0.00  0.00    +0.013 C 
ATOM     31  C   UNL     1       7.213   1.424  24.435  0.00  0.00    +0.012 C 
ATOM     32  C   UNL     1       7.806  -0.607  23.063  0.00  0.00    +0.012 C 
ENDBRANCH  27  28
ENDBRANCH  10  21
ENDBRANCH   5  18
ENDBRANCH  14   5
TORSDOF 7
ENDMDL
MODEL 3
REMARK VINA RESULT:       4.2      2.792      7.985
REMARK  Name = 11884110
REMARK  9 active torsions:
REMARK  status: ('A' for Active; 'I' for Inactive)
REMARK    1  A    between atoms: S_2  and  N_9
REMARK    2  A    between atoms: S_2  and  C_17
REMARK    3  A    between atoms: O_5  and  C_14
REMARK    4  A    between atoms: O_5  and  C_18
REMARK    5  A    between atoms: N_9  and  C_13
REMARK    6  A    between atoms: N_10  and  C_21
REMARK    7  A    between atoms: C_27  and  C_28
REMARK    8  A    between atoms: C_28  and  C_31
REMARK    9  A    between atoms: C_28  and  C_32
REMARK                            x       y       z     vdW  Elec       q    Type
REMARK                         _______ _______ _______ _____ _____    ______ ____
ROOT
ATOM      3  O   UNL     1      -2.317   2.462  24.435  0.00  0.00    -0.369 OA
ATOM      4  O   UNL     1      -0.799   5.072  25.027  0.00  0.00    -0.368 OA
ATOM     11  C   UNL     1      -0.528   3.699  25.383  0.00  0.00    +0.171 C 
ATOM     12  C   UNL     1      -1.866   3.046  25.668  0.00  0.00    +0.191 C 
ATOM     13  C   UNL     1      -0.005   2.950  24.183  0.00  0.00    +0.133 C 
ATOM     14  C   UNL     1      -2.724   4.219  26.078  0.00  0.00    +0.235 C 
ATOM     15  C   UNL     1      -1.274   2.556  23.453  0.00  0.00    +0.183 C 
ATOM     16  C   UNL     1      -2.204   5.322  25.183  0.00  0.00    +0.207 C 
ENDROOT
BRANCH  13   9
ATOM      9  N   UNL     1       0.720   1.734  24.621  0.00  0.00    -0.182 NA
ATOM     33  H   UNL     1       1.371   1.824  25.410  0.00  0.00    +0.148 HD
BRANCH   9   2
ATOM      2  S   UNL     1       0.774   0.373  23.608  0.00  0.00    +0.059 S 
ATOM      6  O   UNL     1       0.232   0.717  22.308  0.00  0.00    -0.153 OA
ATOM      7  O   UNL     1       0.257  -0.772  24.335  0.00  0.00    -0.153 OA
BRANCH   2  17
ATOM      1 CL   UNL     1       6.933  -0.511  22.954  0.00  0.00    -0.084 Cl
ATOM     17  C   UNL     1       2.514   0.123  23.424  0.00  0.00    +0.105 A 
ATOM     19  C   UNL     1       3.293   1.148  22.916  0.00  0.00    +0.030 A 
ATOM     20  C   UNL     1       3.065  -1.093  23.790  0.00  0.00    +0.030 A 
ATOM     22  C   UNL     1       4.667   0.951  22.771  0.00  0.00    +0.022 A 
ATOM     23  C   UNL     1       4.438  -1.290  23.643  0.00  0.00    +0.022 A 
ATOM     24  C   UNL     1       5.239  -0.268  23.134  0.00  0.00    +0.041 A 
ENDBRANCH   2  17
ENDBRANCH   9   2
ENDBRANCH  13   9
BRANCH  14   5
ATOM      5  O   UNL     1      -4.104   3.997  25.898  0.00  0.00    -0.442 OA
BRANCH   5  18
ATOM      8  O   UNL     1      -5.370   2.807  24.413  0.00  0.00    -0.226 OA
ATOM     10  N   UNL     1      -3.679   1.793  25.674  0.00  0.00    -0.251 N 
ATOM     18  C   UNL     1      -4.470   2.840  25.243  0.00  0.00    +0.405 C 
ATOM     34  H   UNL     1      -2.978   2.019  26.375  0.00  0.00    +0.158 HD
BRANCH  10  21
ATOM     21  C   UNL     1      -3.721   0.442  25.260  0.00  0.00    +0.036 A 
ATOM     25  C   UNL     1      -4.413   0.105  24.108  0.00  0.00    +0.024 A 
ATOM     26  C   UNL     1      -3.069  -0.520  26.016  0.00  0.00    +0.024 A 
ATOM     27  C   UNL     1      -3.802  -2.208  24.449  0.00  0.00    -0.045 A 
ATOM     29  C   UNL     1      -4.453  -1.229  23.700  0.00  0.00    +0.006 A 
ATOM     30  C   UNL     1      -3.109  -1.853  25.608  0.00  0.00    +0.006 A 
BRANCH  27  28
ATOM     28  C   UNL     1      -3.845  -3.633  24.013  0.00  0.00    +0.013 C 
ATOM     31  C   UNL     1      -4.989  -3.911  23.020  0.00  0.00    +0.012 C 
ATOM     32  C   UNL     1      -2.506  -4.106  23.415  0.00  0.00    +0.012 C 
ENDBRANCH  27  28
ENDBRANCH  10  21
ENDBRANCH   5  18
ENDBRANCH  14   5
TORSDOF 7
ENDMDL
MODEL 4
REMARK VINA RESULT:       4.8      1.994      3.014
REMARK  Name = 11884110
REMARK  9 active torsions:
REMARK  status: ('A' for Active; 'I' for Inactive)
REMARK    1  A    between atoms: S_2  and  N_9
REMARK    2  A    between atoms: S_2  and  C_17
REMARK    3  A    between atoms: O_5  and  C_14
REMARK    4  A    between atoms: O_5  and  C_18
REMARK    5  A    between atoms: N_9  and  C_13
REMARK    6  A    between atoms: N_10  and  C_21
REMARK    7  A    between atoms: C_27  and  C_28
REMARK    8  A    between atoms: C_28  and  C_31
REMARK    9  A    between atoms: C_28  and  C_32
REMARK                            x       y       z     vdW  Elec       q    Type
REMARK                         _______ _______ _______ _____ _____    ______ ____
ROOT
ATOM      3  O   UNL     1      -2.610  -0.041  24.818  0.00  0.00    -0.369 OA
ATOM      4  O   UNL     1      -5.039  -1.474  23.590  0.00  0.00    -0.368 OA
ATOM     11  C   UNL     1      -4.940  -0.388  24.536  0.00  0.00    +0.171 C 
ATOM     12  C   UNL     1      -3.745  -0.683  25.421  0.00  0.00    +0.191 C 
ATOM     13  C   UNL     1      -4.559   0.884  23.822  0.00  0.00    +0.133 C 
ATOM     14  C   UNL     1      -3.642  -2.188  25.343  0.00  0.00    +0.235 C 
ATOM     15  C   UNL     1      -3.049   0.775  23.721  0.00  0.00    +0.183 C 
ATOM     16  C   UNL     1      -4.049  -2.461  23.913  0.00  0.00    +0.207 C 
ENDROOT
BRANCH  13   9
ATOM      9  N   UNL     1      -4.923   2.059  24.649  0.00  0.00    -0.182 NA
ATOM     33  H   UNL     1      -5.776   1.997  25.217  0.00  0.00    +0.148 HD
BRANCH   9   2
ATOM      2  S   UNL     1      -4.193   3.562  24.349  0.00  0.00    +0.059 S 
ATOM      6  O   UNL     1      -4.908   4.598  25.069  0.00  0.00    -0.153 OA
ATOM      7  O   UNL     1      -3.959   3.692  22.924  0.00  0.00    -0.153 OA
BRANCH   2  17
ATOM      1 CL   UNL     1       1.402   2.848  27.057  0.00  0.00    -0.084 Cl
ATOM     17  C   UNL     1      -2.612   3.359  25.114  0.00  0.00    +0.105 A 
ATOM     19  C   UNL     1      -2.546   3.121  26.476  0.00  0.00    +0.030 A 
ATOM     20  C   UNL     1      -1.469   3.444  24.337  0.00  0.00    +0.030 A 
ATOM     22  C   UNL     1      -1.298   2.962  27.079  0.00  0.00    +0.022 A 
ATOM     23  C   UNL     1      -0.222   3.285  24.941  0.00  0.00    +0.022 A 
ATOM     24  C   UNL     1      -0.136   3.045  26.311  0.00  0.00    +0.041 A 
ENDBRANCH   2  17
ENDBRANCH   9   2
ENDBRANCH  13   9
BRANCH  14   5
ATOM      5  O   UNL     1      -2.353  -2.679  25.631  0.00  0.00    -0.442 OA
BRANCH   5  18
ATOM      8  O   UNL     1      -1.375  -3.098  23.608  0.00  0.00    -0.226 OA
ATOM     10  N   UNL     1      -0.478  -1.541  25.107  0.00  0.00    -0.251 N 
ATOM     18  C   UNL     1      -1.382  -2.489  24.670  0.00  0.00    +0.405 C 
ATOM     34  H   UNL     1      -0.654  -1.143  26.026  0.00  0.00    +0.158 HD
BRANCH  10  21
ATOM     21  C   UNL     1       0.664  -1.051  24.433  0.00  0.00    +0.036 A 
ATOM     25  C   UNL     1       0.594   0.164  23.771  0.00  0.00    +0.024 A 
ATOM     26  C   UNL     1       1.833  -1.797  24.449  0.00  0.00    +0.024 A 
ATOM     27  C   UNL     1       2.905  -0.091  23.114  0.00  0.00    -0.045 A 
ATOM     29  C   UNL     1       1.722   0.647  23.107  0.00  0.00    +0.006 A 
ATOM     30  C   UNL     1       2.961  -1.314  23.785  0.00  0.00    +0.006 A 
BRANCH  27  28
ATOM     28  C   UNL     1       4.111   0.424  22.405  0.00  0.00    +0.013 C 
ATOM     31  C   UNL     1       4.062   1.949  22.192  0.00  0.00    +0.012 C 
ATOM     32  C   UNL     1       5.422   0.037  23.115  0.00  0.00    +0.012 C 
ENDBRANCH  27  28
ENDBRANCH  10  21
ENDBRANCH   5  18
ENDBRANCH  14   5
TORSDOF 7
ENDMDL
MODEL 5
REMARK VINA RESULT:       5.1      2.595      7.352
REMARK  Name = 11884110
REMARK  9 active torsions:
REMARK  status: ('A' for Active; 'I' for Inactive)
REMARK    1  A    between atoms: S_2  and  N_9
REMARK    2  A    between atoms: S_2  and  C_17
REMARK    3  A    between atoms: O_5  and  C_14
REMARK    4  A    between atoms: O_5  and  C_18
REMARK    5  A    between atoms: N_9  and  C_13
REMARK    6  A    between atoms: N_10  and  C_21
REMARK    7  A    between atoms: C_27  and  C_28
REMARK    8  A    between atoms: C_28  and  C_31
REMARK    9  A    between atoms: C_28  and  C_32
REMARK                            x       y       z     vdW  Elec       q    Type
REMARK                         _______ _______ _______ _____ _____    ______ ____
ROOT
ATOM      3  O   UNL     1      -2.684  -0.739  25.751  0.00  0.00    -0.369 OA
ATOM      4  O   UNL     1      -2.445  -3.314  24.086  0.00  0.00    -0.368 OA
ATOM     11  C   UNL     1      -1.687  -2.086  24.071  0.00  0.00    +0.171 C 
ATOM     12  C   UNL     1      -2.668  -0.960  24.331  0.00  0.00    +0.191 C 
ATOM     13  C   UNL     1      -0.758  -2.041  25.258  0.00  0.00    +0.133 C 
ATOM     14  C   UNL     1      -3.973  -1.543  23.842  0.00  0.00    +0.235 C 
ATOM     15  C   UNL     1      -1.654  -1.526  26.368  0.00  0.00    +0.183 C 
ATOM     16  C   UNL     1      -3.837  -2.998  24.229  0.00  0.00    +0.207 C 
ENDROOT
BRANCH  13   9
ATOM      9  N   UNL     1       0.337  -1.073  25.009  0.00  0.00    -0.182 NA
ATOM     33  H   UNL     1       0.775  -0.627  25.824  0.00  0.00    +0.148 HD
BRANCH   9   2
ATOM      2  S   UNL     1       0.562  -0.436  23.452  0.00  0.00    +0.059 S 
ATOM      6  O   UNL     1       0.023   0.910  23.398  0.00  0.00    -0.153 OA
ATOM      7  O   UNL     1       0.149  -1.428  22.477  0.00  0.00    -0.153 OA
BRANCH   2  17
ATOM      1 CL   UNL     1       6.796  -0.029  23.106  0.00  0.00    -0.084 Cl
ATOM     17  C   UNL     1       2.324  -0.321  23.355  0.00  0.00    +0.105 A 
ATOM     19  C   UNL     1       2.897   0.826  22.836  0.00  0.00    +0.030 A 
ATOM     20  C   UNL     1       3.096  -1.381  23.797  0.00  0.00    +0.030 A 
ATOM     22  C   UNL     1       4.288   0.917  22.759  0.00  0.00    +0.022 A 
ATOM     23  C   UNL     1       4.485  -1.290  23.720  0.00  0.00    +0.022 A 
ATOM     24  C   UNL     1       5.081  -0.142  23.201  0.00  0.00    +0.041 A 
ENDBRANCH   2  17
ENDBRANCH   9   2
ENDBRANCH  13   9
BRANCH  14   5
ATOM      5  O   UNL     1      -5.109  -0.943  24.421  0.00  0.00    -0.442 OA
BRANCH   5  18
ATOM      8  O   UNL     1      -5.801   0.917  25.556  0.00  0.00    -0.226 OA
ATOM     10  N   UNL     1      -3.839   0.916  24.281  0.00  0.00    -0.251 N 
ATOM     18  C   UNL     1      -4.985   0.370  24.825  0.00  0.00    +0.405 C 
ATOM     34  H   UNL     1      -3.283   0.298  23.694  0.00  0.00    +0.158 HD
BRANCH  10  21
ATOM     21  C   UNL     1      -3.339   2.228  24.440  0.00  0.00    +0.036 A 
ATOM     25  C   UNL     1      -2.198   2.434  25.199  0.00  0.00    +0.024 A 
ATOM     26  C   UNL     1      -4.000   3.285  23.833  0.00  0.00    +0.024 A 
ATOM     27  C   UNL     1      -2.358   4.802  24.750  0.00  0.00    -0.045 A 
ATOM     29  C   UNL     1      -1.704   3.729  25.355  0.00  0.00    +0.006 A 
ATOM     30  C   UNL     1      -3.506   4.580  23.988  0.00  0.00    +0.006 A 
BRANCH  27  28
ATOM     28  C   UNL     1      -1.831   6.187  24.917  0.00  0.00    +0.013 C 
ATOM     31  C   UNL     1      -0.291   6.239  24.885  0.00  0.00    +0.012 C 
ATOM     32  C   UNL     1      -2.409   7.166  23.876  0.00  0.00    +0.012 C 
ENDBRANCH  27  28
ENDBRANCH  10  21
ENDBRANCH   5  18
ENDBRANCH  14   5
TORSDOF 7
ENDMDL
MODEL 6
REMARK VINA RESULT:       5.6      2.392      3.749
REMARK  Name = 11884110
REMARK  9 active torsions:
REMARK  status: ('A' for Active; 'I' for Inactive)
REMARK    1  A    between atoms: S_2  and  N_9
REMARK    2  A    between atoms: S_2  and  C_17
REMARK    3  A    between atoms: O_5  and  C_14
REMARK    4  A    between atoms: O_5  and  C_18
REMARK    5  A    between atoms: N_9  and  C_13
REMARK    6  A    between atoms: N_10  and  C_21
REMARK    7  A    between atoms: C_27  and  C_28
REMARK    8  A    between atoms: C_28  and  C_31
REMARK    9  A    between atoms: C_28  and  C_32
REMARK                            x       y       z     vdW  Elec       q    Type
REMARK                         _______ _______ _______ _____ _____    ______ ____
ROOT
ATOM      3  O   UNL     1      -2.434   3.956  25.041  0.00  0.00    -0.369 OA
ATOM      4  O   UNL     1      -3.752   2.783  22.521  0.00  0.00    -0.368 OA
ATOM     11  C   UNL     1      -3.876   2.442  23.918  0.00  0.00    +0.171 C 
ATOM     12  C   UNL     1      -2.502   2.612  24.536  0.00  0.00    +0.191 C 
ATOM     13  C   UNL     1      -4.723   3.470  24.626  0.00  0.00    +0.133 C 
ATOM     14  C   UNL     1      -1.584   2.413  23.353  0.00  0.00    +0.235 C 
ATOM     15  C   UNL     1      -3.727   4.571  24.937  0.00  0.00    +0.183 C 
ATOM     16  C   UNL     1      -2.372   3.043  22.228  0.00  0.00    +0.207 C 
ENDROOT
BRANCH  13   9
ATOM      9  N   UNL     1      -5.256   2.906  25.888  0.00  0.00    -0.182 NA
ATOM     33  H   UNL     1      -4.841   3.231  26.769  0.00  0.00    +0.148 HD
BRANCH   9   2
ATOM      2  S   UNL     1      -6.209   1.502  25.849  0.00  0.00    +0.059 S 
ATOM      6  O   UNL     1      -7.159   1.593  24.757  0.00  0.00    -0.153 OA
ATOM      7  O   UNL     1      -6.668   1.211  27.194  0.00  0.00    -0.153 OA
BRANCH   2  17
ATOM      1 CL   UNL     1      -1.994  -2.880  24.375  0.00  0.00    -0.084 Cl
ATOM     17  C   UNL     1      -5.019   0.263  25.432  0.00  0.00    +0.105 A 
ATOM     19  C   UNL     1      -4.026  -0.052  26.344  0.00  0.00    +0.030 A 
ATOM     20  C   UNL     1      -5.100  -0.367  24.203  0.00  0.00    +0.030 A 
ATOM     22  C   UNL     1      -3.086  -1.030  26.015  0.00  0.00    +0.022 A 
ATOM     23  C   UNL     1      -4.161  -1.344  23.875  0.00  0.00    +0.022 A 
ATOM     24  C   UNL     1      -3.153  -1.675  24.780  0.00  0.00    +0.041 A 
ENDBRANCH   2  17
ENDBRANCH   9   2
ENDBRANCH  13   9
BRANCH  14   5
ATOM      5  O   UNL     1      -0.319   3.012  23.516  0.00  0.00    -0.442 OA
BRANCH   5  18
ATOM      8  O   UNL     1       0.749   1.973  25.250  0.00  0.00    -0.226 OA
ATOM     10  N   UNL     1       1.532   1.809  23.051  0.00  0.00    -0.251 N 
ATOM     18  C   UNL     1       0.680   2.227  24.054  0.00  0.00    +0.405 C 
ATOM     34  H   UNL     1       1.307   2.125  22.111  0.00  0.00    +0.158 HD
BRANCH  10  21
ATOM     21  C   UNL     1       2.680   0.992  23.167  0.00  0.00    +0.036 A 
ATOM     25  C   UNL     1       3.936   1.567  23.063  0.00  0.00    +0.024 A 
ATOM     26  C   UNL     1       2.526  -0.369  23.382  0.00  0.00    +0.024 A 
ATOM     27  C   UNL     1       4.930  -0.609  23.394  0.00  0.00    -0.045 A 
ATOM     29  C   UNL     1       5.068   0.761  23.178  0.00  0.00    +0.006 A 
ATOM     30  C   UNL     1       3.658  -1.175  23.496  0.00  0.00    +0.006 A 
BRANCH  27  28
ATOM     28  C   UNL     1       6.141  -1.472  23.518  0.00  0.00    +0.013 C 
ATOM     31  C   UNL     1       7.349  -0.905  22.748  0.00  0.00    +0.012 C 
ATOM     32  C   UNL     1       6.531  -1.732  24.985  0.00  0.00    +0.012 C 
ENDBRANCH  27  28
ENDBRANCH  10  21
ENDBRANCH   5  18
ENDBRANCH  14   5
TORSDOF 7
ENDMDL
MODEL 7
REMARK VINA RESULT:       6.4      3.463      7.362
REMARK  Name = 11884110
REMARK  9 active torsions:
REMARK  status: ('A' for Active; 'I' for Inactive)
REMARK    1  A    between atoms: S_2  and  N_9
REMARK    2  A    between atoms: S_2  and  C_17
REMARK    3  A    between atoms: O_5  and  C_14
REMARK    4  A    between atoms: O_5  and  C_18
REMARK    5  A    between atoms: N_9  and  C_13
REMARK    6  A    between atoms: N_10  and  C_21
REMARK    7  A    between atoms: C_27  and  C_28
REMARK    8  A    between atoms: C_28  and  C_31
REMARK    9  A    between atoms: C_28  and  C_32
REMARK                            x       y       z     vdW  Elec       q    Type
REMARK                         _______ _______ _______ _____ _____    ______ ____
ROOT
ATOM      3  O   UNL     1      -3.472   3.926  24.189  0.00  0.00    -0.369 OA
ATOM      4  O   UNL     1      -3.308   5.630  26.745  0.00  0.00    -0.368 OA
ATOM     11  C   UNL     1      -2.474   4.563  26.245  0.00  0.00    +0.171 C 
ATOM     12  C   UNL     1      -3.395   3.562  25.576  0.00  0.00    +0.191 C 
ATOM     13  C   UNL     1      -1.609   5.071  25.119  0.00  0.00    +0.133 C 
ATOM     14  C   UNL     1      -4.706   3.794  26.289  0.00  0.00    +0.235 C 
ATOM     15  C   UNL     1      -2.529   4.974  23.917  0.00  0.00    +0.183 C 
ATOM     16  C   UNL     1      -4.683   5.288  26.518  0.00  0.00    +0.207 C 
ENDROOT
BRANCH  13   9
ATOM      9  N   UNL     1      -0.444   4.175  24.931  0.00  0.00    -0.182 NA
ATOM     33  H   UNL     1       0.161   4.341  24.117  0.00  0.00    +0.148 HD
BRANCH   9   2
ATOM      2  S   UNL     1      -0.360   2.709  25.782  0.00  0.00    +0.059 S 
ATOM      6  O   UNL     1      -1.692   2.321  26.209  0.00  0.00    -0.153 OA
ATOM      7  O   UNL     1       0.720   2.789  26.747  0.00  0.00    -0.153 OA
BRANCH   2  17
ATOM      1 CL   UNL     1       1.470  -1.280  21.324  0.00  0.00    -0.084 Cl
ATOM     17  C   UNL     1       0.157   1.582  24.522  0.00  0.00    +0.105 A 
ATOM     19  C   UNL     1      -0.692   0.557  24.144  0.00  0.00    +0.030 A 
ATOM     20  C   UNL     1       1.401   1.746  23.938  0.00  0.00    +0.030 A 
ATOM     22  C   UNL     1      -0.283  -0.333  23.149  0.00  0.00    +0.022 A 
ATOM     23  C   UNL     1       1.809   0.857  22.944  0.00  0.00    +0.022 A 
ATOM     24  C   UNL     1       0.967  -0.183  22.550  0.00  0.00    +0.041 A 
ENDBRANCH   2  17
ENDBRANCH   9   2
ENDBRANCH  13   9
BRANCH  14   5
ATOM      5  O   UNL     1      -5.831   3.387  25.544  0.00  0.00    -0.442 OA
BRANCH   5  18
ATOM      8  O   UNL     1      -6.805   1.591  24.519  0.00  0.00    -0.226 OA
ATOM     10  N   UNL     1      -4.612   1.501  25.332  0.00  0.00    -0.251 N 
ATOM     18  C   UNL     1      -5.834   2.091  25.074  0.00  0.00    +0.405 C 
ATOM     34  H   UNL     1      -3.925   2.082  25.806  0.00  0.00    +0.158 HD
BRANCH  10  21
ATOM     21  C   UNL     1      -4.194   0.188  25.017  0.00  0.00    +0.036 A 
ATOM     25  C   UNL     1      -4.329  -0.275  23.718  0.00  0.00    +0.024 A 
ATOM     26  C   UNL     1      -3.658  -0.611  26.015  0.00  0.00    +0.024 A 
ATOM     27  C   UNL     1      -3.375  -2.387  24.401  0.00  0.00    -0.045 A 
ATOM     29  C   UNL     1      -3.917  -1.571  23.408  0.00  0.00    +0.006 A 
ATOM     30  C   UNL     1      -3.245  -1.907  25.705  0.00  0.00    +0.006 A 
BRANCH  27  28
ATOM     28  C   UNL     1      -2.934  -3.773  24.069  0.00  0.00    +0.013 C 
ATOM     31  C   UNL     1      -3.905  -4.487  23.111  0.00  0.00    +0.012 C 
ATOM     32  C   UNL     1      -1.506  -3.813  23.492  0.00  0.00    +0.012 C 
ENDBRANCH  27  28
ENDBRANCH  10  21
ENDBRANCH   5  18
ENDBRANCH  14   5
TORSDOF 7
ENDMDL
