MODEL 1
REMARK VINA RESULT:      -2.4      0.000      0.000
REMARK  Name = 11886012
REMARK  8 active torsions:
REMARK  status: ('A' for Active; 'I' for Inactive)
REMARK    1  A    between atoms: S_1  and  C_21
REMARK    2  A    between atoms: S_1  and  C_23
REMARK    3  A    between atoms: O_7  and  C_18
REMARK    4  A    between atoms: O_7  and  C_22
REMARK    5  A    between atoms: N_10  and  C_17
REMARK    6  A    between atoms: N_14  and  C_24
REMARK    7  A    between atoms: C_23  and  C_25
REMARK    8  A    between atoms: C_28  and  C_33
REMARK                            x       y       z     vdW  Elec       q    Type
REMARK                         _______ _______ _______ _____ _____    ______ ____
ROOT
ATOM      5  O   UNL     1      -2.283   0.265  24.989  0.00  0.00    -0.368 OA
ATOM      6  O   UNL     1      -4.662  -1.432  23.980  0.00  0.00    -0.368 OA
ATOM     15  C   UNL     1      -4.572  -0.374  24.958  0.00  0.00    +0.177 C 
ATOM     16  C   UNL     1      -3.247  -0.550  25.674  0.00  0.00    +0.192 C 
ATOM     17  C   UNL     1      -4.448   0.962  24.252  0.00  0.00    +0.168 C 
ATOM     18  C   UNL     1      -2.964  -2.022  25.491  0.00  0.00    +0.235 C 
ATOM     19  C   UNL     1      -2.947   1.074  24.006  0.00  0.00    +0.190 C 
ATOM     20  C   UNL     1      -3.512  -2.281  24.107  0.00  0.00    +0.207 C 
ENDROOT
BRANCH  17  10
ATOM     10  N   UNL     1      -5.042   2.060  25.019  0.00  0.00    -0.212 N 
ATOM     11  N   UNL     1      -5.977   1.810  25.944  0.00  0.00    -0.043 NA
ATOM     12  N   UNL     1      -5.568   3.999  25.834  0.00  0.00    -0.101 NA
ATOM     13  N   UNL     1      -6.296   3.000  26.440  0.00  0.00    -0.022 NA
ATOM     21  C   UNL     1      -4.798   3.395  24.958  0.00  0.00    +0.210 A 
BRANCH  21   1
ATOM      1  S   UNL     1      -3.658   4.114  23.890  0.00  0.00    -0.077 S 
BRANCH   1  23
ATOM     23  C   UNL     1      -2.401   4.721  25.055  0.00  0.00    +0.151 C 
BRANCH  23  25
ATOM      9  O   UNL     1      -1.132   3.130  26.385  0.00  0.00    -0.467 OA
ATOM     25  C   UNL     1      -1.263   3.749  25.183  0.00  0.00    +0.115 A 
ATOM     29  C   UNL     1      -0.283   3.329  24.313  0.00  0.00    +0.045 A 
ATOM     32  C   UNL     1       0.501   2.393  25.027  0.00  0.00    +0.041 A 
ATOM     34  C   UNL     1      -0.056   2.307  26.282  0.00  0.00    +0.195 A 
ENDBRANCH  23  25
ENDBRANCH   1  23
ENDBRANCH  21   1
ENDBRANCH  17  10
BRANCH  18   7
ATOM      7  O   UNL     1      -1.596  -2.349  25.589  0.00  0.00    -0.442 OA
BRANCH   7  22
ATOM      8  O   UNL     1      -1.023  -2.958  23.460  0.00  0.00    -0.226 OA
ATOM     14  N   UNL     1       0.090  -1.234  24.588  0.00  0.00    -0.251 N 
ATOM     22  C   UNL     1      -0.844  -2.241  24.437  0.00  0.00    +0.405 C 
ATOM     35  H   UNL     1       0.085  -0.747  25.480  0.00  0.00    +0.158 HD
BRANCH  14  24
ATOM     24  C   UNL     1       1.055  -0.796  23.652  0.00  0.00    +0.037 A 
ATOM     26  C   UNL     1       2.396  -0.702  24.025  0.00  0.00    +0.035 A 
ATOM     27  C   UNL     1       0.666  -0.457  22.357  0.00  0.00    +0.023 A 
ATOM     28  C   UNL     1       3.347  -0.269  23.101  0.00  0.00    +0.057 A 
ATOM     30  C   UNL     1       1.617  -0.024  21.433  0.00  0.00    +0.002 A 
ATOM     31  C   UNL     1       2.958   0.069  21.806  0.00  0.00    +0.012 A 
BRANCH  28  33
ATOM      2  F   UNL     1       5.642  -0.120  22.439  0.00  0.00    -0.166 F 
ATOM      3  F   UNL     1       5.066   0.943  24.240  0.00  0.00    -0.166 F 
ATOM      4  F   UNL     1       5.192  -1.228  24.256  0.00  0.00    -0.166 F 
ATOM     33  C   UNL     1       4.780  -0.168  23.499  0.00  0.00    +0.417 C 
ENDBRANCH  28  33
ENDBRANCH  14  24
ENDBRANCH   7  22
ENDBRANCH  18   7
TORSDOF 8
ENDMDL
MODEL 2
REMARK VINA RESULT:       0.8      2.734      4.000
REMARK  Name = 11886012
REMARK  8 active torsions:
REMARK  status: ('A' for Active; 'I' for Inactive)
REMARK    1  A    between atoms: S_1  and  C_21
REMARK    2  A    between atoms: S_1  and  C_23
REMARK    3  A    between atoms: O_7  and  C_18
REMARK    4  A    between atoms: O_7  and  C_22
REMARK    5  A    between atoms: N_10  and  C_17
REMARK    6  A    between atoms: N_14  and  C_24
REMARK    7  A    between atoms: C_23  and  C_25
REMARK    8  A    between atoms: C_28  and  C_33
REMARK                            x       y       z     vdW  Elec       q    Type
REMARK                         _______ _______ _______ _____ _____    ______ ____
ROOT
ATOM      5  O   UNL     1      -3.870   2.006  23.491  0.00  0.00    -0.368 OA
ATOM      6  O   UNL     1      -5.631   3.143  25.764  0.00  0.00    -0.368 OA
ATOM     15  C   UNL     1      -4.202   3.138  25.554  0.00  0.00    +0.177 C 
ATOM     16  C   UNL     1      -3.858   1.807  24.913  0.00  0.00    +0.192 C 
ATOM     17  C   UNL     1      -3.838   4.171  24.505  0.00  0.00    +0.168 C 
ATOM     18  C   UNL     1      -4.993   0.919  25.362  0.00  0.00    +0.235 C 
ATOM     19  C   UNL     1      -4.023   3.403  23.200  0.00  0.00    +0.190 C 
ATOM     20  C   UNL     1      -6.163   1.874  25.359  0.00  0.00    +0.207 C 
ENDROOT
BRANCH  17  10
ATOM     10  N   UNL     1      -2.505   4.739  24.715  0.00  0.00    -0.212 N 
ATOM     11  N   UNL     1      -2.209   5.960  24.248  0.00  0.00    -0.043 NA
ATOM     12  N   UNL     1      -0.443   5.083  25.290  0.00  0.00    -0.101 NA
ATOM     13  N   UNL     1      -0.946   6.165  24.603  0.00  0.00    -0.022 NA
ATOM     21  C   UNL     1      -1.424   4.212  25.348  0.00  0.00    +0.210 A 
BRANCH  21   1
ATOM      1  S   UNL     1      -1.407   2.659  26.084  0.00  0.00    -0.077 S 
BRANCH   1  23
ATOM     23  C   UNL     1       0.378   2.334  26.207  0.00  0.00    +0.151 C 
BRANCH  23  25
ATOM      9  O   UNL     1       2.156   2.833  27.789  0.00  0.00    -0.467 OA
ATOM     25  C   UNL     1       0.858   2.464  27.624  0.00  0.00    +0.115 A 
ATOM     29  C   UNL     1       0.248   2.284  28.844  0.00  0.00    +0.045 A 
ATOM     32  C   UNL     1       1.234   2.560  29.821  0.00  0.00    +0.041 A 
ATOM     34  C   UNL     1       2.376   2.889  29.128  0.00  0.00    +0.195 A 
ENDBRANCH  23  25
ENDBRANCH   1  23
ENDBRANCH  21   1
ENDBRANCH  17  10
BRANCH  18   7
ATOM      7  O   UNL     1      -5.209  -0.189  24.518  0.00  0.00    -0.442 OA
BRANCH   7  22
ATOM      8  O   UNL     1      -4.234  -2.108  23.744  0.00  0.00    -0.226 OA
ATOM     14  N   UNL     1      -2.971  -0.393  24.717  0.00  0.00    -0.251 N 
ATOM     22  C   UNL     1      -4.126  -1.010  24.275  0.00  0.00    +0.405 C 
ATOM     35  H   UNL     1      -3.085   0.527  25.136  0.00  0.00    +0.158 HD
BRANCH  14  24
ATOM     24  C   UNL     1      -1.647  -0.885  24.661  0.00  0.00    +0.037 A 
ATOM     26  C   UNL     1      -0.704  -0.256  23.847  0.00  0.00    +0.035 A 
ATOM     27  C   UNL     1      -1.283  -1.997  25.419  0.00  0.00    +0.023 A 
ATOM     28  C   UNL     1       0.602  -0.742  23.792  0.00  0.00    +0.057 A 
ATOM     30  C   UNL     1       0.024  -2.482  25.364  0.00  0.00    +0.002 A 
ATOM     31  C   UNL     1       0.966  -1.854  24.550  0.00  0.00    +0.012 A 
BRANCH  28  33
ATOM      2  F   UNL     1       2.870  -0.585  23.045  0.00  0.00    -0.166 F 
ATOM      3  F   UNL     1       1.323  -0.151  21.589  0.00  0.00    -0.166 F 
ATOM      4  F   UNL     1       1.732   1.262  23.189  0.00  0.00    -0.166 F 
ATOM     33  C   UNL     1       1.610  -0.071  22.921  0.00  0.00    +0.417 C 
ENDBRANCH  28  33
ENDBRANCH  14  24
ENDBRANCH   7  22
ENDBRANCH  18   7
TORSDOF 8
ENDMDL
MODEL 3
REMARK VINA RESULT:       1.0      1.639      4.010
REMARK  Name = 11886012
REMARK  8 active torsions:
REMARK  status: ('A' for Active; 'I' for Inactive)
REMARK    1  A    between atoms: S_1  and  C_21
REMARK    2  A    between atoms: S_1  and  C_23
REMARK    3  A    between atoms: O_7  and  C_18
REMARK    4  A    between atoms: O_7  and  C_22
REMARK    5  A    between atoms: N_10  and  C_17
REMARK    6  A    between atoms: N_14  and  C_24
REMARK    7  A    between atoms: C_23  and  C_25
REMARK    8  A    between atoms: C_28  and  C_33
REMARK                            x       y       z     vdW  Elec       q    Type
REMARK                         _______ _______ _______ _____ _____    ______ ____
ROOT
ATOM      5  O   UNL     1      -2.224   3.413  26.522  0.00  0.00    -0.368 OA
ATOM      6  O   UNL     1      -3.337   5.382  24.414  0.00  0.00    -0.368 OA
ATOM     15  C   UNL     1      -3.613   3.990  24.682  0.00  0.00    +0.177 C 
ATOM     16  C   UNL     1      -2.299   3.352  25.089  0.00  0.00    +0.192 C 
ATOM     17  C   UNL     1      -4.490   3.873  25.914  0.00  0.00    +0.168 C 
ATOM     18  C   UNL     1      -1.277   4.254  24.439  0.00  0.00    +0.235 C 
ATOM     19  C   UNL     1      -3.474   3.881  27.051  0.00  0.00    +0.190 C 
ATOM     20  C   UNL     1      -1.928   5.612  24.561  0.00  0.00    +0.207 C 
ENDROOT
BRANCH  17  10
ATOM     10  N   UNL     1      -5.371   2.704  25.867  0.00  0.00    -0.212 N 
ATOM     11  N   UNL     1      -6.436   2.627  26.676  0.00  0.00    -0.043 NA
ATOM     12  N   UNL     1      -6.307   0.806  25.396  0.00  0.00    -0.101 NA
ATOM     13  N   UNL     1      -7.006   1.464  26.383  0.00  0.00    -0.022 NA
ATOM     21  C   UNL     1      -5.300   1.591  25.091  0.00  0.00    +0.210 A 
BRANCH  21   1
ATOM      1  S   UNL     1      -4.071   1.315  23.920  0.00  0.00    -0.077 S 
BRANCH   1  23
ATOM     23  C   UNL     1      -3.906  -0.494  23.987  0.00  0.00    +0.151 C 
BRANCH  23  25
ATOM      9  O   UNL     1      -2.099  -0.050  25.552  0.00  0.00    -0.467 OA
ATOM     25  C   UNL     1      -2.605  -0.898  24.617  0.00  0.00    +0.115 A 
ATOM     29  C   UNL     1      -1.776  -1.985  24.452  0.00  0.00    +0.045 A 
ATOM     32  C   UNL     1      -0.693  -1.791  25.341  0.00  0.00    +0.041 A 
ATOM     34  C   UNL     1      -0.935  -0.601  25.986  0.00  0.00    +0.195 A 
ENDBRANCH  23  25
ENDBRANCH   1  23
ENDBRANCH  21   1
ENDBRANCH  17  10
BRANCH  18   7
ATOM      7  O   UNL     1      -0.013   4.214  25.061  0.00  0.00    -0.442 OA
BRANCH   7  22
ATOM      8  O   UNL     1       0.843   2.393  26.150  0.00  0.00    -0.226 OA
ATOM     14  N   UNL     1       0.945   2.592  23.819  0.00  0.00    -0.251 N 
ATOM     22  C   UNL     1       0.624   2.990  25.103  0.00  0.00    +0.405 C 
ATOM     35  H   UNL     1       0.678   3.229  23.072  0.00  0.00    +0.158 HD
BRANCH  14  24
ATOM     24  C   UNL     1       1.600   1.407  23.414  0.00  0.00    +0.037 A 
ATOM     26  C   UNL     1       2.973   1.266  23.613  0.00  0.00    +0.035 A 
ATOM     27  C   UNL     1       0.872   0.378  22.816  0.00  0.00    +0.023 A 
ATOM     28  C   UNL     1       3.618   0.096  23.213  0.00  0.00    +0.057 A 
ATOM     30  C   UNL     1       1.517  -0.792  22.416  0.00  0.00    +0.002 A 
ATOM     31  C   UNL     1       2.891  -0.933  22.615  0.00  0.00    +0.012 A 
BRANCH  28  33
ATOM      2  F   UNL     1       5.429  -1.191  24.102  0.00  0.00    -0.166 F 
ATOM      3  F   UNL     1       5.805  -0.103  22.264  0.00  0.00    -0.166 F 
ATOM      4  F   UNL     1       5.623   0.975  24.143  0.00  0.00    -0.166 F 
ATOM     33  C   UNL     1       5.087  -0.055  23.424  0.00  0.00    +0.417 C 
ENDBRANCH  28  33
ENDBRANCH  14  24
ENDBRANCH   7  22
ENDBRANCH  18   7
TORSDOF 8
ENDMDL
