MODEL 1
REMARK VINA RESULT:      -1.8      0.000      0.000
REMARK  Name = 45361633
REMARK  12 active torsions:
REMARK  status: ('A' for Active; 'I' for Inactive)
REMARK    1  A    between atoms: O_1  and  C_12
REMARK    2  A    between atoms: O_4  and  C_29
REMARK    3  A    between atoms: O_4  and  C_31
REMARK    4  A    between atoms: N_5  and  C_16
REMARK    5  A    between atoms: N_6  and  C_26
REMARK    6  A    between atoms: C_9  and  C_19
REMARK    7  A    between atoms: C_11  and  C_21
REMARK    8  A    between atoms: C_15  and  C_20
REMARK    9  A    between atoms: C_20  and  C_22
REMARK   10  A    between atoms: C_20  and  C_23
REMARK   11  A    between atoms: C_24  and  C_25
REMARK   12  A    between atoms: C_26  and  C_29
REMARK                            x       y       z     vdW  Elec       q    Type
REMARK                         _______ _______ _______ _____ _____    ______ ____
ROOT
ATOM      9  C   UNL     1      -2.956  -1.257  24.826  0.00  0.00    -0.027 C 
ATOM     10  C   UNL     1      -2.564   0.113  24.179  0.00  0.00    +0.028 C 
ATOM     11  C   UNL     1      -1.017   0.364  24.297  0.00  0.00    +0.012 C 
ATOM     12  C   UNL     1      -3.470   1.264  24.703  0.00  0.00    +0.122 C 
ATOM     13  C   UNL     1      -4.461  -1.525  24.593  0.00  0.00    +0.007 C 
ATOM     14  C   UNL     1      -2.163  -2.388  24.130  0.00  0.00    +0.009 C 
ATOM     15  C   UNL     1      -4.976   0.945  24.564  0.00  0.00    +0.029 C 
ATOM     16  C   UNL     1      -0.229  -0.816  23.661  0.00  0.00    +0.076 C 
ATOM     17  C   UNL     1      -5.354  -0.419  25.140  0.00  0.00    +0.007 C 
ATOM     18  C   UNL     1      -0.656  -2.185  24.188  0.00  0.00    +0.023 C 
ATOM     19  C   UNL     1      -2.673  -1.298  26.349  0.00  0.00    +0.011 C 
ATOM     21  C   UNL     1      -0.557   1.684  23.655  0.00  0.00    +0.010 C 
ENDROOT
BRANCH  16   5
ATOM      3  O   UNL     1       1.721  -0.202  21.645  0.00  0.00    -0.270 OA
ATOM      5  N   UNL     1       1.198  -0.674  23.854  0.00  0.00    -0.308 N 
ATOM     24  C   UNL     1       2.060  -0.374  22.813  0.00  0.00    +0.247 C 
ATOM     32  H   UNL     1       1.565  -0.902  24.772  0.00  0.00    +0.149 HD
BRANCH  24  25
ATOM      7  N   UNL     1       5.481  -1.296  24.096  0.00  0.00    -0.243 NA
ATOM      8  N   UNL     1       5.556   0.959  23.250  0.00  0.00    -0.243 NA
ATOM     25  C   UNL     1       3.500  -0.289  23.171  0.00  0.00    +0.073 A 
ATOM     27  C   UNL     1       4.175  -1.339  23.758  0.00  0.00    +0.127 A 
ATOM     28  C   UNL     1       4.248   0.847  22.938  0.00  0.00    +0.127 A 
ATOM     30  C   UNL     1       6.101  -0.133  23.818  0.00  0.00    +0.221 A 
ENDBRANCH  24  25
ENDBRANCH  16   5
BRANCH  12   1
ATOM      1  O   UNL     1      -3.229   2.446  23.940  0.00  0.00    -0.391 OA
ATOM     33  H   UNL     1      -3.887   2.484  23.225  0.00  0.00    +0.210 HD
ENDBRANCH  12   1
BRANCH  15  20
ATOM     20  C   UNL     1      -5.849   2.031  25.204  0.00  0.00    +0.077 C 
ATOM     22  C   UNL     1      -7.106   2.253  24.371  0.00  0.00    +0.017 C 
BRANCH  20  23
ATOM      2  O   UNL     1      -5.162   4.269  24.584  0.00  0.00    -0.276 OA
ATOM      6  N   UNL     1      -4.193   3.289  26.450  0.00  0.00    -0.313 N 
ATOM     23  C   UNL     1      -5.048   3.320  25.357  0.00  0.00    +0.216 C 
ATOM     34  H   UNL     1      -4.198   2.489  27.074  0.00  0.00    +0.149 HD
BRANCH   6  26
ATOM     26  C   UNL     1      -3.329   4.393  26.798  0.00  0.00    +0.132 C 
BRANCH  26  29
ATOM     29  C   UNL     1      -1.935   4.214  26.226  0.00  0.00    +0.178 C 
BRANCH  29   4
ATOM      4  O   UNL     1      -1.862   4.845  24.953  0.00  0.00    -0.381 OA
ATOM     31  C   UNL     1      -0.523   5.177  24.612  0.00  0.00    +0.194 C 
ENDBRANCH  29   4
ENDBRANCH  26  29
ENDBRANCH   6  26
ENDBRANCH  20  23
ENDBRANCH  15  20
TORSDOF 8
ENDMDL
