MODEL 1
REMARK VINA RESULT:      -6.4      0.000      0.000
REMARK  Name = 11943556
REMARK  5 active torsions:
REMARK  status: ('A' for Active; 'I' for Inactive)
REMARK    1  A    between atoms: N_3  and  C_11
REMARK    2  A    between atoms: N_3  and  C_13
REMARK    3  A    between atoms: C_5  and  C_11
REMARK    4  A    between atoms: C_7  and  C_12
REMARK    5  A    between atoms: C_13  and  C_15
REMARK                            x       y       z     vdW  Elec       q    Type
REMARK                         _______ _______ _______ _____ _____    ______ ____
ROOT
ATOM     11  C   UNL     1      -0.770   0.301  26.066  0.00  0.00    +0.100 C 
ENDROOT
BRANCH  11   5
ATOM      2  N   UNL     1      -1.659  -1.167  24.237  0.00  0.00    -0.297 NA
ATOM      4  C   UNL     1      -3.859  -1.754  25.500  0.00  0.00    +0.008 C 
ATOM      5  C   UNL     1      -1.460  -1.016  25.704  0.00  0.00    +0.071 C 
ATOM      6  C   UNL     1      -2.792  -1.195  26.464  0.00  0.00    +0.025 C 
ATOM      7  C   UNL     1      -4.120  -0.717  24.384  0.00  0.00    +0.081 C 
ATOM      8  C   UNL     1      -3.257  -2.999  24.822  0.00  0.00    +0.020 C 
ATOM      9  C   UNL     1      -2.766  -0.292  23.777  0.00  0.00    +0.101 C 
ATOM     10  C   UNL     1      -2.043  -2.575  23.973  0.00  0.00    +0.085 C 
BRANCH   7  12
ATOM     12  C   UNL     1      -4.880   0.443  24.876  0.00  0.00    -0.101 C 
ATOM     14  C   UNL     1      -5.501   1.389  25.278  0.00  0.00    +0.004 C 
ENDBRANCH   7  12
ENDBRANCH  11   5
BRANCH  11   3
ATOM      3  N   UNL     1       0.111   0.705  24.958  0.00  0.00    -0.311 NA
ATOM     21  H   UNL     1      -0.295   0.387  24.077  0.00  0.00    +0.122 HD
BRANCH   3  13
ATOM     13  C   UNL     1       0.266   2.148  24.936  0.00  0.00    +0.116 C 
BRANCH  13  15
ATOM      1 CL   UNL     1      -4.126   3.329  22.414  0.00  0.00    -0.084 Cl
ATOM     15  C   UNL     1      -1.063   2.855  24.928  0.00  0.00    -0.032 A 
ATOM     16  C   UNL     1      -1.875   2.770  23.805  0.00  0.00    +0.025 A 
ATOM     17  C   UNL     1      -1.458   3.579  26.043  0.00  0.00    +0.005 A 
ATOM     18  C   UNL     1      -3.107   3.424  23.798  0.00  0.00    +0.041 A 
ATOM     19  C   UNL     1      -2.691   4.233  26.036  0.00  0.00    +0.002 A 
ATOM     20  C   UNL     1      -3.515   4.155  24.914  0.00  0.00    +0.020 A 
ENDBRANCH  13  15
ENDBRANCH   3  13
ENDBRANCH  11   3
TORSDOF 5
ENDMDL
MODEL 2
REMARK VINA RESULT:      -5.3      1.628      5.063
REMARK  Name = 11943556
REMARK  5 active torsions:
REMARK  status: ('A' for Active; 'I' for Inactive)
REMARK    1  A    between atoms: N_3  and  C_11
REMARK    2  A    between atoms: N_3  and  C_13
REMARK    3  A    between atoms: C_5  and  C_11
REMARK    4  A    between atoms: C_7  and  C_12
REMARK    5  A    between atoms: C_13  and  C_15
REMARK                            x       y       z     vdW  Elec       q    Type
REMARK                         _______ _______ _______ _____ _____    ______ ____
ROOT
ATOM     11  C   UNL     1      -0.601   1.055  26.203  0.00  0.00    +0.100 C 
ENDROOT
BRANCH  11   5
ATOM      2  N   UNL     1      -2.028   3.117  26.146  0.00  0.00    -0.297 NA
ATOM      4  C   UNL     1      -1.086   3.952  23.867  0.00  0.00    +0.008 C 
ATOM      5  C   UNL     1      -0.667   2.558  25.922  0.00  0.00    +0.071 C 
ATOM      6  C   UNL     1      -0.155   2.900  24.506  0.00  0.00    +0.025 C 
ATOM      7  C   UNL     1      -2.493   3.338  23.693  0.00  0.00    +0.081 C 
ATOM      8  C   UNL     1      -1.225   5.112  24.870  0.00  0.00    +0.020 C 
ATOM      9  C   UNL     1      -2.934   2.722  25.038  0.00  0.00    +0.101 C 
ATOM     10  C   UNL     1      -1.917   4.597  26.146  0.00  0.00    +0.085 C 
BRANCH   7  12
ATOM     12  C   UNL     1      -2.532   2.346  22.606  0.00  0.00    -0.101 C 
ATOM     14  C   UNL     1      -2.563   1.537  21.720  0.00  0.00    +0.004 C 
ENDBRANCH   7  12
ENDBRANCH  11   5
BRANCH  11   3
ATOM      3  N   UNL     1      -0.165   0.354  24.985  0.00  0.00    -0.311 NA
ATOM     21  H   UNL     1       0.836   0.507  24.854  0.00  0.00    +0.122 HD
BRANCH   3  13
ATOM     13  C   UNL     1      -0.434  -1.068  25.096  0.00  0.00    +0.116 C 
BRANCH  13  15
ATOM      1 CL   UNL     1      -5.367   0.498  24.586  0.00  0.00    -0.084 Cl
ATOM     15  C   UNL     1      -1.859  -1.398  24.741  0.00  0.00    -0.032 A 
ATOM     16  C   UNL     1      -2.831  -0.410  24.821  0.00  0.00    +0.025 A 
ATOM     17  C   UNL     1      -2.181  -2.686  24.335  0.00  0.00    +0.005 A 
ATOM     18  C   UNL     1      -4.150  -0.716  24.490  0.00  0.00    +0.041 A 
ATOM     19  C   UNL     1      -3.501  -2.992  24.004  0.00  0.00    +0.002 A 
ATOM     20  C   UNL     1      -4.485  -2.007  24.081  0.00  0.00    +0.020 A 
ENDBRANCH  13  15
ENDBRANCH   3  13
ENDBRANCH  11   3
TORSDOF 5
ENDMDL
MODEL 3
REMARK VINA RESULT:      -5.3      1.851      4.768
REMARK  Name = 11943556
REMARK  5 active torsions:
REMARK  status: ('A' for Active; 'I' for Inactive)
REMARK    1  A    between atoms: N_3  and  C_11
REMARK    2  A    between atoms: N_3  and  C_13
REMARK    3  A    between atoms: C_5  and  C_11
REMARK    4  A    between atoms: C_7  and  C_12
REMARK    5  A    between atoms: C_13  and  C_15
REMARK                            x       y       z     vdW  Elec       q    Type
REMARK                         _______ _______ _______ _____ _____    ______ ____
ROOT
ATOM     11  C   UNL     1      -1.040   1.153  23.247  0.00  0.00    +0.100 C 
ENDROOT
BRANCH  11   5
ATOM      2  N   UNL     1      -1.054   2.860  25.084  0.00  0.00    -0.297 NA
ATOM      4  C   UNL     1      -3.259   3.994  24.292  0.00  0.00    +0.008 C 
ATOM      5  C   UNL     1      -1.256   2.619  23.630  0.00  0.00    +0.071 C 
ATOM      6  C   UNL     1      -2.636   3.136  23.171  0.00  0.00    +0.025 C 
ATOM      7  C   UNL     1      -3.508   3.102  25.528  0.00  0.00    +0.081 C 
ATOM      8  C   UNL     1      -2.209   5.044  24.703  0.00  0.00    +0.020 C 
ATOM      9  C   UNL     1      -2.208   2.337  25.857  0.00  0.00    +0.101 C 
ATOM     10  C   UNL     1      -0.982   4.327  25.297  0.00  0.00    +0.085 C 
BRANCH   7  12
ATOM     12  C   UNL     1      -4.639   2.182  25.326  0.00  0.00    -0.101 C 
ATOM     14  C   UNL     1      -5.561   1.431  25.162  0.00  0.00    +0.004 C 
ENDBRANCH   7  12
ENDBRANCH  11   5
BRANCH  11   3
ATOM      3  N   UNL     1       0.249   0.696  23.791  0.00  0.00    -0.311 NA
ATOM     21  H   UNL     1       0.471   1.243  24.623  0.00  0.00    +0.122 HD
BRANCH   3  13
ATOM     13  C   UNL     1       0.183  -0.713  24.130  0.00  0.00    +0.116 C 
BRANCH  13  15
ATOM      1 CL   UNL     1      -4.566  -2.744  23.523  0.00  0.00    -0.084 Cl
ATOM     15  C   UNL     1      -1.146  -1.083  24.734  0.00  0.00    -0.032 A 
ATOM     16  C   UNL     1      -2.119  -1.671  23.938  0.00  0.00    +0.025 A 
ATOM     17  C   UNL     1      -1.378  -0.833  26.079  0.00  0.00    +0.005 A 
ATOM     18  C   UNL     1      -3.349  -2.016  24.498  0.00  0.00    +0.041 A 
ATOM     19  C   UNL     1      -2.608  -1.177  26.639  0.00  0.00    +0.002 A 
ATOM     20  C   UNL     1      -3.593  -1.769  25.849  0.00  0.00    +0.020 A 
ENDBRANCH  13  15
ENDBRANCH   3  13
ENDBRANCH  11   3
TORSDOF 5
ENDMDL
MODEL 4
REMARK VINA RESULT:      -5.0     14.262     16.956
REMARK  Name = 11943556
REMARK  5 active torsions:
REMARK  status: ('A' for Active; 'I' for Inactive)
REMARK    1  A    between atoms: N_3  and  C_11
REMARK    2  A    between atoms: N_3  and  C_13
REMARK    3  A    between atoms: C_5  and  C_11
REMARK    4  A    between atoms: C_7  and  C_12
REMARK    5  A    between atoms: C_13  and  C_15
REMARK                            x       y       z     vdW  Elec       q    Type
REMARK                         _______ _______ _______ _____ _____    ______ ____
ROOT
ATOM     11  C   UNL     1      -6.396 -10.600  12.612  0.00  0.00    +0.100 C 
ENDROOT
BRANCH  11   5
ATOM      2  N   UNL     1      -6.483 -10.581  10.105  0.00  0.00    -0.297 NA
ATOM      4  C   UNL     1      -5.281  -8.284   9.878  0.00  0.00    +0.008 C 
ATOM      5  C   UNL     1      -6.671  -9.783  11.347  0.00  0.00    +0.071 C 
ATOM      6  C   UNL     1      -5.830  -8.489  11.305  0.00  0.00    +0.025 C 
ATOM      7  C   UNL     1      -4.322  -9.446   9.536  0.00  0.00    +0.081 C 
ATOM      8  C   UNL     1      -6.473  -8.387   8.908  0.00  0.00    +0.020 C 
ATOM      9  C   UNL     1      -5.037 -10.781   9.837  0.00  0.00    +0.101 C 
ATOM     10  C   UNL     1      -7.059  -9.809   8.977  0.00  0.00    +0.085 C 
BRANCH   7  12
ATOM     12  C   UNL     1      -3.046  -9.341  10.260  0.00  0.00    -0.101 C 
ATOM     14  C   UNL     1      -2.005  -9.256  10.853  0.00  0.00    +0.004 C 
ENDBRANCH   7  12
ENDBRANCH  11   5
BRANCH  11   3
ATOM      3  N   UNL     1      -5.986  -9.691  13.695  0.00  0.00    -0.311 NA
ATOM     21  H   UNL     1      -6.818  -9.357  14.182  0.00  0.00    +0.122 HD
BRANCH   3  13
ATOM     13  C   UNL     1      -5.112 -10.378  14.628  0.00  0.00    +0.116 C 
BRANCH  13  15
ATOM      1 CL   UNL     1      -9.114  -9.515  17.835  0.00  0.00    -0.084 Cl
ATOM     15  C   UNL     1      -5.649 -10.337  16.034  0.00  0.00    -0.032 A 
ATOM     16  C   UNL     1      -6.975  -9.986  16.249  0.00  0.00    +0.025 A 
ATOM     17  C   UNL     1      -4.812 -10.651  17.094  0.00  0.00    +0.005 A 
ATOM     18  C   UNL     1      -7.472  -9.949  17.551  0.00  0.00    +0.041 A 
ATOM     19  C   UNL     1      -5.309 -10.614  18.397  0.00  0.00    +0.002 A 
ATOM     20  C   UNL     1      -6.640 -10.263  18.625  0.00  0.00    +0.020 A 
ENDBRANCH  13  15
ENDBRANCH   3  13
ENDBRANCH  11   3
TORSDOF 5
ENDMDL
MODEL 5
REMARK VINA RESULT:      -4.8      2.281      5.542
REMARK  Name = 11943556
REMARK  5 active torsions:
REMARK  status: ('A' for Active; 'I' for Inactive)
REMARK    1  A    between atoms: N_3  and  C_11
REMARK    2  A    between atoms: N_3  and  C_13
REMARK    3  A    between atoms: C_5  and  C_11
REMARK    4  A    between atoms: C_7  and  C_12
REMARK    5  A    between atoms: C_13  and  C_15
REMARK                            x       y       z     vdW  Elec       q    Type
REMARK                         _______ _______ _______ _____ _____    ______ ____
ROOT
ATOM     11  C   UNL     1      -1.972   1.517  23.133  0.00  0.00    +0.100 C 
ENDROOT
BRANCH  11   5
ATOM      2  N   UNL     1      -0.955   2.848  24.999  0.00  0.00    -0.297 NA
ATOM      4  C   UNL     1      -2.674   4.795  24.820  0.00  0.00    +0.008 C 
ATOM      5  C   UNL     1      -1.529   2.895  23.627  0.00  0.00    +0.071 C 
ATOM      6  C   UNL     1      -2.671   3.931  23.541  0.00  0.00    +0.025 C 
ATOM      7  C   UNL     1      -2.984   3.893  26.035  0.00  0.00    +0.081 C 
ATOM      8  C   UNL     1      -1.243   5.331  25.014  0.00  0.00    +0.020 C 
ATOM      9  C   UNL     1      -2.036   2.675  26.002  0.00  0.00    +0.101 C 
ATOM     10  C   UNL     1      -0.288   4.147  25.259  0.00  0.00    +0.085 C 
BRANCH   7  12
ATOM     12  C   UNL     1      -4.396   3.478  26.068  0.00  0.00    -0.101 C 
ATOM     14  C   UNL     1      -5.547   3.139  26.097  0.00  0.00    +0.004 C 
ENDBRANCH   7  12
ENDBRANCH  11   5
BRANCH  11   3
ATOM      3  N   UNL     1      -3.435   1.511  22.962  0.00  0.00    -0.311 NA
ATOM     21  H   UNL     1      -3.665   1.054  22.080  0.00  0.00    +0.122 HD
BRANCH   3  13
ATOM     13  C   UNL     1      -4.068   0.807  24.061  0.00  0.00    +0.116 C 
BRANCH  13  15
ATOM      1 CL   UNL     1      -0.047  -2.170  25.480  0.00  0.00    -0.084 Cl
ATOM     15  C   UNL     1      -3.491  -0.570  24.252  0.00  0.00    -0.032 A 
ATOM     16  C   UNL     1      -2.191  -0.708  24.721  0.00  0.00    +0.025 A 
ATOM     17  C   UNL     1      -4.266  -1.683  23.959  0.00  0.00    +0.005 A 
ATOM     18  C   UNL     1      -1.657  -1.983  24.900  0.00  0.00    +0.041 A 
ATOM     19  C   UNL     1      -3.732  -2.959  24.138  0.00  0.00    +0.002 A 
ATOM     20  C   UNL     1      -2.427  -3.109  24.609  0.00  0.00    +0.020 A 
ENDBRANCH  13  15
ENDBRANCH   3  13
ENDBRANCH  11   3
TORSDOF 5
ENDMDL
MODEL 6
REMARK VINA RESULT:      -4.8      2.393      4.495
REMARK  Name = 11943556
REMARK  5 active torsions:
REMARK  status: ('A' for Active; 'I' for Inactive)
REMARK    1  A    between atoms: N_3  and  C_11
REMARK    2  A    between atoms: N_3  and  C_13
REMARK    3  A    between atoms: C_5  and  C_11
REMARK    4  A    between atoms: C_7  and  C_12
REMARK    5  A    between atoms: C_13  and  C_15
REMARK                            x       y       z     vdW  Elec       q    Type
REMARK                         _______ _______ _______ _____ _____    ______ ____
ROOT
ATOM     11  C   UNL     1      -1.664   3.114  23.917  0.00  0.00    +0.100 C 
ENDROOT
BRANCH  11   5
ATOM      2  N   UNL     1      -3.357   3.088  25.767  0.00  0.00    -0.297 NA
ATOM      4  C   UNL     1      -5.271   2.142  24.277  0.00  0.00    +0.008 C 
ATOM      5  C   UNL     1      -3.102   3.421  24.339  0.00  0.00    +0.071 C 
ATOM      6  C   UNL     1      -4.131   2.729  23.418  0.00  0.00    +0.025 C 
ATOM      7  C   UNL     1      -4.692   1.044  25.197  0.00  0.00    +0.081 C 
ATOM      8  C   UNL     1      -5.783   3.269  25.192  0.00  0.00    +0.020 C 
ATOM      9  C   UNL     1      -3.465   1.617  25.940  0.00  0.00    +0.101 C 
ATOM     10  C   UNL     1      -4.655   3.695  26.151  0.00  0.00    +0.085 C 
BRANCH   7  12
ATOM     12  C   UNL     1      -4.350  -0.178  24.452  0.00  0.00    -0.101 C 
ATOM     14  C   UNL     1      -4.070  -1.174  23.843  0.00  0.00    +0.004 C 
ENDBRANCH   7  12
ENDBRANCH  11   5
BRANCH  11   3
ATOM      3  N   UNL     1      -0.735   3.790  24.838  0.00  0.00    -0.311 NA
ATOM     21  H   UNL     1      -1.261   4.443  25.420  0.00  0.00    +0.122 HD
BRANCH   3  13
ATOM     13  C   UNL     1      -0.059   2.818  25.677  0.00  0.00    +0.116 C 
BRANCH  13  15
ATOM      1 CL   UNL     1       1.536  -0.312  21.843  0.00  0.00    -0.084 Cl
ATOM     15  C   UNL     1      -0.051   1.447  25.054  0.00  0.00    -0.032 A 
ATOM     16  C   UNL     1       0.656   1.236  23.878  0.00  0.00    +0.025 A 
ATOM     17  C   UNL     1      -0.748   0.415  25.664  0.00  0.00    +0.005 A 
ATOM     18  C   UNL     1       0.665  -0.034  23.301  0.00  0.00    +0.041 A 
ATOM     19  C   UNL     1      -0.738  -0.856  25.087  0.00  0.00    +0.002 A 
ATOM     20  C   UNL     1      -0.032  -1.080  23.906  0.00  0.00    +0.020 A 
ENDBRANCH  13  15
ENDBRANCH   3  13
ENDBRANCH  11   3
TORSDOF 5
ENDMDL
MODEL 7
REMARK VINA RESULT:      -4.4      2.000      3.395
REMARK  Name = 11943556
REMARK  5 active torsions:
REMARK  status: ('A' for Active; 'I' for Inactive)
REMARK    1  A    between atoms: N_3  and  C_11
REMARK    2  A    between atoms: N_3  and  C_13
REMARK    3  A    between atoms: C_5  and  C_11
REMARK    4  A    between atoms: C_7  and  C_12
REMARK    5  A    between atoms: C_13  and  C_15
REMARK                            x       y       z     vdW  Elec       q    Type
REMARK                         _______ _______ _______ _____ _____    ______ ____
ROOT
ATOM     11  C   UNL     1      -4.115   0.863  24.075  0.00  0.00    +0.100 C 
ENDROOT
BRANCH  11   5
ATOM      2  N   UNL     1      -3.301  -0.643  25.907  0.00  0.00    -0.297 NA
ATOM      4  C   UNL     1      -2.157  -2.331  24.289  0.00  0.00    +0.008 C 
ATOM      5  C   UNL     1      -3.941  -0.576  24.565  0.00  0.00    +0.071 C 
ATOM      6  C   UNL     1      -3.175  -1.443  23.543  0.00  0.00    +0.025 C 
ATOM      7  C   UNL     1      -1.110  -1.427  24.976  0.00  0.00    +0.081 C 
ATOM      8  C   UNL     1      -2.920  -3.063  25.408  0.00  0.00    +0.020 C 
ATOM      9  C   UNL     1      -1.849  -0.350  25.799  0.00  0.00    +0.101 C 
ATOM     10  C   UNL     1      -3.455  -2.028  26.416  0.00  0.00    +0.085 C 
BRANCH   7  12
ATOM     12  C   UNL     1      -0.180  -0.823  24.009  0.00  0.00    -0.101 C 
ATOM     14  C   UNL     1       0.577  -0.329  23.219  0.00  0.00    +0.004 C 
ENDBRANCH   7  12
ENDBRANCH  11   5
BRANCH  11   3
ATOM      3  N   UNL     1      -3.426   1.020  22.783  0.00  0.00    -0.311 NA
ATOM     21  H   UNL     1      -4.098   0.878  22.029  0.00  0.00    +0.122 HD
BRANCH   3  13
ATOM     13  C   UNL     1      -2.843   2.345  22.680  0.00  0.00    +0.116 C 
BRANCH  13  15
ATOM      1 CL   UNL     1       0.485   2.639  26.665  0.00  0.00    -0.084 Cl
ATOM     15  C   UNL     1      -2.500   2.914  24.031  0.00  0.00    -0.032 A 
ATOM     16  C   UNL     1      -1.308   2.551  24.643  0.00  0.00    +0.025 A 
ATOM     17  C   UNL     1      -3.379   3.795  24.644  0.00  0.00    +0.005 A 
ATOM     18  C   UNL     1      -0.989   3.080  25.893  0.00  0.00    +0.041 A 
ATOM     19  C   UNL     1      -3.060   4.324  25.895  0.00  0.00    +0.002 A 
ATOM     20  C   UNL     1      -1.865   3.966  26.519  0.00  0.00    +0.020 A 
ENDBRANCH  13  15
ENDBRANCH   3  13
ENDBRANCH  11   3
TORSDOF 5
ENDMDL
MODEL 8
REMARK VINA RESULT:      -4.1      2.430      5.662
REMARK  Name = 11943556
REMARK  5 active torsions:
REMARK  status: ('A' for Active; 'I' for Inactive)
REMARK    1  A    between atoms: N_3  and  C_11
REMARK    2  A    between atoms: N_3  and  C_13
REMARK    3  A    between atoms: C_5  and  C_11
REMARK    4  A    between atoms: C_7  and  C_12
REMARK    5  A    between atoms: C_13  and  C_15
REMARK                            x       y       z     vdW  Elec       q    Type
REMARK                         _______ _______ _______ _____ _____    ______ ____
ROOT
ATOM     11  C   UNL     1      -3.513   1.810  23.860  0.00  0.00    +0.100 C 
ENDROOT
BRANCH  11   5
ATOM      2  N   UNL     1      -1.751   3.568  24.168  0.00  0.00    -0.297 NA
ATOM      4  C   UNL     1      -0.213   2.060  25.629  0.00  0.00    +0.008 C 
ATOM      5  C   UNL     1      -2.559   2.509  24.831  0.00  0.00    +0.071 C 
ATOM      6  C   UNL     1      -1.650   1.501  25.568  0.00  0.00    +0.025 C 
ATOM      7  C   UNL     1       0.339   2.186  24.192  0.00  0.00    +0.081 C 
ATOM      8  C   UNL     1      -0.300   3.487  26.202  0.00  0.00    +0.020 C 
ATOM      9  C   UNL     1      -0.687   2.956  23.333  0.00  0.00    +0.101 C 
ATOM     10  C   UNL     1      -1.099   4.374  25.229  0.00  0.00    +0.085 C 
BRANCH   7  12
ATOM     12  C   UNL     1       0.657   0.874  23.605  0.00  0.00    -0.101 C 
ATOM     14  C   UNL     1       0.915  -0.196  23.127  0.00  0.00    +0.004 C 
ENDBRANCH   7  12
ENDBRANCH  11   5
BRANCH  11   3
ATOM      3  N   UNL     1      -4.816   1.618  24.517  0.00  0.00    -0.311 NA
ATOM     21  H   UNL     1      -5.507   1.354  23.814  0.00  0.00    +0.122 HD
BRANCH   3  13
ATOM     13  C   UNL     1      -4.724   0.583  25.529  0.00  0.00    +0.116 C 
BRANCH  13  15
ATOM      1 CL   UNL     1      -0.480  -2.423  25.485  0.00  0.00    -0.084 Cl
ATOM     15  C   UNL     1      -4.021  -0.645  25.014  0.00  0.00    -0.032 A 
ATOM     16  C   UNL     1      -2.730  -0.925  25.441  0.00  0.00    +0.025 A 
ATOM     17  C   UNL     1      -4.675  -1.481  24.120  0.00  0.00    +0.005 A 
ATOM     18  C   UNL     1      -2.081  -2.063  24.965  0.00  0.00    +0.041 A 
ATOM     19  C   UNL     1      -4.025  -2.620  23.643  0.00  0.00    +0.002 A 
ATOM     20  C   UNL     1      -2.728  -2.911  24.066  0.00  0.00    +0.020 A 
ENDBRANCH  13  15
ENDBRANCH   3  13
ENDBRANCH  11   3
TORSDOF 5
ENDMDL
MODEL 9
REMARK VINA RESULT:      -4.0      2.333      5.669
REMARK  Name = 11943556
REMARK  5 active torsions:
REMARK  status: ('A' for Active; 'I' for Inactive)
REMARK    1  A    between atoms: N_3  and  C_11
REMARK    2  A    between atoms: N_3  and  C_13
REMARK    3  A    between atoms: C_5  and  C_11
REMARK    4  A    between atoms: C_7  and  C_12
REMARK    5  A    between atoms: C_13  and  C_15
REMARK                            x       y       z     vdW  Elec       q    Type
REMARK                         _______ _______ _______ _____ _____    ______ ____
ROOT
ATOM     11  C   UNL     1      -4.090   2.301  24.670  0.00  0.00    +0.100 C 
ENDROOT
BRANCH  11   5
ATOM      2  N   UNL     1      -1.853   1.935  25.744  0.00  0.00    -0.297 NA
ATOM      4  C   UNL     1      -0.538   3.259  23.929  0.00  0.00    +0.008 C 
ATOM      5  C   UNL     1      -2.617   1.942  24.466  0.00  0.00    +0.071 C 
ATOM      6  C   UNL     1      -1.941   2.860  23.424  0.00  0.00    +0.025 C 
ATOM      7  C   UNL     1      -0.686   4.091  25.222  0.00  0.00    +0.081 C 
ATOM      8  C   UNL     1       0.197   1.961  24.313  0.00  0.00    +0.020 C 
ATOM      9  C   UNL     1      -1.603   3.325  26.200  0.00  0.00    +0.101 C 
ATOM     10  C   UNL     1      -0.542   1.290  25.486  0.00  0.00    +0.085 C 
BRANCH   7  12
ATOM     12  C   UNL     1      -1.196   5.444  24.952  0.00  0.00    -0.101 C 
ATOM     14  C   UNL     1      -1.612   6.549  24.730  0.00  0.00    +0.004 C 
ENDBRANCH   7  12
ENDBRANCH  11   5
BRANCH  11   3
ATOM      3  N   UNL     1      -4.914   1.100  24.457  0.00  0.00    -0.311 NA
ATOM     21  H   UNL     1      -4.686   0.698  23.547  0.00  0.00    +0.122 HD
BRANCH   3  13
ATOM     13  C   UNL     1      -4.666   0.125  25.502  0.00  0.00    +0.116 C 
BRANCH  13  15
ATOM      1 CL   UNL     1      -0.071  -2.311  25.457  0.00  0.00    -0.084 Cl
ATOM     15  C   UNL     1      -3.821  -1.021  25.011  0.00  0.00    -0.032 A 
ATOM     16  C   UNL     1      -2.497  -1.116  25.417  0.00  0.00    +0.025 A 
ATOM     17  C   UNL     1      -4.379  -1.966  24.163  0.00  0.00    +0.005 A 
ATOM     18  C   UNL     1      -1.715  -2.179  24.964  0.00  0.00    +0.041 A 
ATOM     19  C   UNL     1      -3.596  -3.029  23.709  0.00  0.00    +0.002 A 
ATOM     20  C   UNL     1      -2.265  -3.135  24.110  0.00  0.00    +0.020 A 
ENDBRANCH  13  15
ENDBRANCH   3  13
ENDBRANCH  11   3
TORSDOF 5
ENDMDL
MODEL 10
REMARK VINA RESULT:      -3.8     15.876     18.677
REMARK  Name = 11943556
REMARK  5 active torsions:
REMARK  status: ('A' for Active; 'I' for Inactive)
REMARK    1  A    between atoms: N_3  and  C_11
REMARK    2  A    between atoms: N_3  and  C_13
REMARK    3  A    between atoms: C_5  and  C_11
REMARK    4  A    between atoms: C_7  and  C_12
REMARK    5  A    between atoms: C_13  and  C_15
REMARK                            x       y       z     vdW  Elec       q    Type
REMARK                         _______ _______ _______ _____ _____    ______ ____
ROOT
ATOM     11  C   UNL     1      14.355   7.372  21.695  0.00  0.00    +0.100 C 
ENDROOT
BRANCH  11   5
ATOM      2  N   UNL     1      11.970   6.616  21.523  0.00  0.00    -0.297 NA
ATOM      4  C   UNL     1      11.069   8.950  20.803  0.00  0.00    +0.008 C 
ATOM      5  C   UNL     1      12.889   7.685  22.000  0.00  0.00    +0.071 C 
ATOM      6  C   UNL     1      12.468   9.063  21.444  0.00  0.00    +0.025 C 
ATOM      7  C   UNL     1      11.146   7.990  19.596  0.00  0.00    +0.081 C 
ATOM      8  C   UNL     1      10.141   8.290  21.841  0.00  0.00    +0.020 C 
ATOM      9  C   UNL     1      11.829   6.681  20.046  0.00  0.00    +0.101 C 
ATOM     10  C   UNL     1      10.636   6.860  22.125  0.00  0.00    +0.085 C 
BRANCH   7  12
ATOM     12  C   UNL     1      11.844   8.597  18.451  0.00  0.00    -0.101 C 
ATOM     14  C   UNL     1      12.413   9.094  17.518  0.00  0.00    +0.004 C 
ENDBRANCH   7  12
ENDBRANCH  11   5
BRANCH  11   3
ATOM      3  N   UNL     1      15.169   8.572  21.952  0.00  0.00    -0.311 NA
ATOM     21  H   UNL     1      15.239   8.716  22.960  0.00  0.00    +0.122 HD
BRANCH   3  13
ATOM     13  C   UNL     1      16.495   8.413  21.384  0.00  0.00    +0.116 C 
BRANCH  13  15
ATOM      1 CL   UNL     1      14.424   7.101  16.798  0.00  0.00    -0.084 Cl
ATOM     15  C   UNL     1      16.489   7.496  20.190  0.00  0.00    -0.032 A 
ATOM     16  C   UNL     1      15.567   7.705  19.173  0.00  0.00    +0.025 A 
ATOM     17  C   UNL     1      17.405   6.457  20.122  0.00  0.00    +0.005 A 
ATOM     18  C   UNL     1      15.562   6.857  18.066  0.00  0.00    +0.041 A 
ATOM     19  C   UNL     1      17.400   5.608  19.014  0.00  0.00    +0.002 A 
ATOM     20  C   UNL     1      16.479   5.808  17.987  0.00  0.00    +0.020 A 
ENDBRANCH  13  15
ENDBRANCH   3  13
ENDBRANCH  11   3
TORSDOF 5
ENDMDL
