MODEL 1
REMARK VINA RESULT:       2.1      0.000      0.000
REMARK  Name = 28960503
REMARK  7 active torsions:
REMARK  status: ('A' for Active; 'I' for Inactive)
REMARK    1  A    between atoms: O_3  and  C_9
REMARK    2  A    between atoms: N_5  and  C_8
REMARK    3  A    between atoms: N_6  and  C_10
REMARK    4  A    between atoms: N_6  and  C_19
REMARK    5  A    between atoms: C_18  and  C_20
REMARK    6  A    between atoms: C_19  and  C_21
REMARK    7  A    between atoms: C_26  and  C_27
REMARK                            x       y       z     vdW  Elec       q    Type
REMARK                         _______ _______ _______ _____ _____    ______ ____
ROOT
ATOM      1  O   UNL     1      -5.567   1.760  26.306  0.00  0.00    -0.343 OA
ATOM      2  O   UNL     1      -6.778   2.371  24.425  0.00  0.00    -0.347 OA
ATOM      8  C   UNL     1      -4.455   1.758  24.164  0.00  0.00    +0.143 C 
ATOM      9  C   UNL     1      -4.021   3.227  24.370  0.00  0.00    +0.156 C 
ATOM     10  C   UNL     1      -4.388   3.799  25.762  0.00  0.00    +0.116 C 
ATOM     11  C   UNL     1      -5.768   1.474  24.916  0.00  0.00    +0.270 C 
ATOM     12  C   UNL     1      -5.688   3.186  26.331  0.00  0.00    +0.166 C 
ATOM     13  C   UNL     1      -6.904   3.374  25.443  0.00  0.00    +0.196 C 
ENDROOT
BRANCH   8   5
ATOM      5  N   UNL     1      -3.409   0.841  24.619  0.00  0.00    -0.293 NA
ATOM     14  C   UNL     1      -4.005  -0.347  25.248  0.00  0.00    +0.085 C 
ATOM     15  C   UNL     1      -2.532   0.465  23.502  0.00  0.00    +0.085 C 
ATOM     16  C   UNL     1      -2.924  -1.289  25.780  0.00  0.00    +0.028 C 
ATOM     17  C   UNL     1      -1.401  -0.451  23.972  0.00  0.00    +0.028 C 
ATOM     18  C   UNL     1      -1.948  -1.691  24.676  0.00  0.00    +0.077 C 
BRANCH  18  20
ATOM      4  O   UNL     1      -0.844  -3.710  25.316  0.00  0.00    -0.276 OA
ATOM      7  N   UNL     1       0.228  -1.712  25.704  0.00  0.00    -0.329 N 
ATOM     20  C   UNL     1      -0.815  -2.485  25.250  0.00  0.00    +0.214 C 
ATOM     35  H   UNL     1       0.221  -0.698  25.649  0.00  0.00    +0.145 HD
ATOM     36  H   UNL     1       1.050  -2.139  26.119  0.00  0.00    +0.145 HD
ENDBRANCH  18  20
ENDBRANCH   8   5
BRANCH   9   3
ATOM      3  O   UNL     1      -4.676   4.017  23.366  0.00  0.00    -0.388 OA
ATOM     34  H   UNL     1      -4.948   3.416  22.651  0.00  0.00    +0.210 HD
ENDBRANCH   9   3
BRANCH  10   6
ATOM      6  N   UNL     1      -3.306   3.550  26.721  0.00  0.00    -0.305 NA
ATOM     33  H   UNL     1      -3.075   2.557  26.725  0.00  0.00    +0.123 HD
BRANCH   6  19
ATOM     19  C   UNL     1      -2.133   4.337  26.383  0.00  0.00    +0.116 C 
BRANCH  19  21
ATOM     21  C   UNL     1      -1.132   3.539  25.590  0.00  0.00    -0.034 A 
ATOM     22  C   UNL     1      -0.518   2.424  26.162  0.00  0.00    +0.005 A 
ATOM     23  C   UNL     1      -0.818   3.914  24.283  0.00  0.00    +0.005 A 
ATOM     24  C   UNL     1       0.410   1.685  25.428  0.00  0.00    +0.009 A 
ATOM     25  C   UNL     1       0.109   3.174  23.550  0.00  0.00    +0.009 A 
ATOM     26  C   UNL     1       0.723   2.060  24.122  0.00  0.00    -0.018 A 
BRANCH  26  27
ATOM     27  C   UNL     1       1.686   1.293  23.360  0.00  0.00    -0.018 A 
ATOM     28  C   UNL     1       1.271   0.178  22.633  0.00  0.00    +0.008 A 
ATOM     29  C   UNL     1       3.029   1.672  23.351  0.00  0.00    +0.008 A 
ATOM     30  C   UNL     1       2.199  -0.560  21.898  0.00  0.00    +0.001 A 
ATOM     31  C   UNL     1       3.956   0.934  22.615  0.00  0.00    +0.001 A 
ATOM     32  C   UNL     1       3.540  -0.182  21.889  0.00  0.00    +0.000 A 
ENDBRANCH  26  27
ENDBRANCH  19  21
ENDBRANCH   6  19
ENDBRANCH  10   6
TORSDOF 7
ENDMDL
MODEL 2
REMARK VINA RESULT:       3.0      1.843      2.900
REMARK  Name = 28960503
REMARK  7 active torsions:
REMARK  status: ('A' for Active; 'I' for Inactive)
REMARK    1  A    between atoms: O_3  and  C_9
REMARK    2  A    between atoms: N_5  and  C_8
REMARK    3  A    between atoms: N_6  and  C_10
REMARK    4  A    between atoms: N_6  and  C_19
REMARK    5  A    between atoms: C_18  and  C_20
REMARK    6  A    between atoms: C_19  and  C_21
REMARK    7  A    between atoms: C_26  and  C_27
REMARK                            x       y       z     vdW  Elec       q    Type
REMARK                         _______ _______ _______ _____ _____    ______ ____
ROOT
ATOM      1  O   UNL     1      -1.854   3.214  25.564  0.00  0.00    -0.343 OA
ATOM      2  O   UNL     1      -3.452   4.219  26.910  0.00  0.00    -0.347 OA
ATOM      8  C   UNL     1      -4.098   2.325  25.555  0.00  0.00    +0.143 C 
ATOM      9  C   UNL     1      -4.481   3.263  24.388  0.00  0.00    +0.156 C 
ATOM     10  C   UNL     1      -3.295   4.085  23.828  0.00  0.00    +0.116 C 
ATOM     11  C   UNL     1      -2.982   2.957  26.409  0.00  0.00    +0.270 C 
ATOM     12  C   UNL     1      -2.247   4.427  24.912  0.00  0.00    +0.166 C 
ATOM     13  C   UNL     1      -2.804   5.204  26.092  0.00  0.00    +0.196 C 
ENDROOT
BRANCH   8   5
ATOM      5  N   UNL     1      -3.663   1.021  25.051  0.00  0.00    -0.293 NA
ATOM     14  C   UNL     1      -2.856   0.322  26.061  0.00  0.00    +0.085 C 
ATOM     15  C   UNL     1      -4.822   0.214  24.647  0.00  0.00    +0.085 C 
ATOM     16  C   UNL     1      -2.347  -1.019  25.528  0.00  0.00    +0.028 C 
ATOM     17  C   UNL     1      -4.382  -1.131  24.066  0.00  0.00    +0.028 C 
ATOM     18  C   UNL     1      -3.501  -1.898  25.050  0.00  0.00    +0.077 C 
BRANCH  18  20
ATOM      4  O   UNL     1      -3.686  -4.105  24.156  0.00  0.00    -0.276 OA
ATOM      7  N   UNL     1      -1.628  -3.078  24.107  0.00  0.00    -0.329 N 
ATOM     20  C   UNL     1      -2.971  -3.135  24.393  0.00  0.00    +0.214 C 
ATOM     35  H   UNL     1      -1.056  -2.268  24.325  0.00  0.00    +0.145 HD
ATOM     36  H   UNL     1      -1.156  -3.861  23.665  0.00  0.00    +0.145 HD
ENDBRANCH  18  20
ENDBRANCH   8   5
BRANCH   9   3
ATOM      3  O   UNL     1      -5.478   4.174  24.875  0.00  0.00    -0.388 OA
ATOM     34  H   UNL     1      -6.234   4.135  24.265  0.00  0.00    +0.210 HD
ENDBRANCH   9   3
BRANCH  10   6
ATOM      6  N   UNL     1      -2.619   3.347  22.756  0.00  0.00    -0.305 NA
ATOM     33  H   UNL     1      -1.687   3.735  22.608  0.00  0.00    +0.123 HD
BRANCH   6  19
ATOM     19  C   UNL     1      -2.528   1.935  23.086  0.00  0.00    +0.116 C 
BRANCH  19  21
ATOM     21  C   UNL     1      -1.099   1.466  23.159  0.00  0.00    -0.034 A 
ATOM     22  C   UNL     1      -0.748   0.216  22.649  0.00  0.00    +0.005 A 
ATOM     23  C   UNL     1      -0.126   2.283  23.737  0.00  0.00    +0.005 A 
ATOM     24  C   UNL     1       0.576  -0.218  22.717  0.00  0.00    +0.009 A 
ATOM     25  C   UNL     1       1.198   1.849  23.803  0.00  0.00    +0.009 A 
ATOM     26  C   UNL     1       1.548   0.598  23.294  0.00  0.00    -0.018 A 
BRANCH  26  27
ATOM     27  C   UNL     1       2.922   0.148  23.365  0.00  0.00    -0.018 A 
ATOM     28  C   UNL     1       3.961   1.031  23.071  0.00  0.00    +0.008 A 
ATOM     29  C   UNL     1       3.208  -1.168  23.730  0.00  0.00    +0.008 A 
ATOM     30  C   UNL     1       5.285   0.597  23.140  0.00  0.00    +0.001 A 
ATOM     31  C   UNL     1       4.531  -1.601  23.800  0.00  0.00    +0.001 A 
ATOM     32  C   UNL     1       5.570  -0.718  23.505  0.00  0.00    +0.000 A 
ENDBRANCH  26  27
ENDBRANCH  19  21
ENDBRANCH   6  19
ENDBRANCH  10   6
TORSDOF 7
ENDMDL
MODEL 3
REMARK VINA RESULT:       3.0      1.531      2.217
REMARK  Name = 28960503
REMARK  7 active torsions:
REMARK  status: ('A' for Active; 'I' for Inactive)
REMARK    1  A    between atoms: O_3  and  C_9
REMARK    2  A    between atoms: N_5  and  C_8
REMARK    3  A    between atoms: N_6  and  C_10
REMARK    4  A    between atoms: N_6  and  C_19
REMARK    5  A    between atoms: C_18  and  C_20
REMARK    6  A    between atoms: C_19  and  C_21
REMARK    7  A    between atoms: C_26  and  C_27
REMARK                            x       y       z     vdW  Elec       q    Type
REMARK                         _______ _______ _______ _____ _____    ______ ____
ROOT
ATOM      1  O   UNL     1      -3.961   2.838  25.994  0.00  0.00    -0.343 OA
ATOM      2  O   UNL     1      -6.183   3.084  26.611  0.00  0.00    -0.347 OA
ATOM      8  C   UNL     1      -5.458   0.968  25.694  0.00  0.00    +0.143 C 
ATOM      9  C   UNL     1      -5.795   1.448  24.264  0.00  0.00    +0.156 C 
ATOM     10  C   UNL     1      -4.966   2.671  23.802  0.00  0.00    +0.116 C 
ATOM     11  C   UNL     1      -5.079   2.164  26.587  0.00  0.00    +0.270 C 
ATOM     12  C   UNL     1      -4.595   3.612  24.971  0.00  0.00    +0.166 C 
ATOM     13  C   UNL     1      -5.790   4.152  25.737  0.00  0.00    +0.196 C 
ENDROOT
BRANCH   8   5
ATOM      5  N   UNL     1      -4.365  -0.005  25.671  0.00  0.00    -0.293 NA
ATOM     14  C   UNL     1      -4.431  -0.823  24.451  0.00  0.00    +0.085 C 
ATOM     15  C   UNL     1      -3.068   0.676  25.783  0.00  0.00    +0.085 C 
ATOM     16  C   UNL     1      -3.328  -1.882  24.438  0.00  0.00    +0.028 C 
ATOM     17  C   UNL     1      -1.917  -0.331  25.814  0.00  0.00    +0.028 C 
ATOM     18  C   UNL     1      -1.948  -1.247  24.592  0.00  0.00    +0.077 C 
BRANCH  18  20
ATOM      4  O   UNL     1      -0.937  -3.349  24.082  0.00  0.00    -0.276 OA
ATOM      7  N   UNL     1       0.068  -2.011  25.661  0.00  0.00    -0.329 N 
ATOM     20  C   UNL     1      -0.901  -2.309  24.733  0.00  0.00    +0.214 C 
ATOM     35  H   UNL     1       0.066  -1.148  26.195  0.00  0.00    +0.145 HD
ATOM     36  H   UNL     1       0.827  -2.659  25.846  0.00  0.00    +0.145 HD
ENDBRANCH  18  20
ENDBRANCH   8   5
BRANCH   9   3
ATOM      3  O   UNL     1      -7.185   1.804  24.243  0.00  0.00    -0.388 OA
ATOM     34  H   UNL     1      -7.397   2.105  23.342  0.00  0.00    +0.210 HD
ENDBRANCH   9   3
BRANCH  10   6
ATOM      6  N   UNL     1      -3.724   2.236  23.154  0.00  0.00    -0.305 NA
ATOM     33  H   UNL     1      -3.863   2.191  22.145  0.00  0.00    +0.123 HD
BRANCH   6  19
ATOM     19  C   UNL     1      -2.637   3.146  23.472  0.00  0.00    +0.116 C 
BRANCH  19  21
ATOM     21  C   UNL     1      -1.301   2.452  23.449  0.00  0.00    -0.034 A 
ATOM     22  C   UNL     1      -1.124   1.304  22.677  0.00  0.00    +0.005 A 
ATOM     23  C   UNL     1      -0.240   2.958  24.200  0.00  0.00    +0.005 A 
ATOM     24  C   UNL     1       0.114   0.662  22.656  0.00  0.00    +0.009 A 
ATOM     25  C   UNL     1       0.998   2.316  24.178  0.00  0.00    +0.009 A 
ATOM     26  C   UNL     1       1.175   1.167  23.407  0.00  0.00    -0.018 A 
BRANCH  26  27
ATOM     27  C   UNL     1       2.459   0.501  23.386  0.00  0.00    -0.018 A 
ATOM     28  C   UNL     1       3.611   1.216  23.056  0.00  0.00    +0.008 A 
ATOM     29  C   UNL     1       2.547  -0.857  23.697  0.00  0.00    +0.008 A 
ATOM     30  C   UNL     1       4.848   0.574  23.037  0.00  0.00    +0.001 A 
ATOM     31  C   UNL     1       3.784  -1.499  23.678  0.00  0.00    +0.001 A 
ATOM     32  C   UNL     1       4.936  -0.782  23.348  0.00  0.00    +0.000 A 
ENDBRANCH  26  27
ENDBRANCH  19  21
ENDBRANCH   6  19
ENDBRANCH  10   6
TORSDOF 7
ENDMDL
MODEL 4
REMARK VINA RESULT:       5.6      2.244      3.542
REMARK  Name = 28960503
REMARK  7 active torsions:
REMARK  status: ('A' for Active; 'I' for Inactive)
REMARK    1  A    between atoms: O_3  and  C_9
REMARK    2  A    between atoms: N_5  and  C_8
REMARK    3  A    between atoms: N_6  and  C_10
REMARK    4  A    between atoms: N_6  and  C_19
REMARK    5  A    between atoms: C_18  and  C_20
REMARK    6  A    between atoms: C_19  and  C_21
REMARK    7  A    between atoms: C_26  and  C_27
REMARK                            x       y       z     vdW  Elec       q    Type
REMARK                         _______ _______ _______ _____ _____    ______ ____
ROOT
ATOM      1  O   UNL     1      -4.033   2.726  25.927  0.00  0.00    -0.343 OA
ATOM      2  O   UNL     1      -6.269   3.054  26.446  0.00  0.00    -0.347 OA
ATOM      8  C   UNL     1      -5.590   0.927  25.520  0.00  0.00    +0.143 C 
ATOM      9  C   UNL     1      -5.840   1.447  24.086  0.00  0.00    +0.156 C 
ATOM     10  C   UNL     1      -4.941   2.643  23.688  0.00  0.00    +0.116 C 
ATOM     11  C   UNL     1      -5.204   2.090  26.454  0.00  0.00    +0.270 C 
ATOM     12  C   UNL     1      -4.586   3.545  24.892  0.00  0.00    +0.166 C 
ATOM     13  C   UNL     1      -5.792   4.121  25.613  0.00  0.00    +0.196 C 
ENDROOT
BRANCH   8   5
ATOM      5  N   UNL     1      -4.538  -0.091  25.527  0.00  0.00    -0.293 NA
ATOM     14  C   UNL     1      -4.389  -0.684  24.190  0.00  0.00    +0.085 C 
ATOM     15  C   UNL     1      -3.270   0.483  25.997  0.00  0.00    +0.085 C 
ATOM     16  C   UNL     1      -3.332  -1.789  24.193  0.00  0.00    +0.028 C 
ATOM     17  C   UNL     1      -2.174  -0.581  26.061  0.00  0.00    +0.028 C 
ATOM     18  C   UNL     1      -1.992  -1.272  24.711  0.00  0.00    +0.077 C 
BRANCH  18  20
ATOM      4  O   UNL     1      -1.301  -3.550  24.518  0.00  0.00    -0.276 OA
ATOM      7  N   UNL     1       0.185  -2.032  25.400  0.00  0.00    -0.329 N 
ATOM     20  C   UNL     1      -1.019  -2.402  24.852  0.00  0.00    +0.214 C 
ATOM     35  H   UNL     1       0.388  -1.077  25.679  0.00  0.00    +0.145 HD
ATOM     36  H   UNL     1       0.922  -2.715  25.549  0.00  0.00    +0.145 HD
ENDBRANCH  18  20
ENDBRANCH   8   5
BRANCH   9   3
ATOM      3  O   UNL     1      -7.211   1.863  24.009  0.00  0.00    -0.388 OA
ATOM     34  H   UNL     1      -7.273   2.748  24.406  0.00  0.00    +0.210 HD
ENDBRANCH   9   3
BRANCH  10   6
ATOM      6  N   UNL     1      -3.689   2.168  23.088  0.00  0.00    -0.305 NA
ATOM     33  H   UNL     1      -3.863   1.861  22.132  0.00  0.00    +0.123 HD
BRANCH   6  19
ATOM     19  C   UNL     1      -2.685   3.217  23.106  0.00  0.00    +0.116 C 
BRANCH  19  21
ATOM     21  C   UNL     1      -1.763   3.092  24.289  0.00  0.00    -0.034 A 
ATOM     22  C   UNL     1      -0.776   2.106  24.304  0.00  0.00    +0.005 A 
ATOM     23  C   UNL     1      -1.895   3.963  25.372  0.00  0.00    +0.005 A 
ATOM     24  C   UNL     1       0.078   1.991  25.401  0.00  0.00    +0.009 A 
ATOM     25  C   UNL     1      -1.041   3.847  26.468  0.00  0.00    +0.009 A 
ATOM     26  C   UNL     1      -0.054   2.860  26.483  0.00  0.00    -0.018 A 
BRANCH  26  27
ATOM     27  C   UNL     1       0.831   2.740  27.621  0.00  0.00    -0.018 A 
ATOM     28  C   UNL     1       2.180   3.071  27.493  0.00  0.00    +0.008 A 
ATOM     29  C   UNL     1       0.336   2.295  28.847  0.00  0.00    +0.008 A 
ATOM     30  C   UNL     1       3.033   2.956  28.591  0.00  0.00    +0.001 A 
ATOM     31  C   UNL     1       1.188   2.181  29.945  0.00  0.00    +0.001 A 
ATOM     32  C   UNL     1       2.538   2.512  29.816  0.00  0.00    +0.000 A 
ENDBRANCH  26  27
ENDBRANCH  19  21
ENDBRANCH   6  19
ENDBRANCH  10   6
TORSDOF 7
ENDMDL
MODEL 5
REMARK VINA RESULT:       5.9      1.975      4.972
REMARK  Name = 28960503
REMARK  7 active torsions:
REMARK  status: ('A' for Active; 'I' for Inactive)
REMARK    1  A    between atoms: O_3  and  C_9
REMARK    2  A    between atoms: N_5  and  C_8
REMARK    3  A    between atoms: N_6  and  C_10
REMARK    4  A    between atoms: N_6  and  C_19
REMARK    5  A    between atoms: C_18  and  C_20
REMARK    6  A    between atoms: C_19  and  C_21
REMARK    7  A    between atoms: C_26  and  C_27
REMARK                            x       y       z     vdW  Elec       q    Type
REMARK                         _______ _______ _______ _____ _____    ______ ____
ROOT
ATOM      1  O   UNL     1      -4.534  -1.262  24.398  0.00  0.00    -0.343 OA
ATOM      2  O   UNL     1      -3.213  -2.646  25.709  0.00  0.00    -0.347 OA
ATOM      8  C   UNL     1      -2.997  -0.252  25.962  0.00  0.00    +0.143 C 
ATOM      9  C   UNL     1      -1.895  -0.215  24.878  0.00  0.00    +0.156 C 
ATOM     10  C   UNL     1      -2.374  -0.678  23.481  0.00  0.00    +0.116 C 
ATOM     11  C   UNL     1      -3.965  -1.422  25.704  0.00  0.00    +0.270 C 
ATOM     12  C   UNL     1      -3.483  -1.753  23.560  0.00  0.00    +0.166 C 
ATOM     13  C   UNL     1      -3.083  -3.002  24.325  0.00  0.00    +0.196 C 
ENDROOT
BRANCH   8   5
ATOM      5  N   UNL     1      -3.735   1.011  25.993  0.00  0.00    -0.293 NA
ATOM     14  C   UNL     1      -2.844   2.136  25.674  0.00  0.00    +0.085 C 
ATOM     15  C   UNL     1      -4.877   0.962  25.070  0.00  0.00    +0.085 C 
ATOM     16  C   UNL     1      -3.587   3.470  25.757  0.00  0.00    +0.028 C 
ATOM     17  C   UNL     1      -5.691   2.256  25.131  0.00  0.00    +0.028 C 
ATOM     18  C   UNL     1      -4.816   3.476  24.850  0.00  0.00    +0.077 C 
BRANCH  18  20
ATOM      4  O   UNL     1      -5.434   5.736  24.389  0.00  0.00    -0.276 OA
ATOM      7  N   UNL     1      -6.526   4.632  26.086  0.00  0.00    -0.329 N 
ATOM     20  C   UNL     1      -5.612   4.726  25.064  0.00  0.00    +0.214 C 
ATOM     35  H   UNL     1      -6.644   3.788  26.638  0.00  0.00    +0.145 HD
ATOM     36  H   UNL     1      -7.120   5.419  26.328  0.00  0.00    +0.145 HD
ENDBRANCH  18  20
ENDBRANCH   8   5
BRANCH   9   3
ATOM      3  O   UNL     1      -0.836  -1.084  25.307  0.00  0.00    -0.388 OA
ATOM     34  H   UNL     1      -1.245  -1.893  25.661  0.00  0.00    +0.210 HD
ENDBRANCH   9   3
BRANCH  10   6
ATOM      6  N   UNL     1      -2.895   0.459  22.713  0.00  0.00    -0.305 NA
ATOM     33  H   UNL     1      -3.822   0.706  23.056  0.00  0.00    +0.123 HD
BRANCH   6  19
ATOM     19  C   UNL     1      -1.999   1.598  22.818  0.00  0.00    +0.116 C 
BRANCH  19  21
ATOM     21  C   UNL     1      -0.563   1.170  22.964  0.00  0.00    -0.034 A 
ATOM     22  C   UNL     1      -0.070   0.108  22.205  0.00  0.00    +0.005 A 
ATOM     23  C   UNL     1       0.276   1.837  23.858  0.00  0.00    +0.005 A 
ATOM     24  C   UNL     1       1.260  -0.288  22.340  0.00  0.00    +0.009 A 
ATOM     25  C   UNL     1       1.607   1.441  23.992  0.00  0.00    +0.009 A 
ATOM     26  C   UNL     1       2.099   0.378  23.234  0.00  0.00    -0.018 A 
BRANCH  26  27
ATOM     27  C   UNL     1       3.479  -0.033  23.375  0.00  0.00    -0.018 A 
ATOM     28  C   UNL     1       3.783  -1.338  23.761  0.00  0.00    +0.008 A 
ATOM     29  C   UNL     1       4.507   0.877  23.123  0.00  0.00    +0.008 A 
ATOM     30  C   UNL     1       5.113  -1.734  23.895  0.00  0.00    +0.001 A 
ATOM     31  C   UNL     1       5.837   0.481  23.257  0.00  0.00    +0.001 A 
ATOM     32  C   UNL     1       6.140  -0.825  23.643  0.00  0.00    +0.000 A 
ENDBRANCH  26  27
ENDBRANCH  19  21
ENDBRANCH   6  19
ENDBRANCH  10   6
TORSDOF 7
ENDMDL
