MODEL 1
REMARK VINA RESULT:      -2.5      0.000      0.000
REMARK  Name = 45783997
REMARK  14 active torsions:
REMARK  status: ('A' for Active; 'I' for Inactive)
REMARK    1  A    between atoms: O_2  and  C_25
REMARK    2  A    between atoms: N_3  and  C_12
REMARK    3  A    between atoms: N_4  and  C_24
REMARK    4  A    between atoms: C_7  and  C_11
REMARK    5  A    between atoms: C_8  and  C_12
REMARK    6  A    between atoms: C_10  and  C_15
REMARK    7  A    between atoms: C_11  and  C_18
REMARK    8  A    between atoms: C_11  and  C_19
REMARK    9  A    between atoms: C_14  and  C_22
REMARK   10  A    between atoms: C_15  and  C_23
REMARK   11  A    between atoms: C_24  and  C_25
REMARK   12  A    between atoms: C_26  and  C_27
REMARK   13  A    between atoms: C_27  and  C_28
REMARK   14  A    between atoms: C_28  and  C_29
REMARK                            x       y       z     vdW  Elec       q    Type
REMARK                         _______ _______ _______ _____ _____    ______ ____
ROOT
ATOM      7  C   UNL     1      -3.141  -0.690  24.823  0.00  0.00    +0.000 C 
ATOM      8  C   UNL     1      -1.972   0.038  24.120  0.00  0.00    +0.029 C 
ATOM      9  C   UNL     1      -4.158   0.322  25.367  0.00  0.00    +0.012 C 
ATOM     10  C   UNL     1      -4.719   1.267  24.283  0.00  0.00    +0.024 C 
ATOM     13  C   UNL     1      -2.441   1.162  23.232  0.00  0.00    -0.023 C 
ATOM     14  C   UNL     1      -3.667   1.715  23.280  0.00  0.00    -0.073 C 
ATOM     22  C   UNL     1      -4.061   2.775  22.287  0.00  0.00    +0.039 C 
ENDROOT
BRANCH   7  11
ATOM     11  C   UNL     1      -3.813  -1.703  23.885  0.00  0.00    -0.013 C 
ATOM     18  C   UNL     1      -5.328  -1.535  23.920  0.00  0.00    +0.007 C 
ATOM     19  C   UNL     1      -3.417  -3.126  24.268  0.00  0.00    +0.007 C 
ENDBRANCH   7  11
BRANCH   8  12
ATOM     12  C   UNL     1      -0.957   0.585  25.130  0.00  0.00    +0.092 C 
BRANCH  12   3
ATOM      3  N   UNL     1       0.406   0.424  24.630  0.00  0.00    -0.299 NA
ATOM      4  N   UNL     1       2.389   0.384  22.526  0.00  0.00    -0.298 NA
ATOM     16  C   UNL     1       0.485  -0.690  23.678  0.00  0.00    +0.100 C 
ATOM     17  C   UNL     1       0.883   1.665  24.007  0.00  0.00    +0.100 C 
ATOM     20  C   UNL     1       1.915  -0.858  23.149  0.00  0.00    +0.100 C 
ATOM     21  C   UNL     1       2.311   1.497  23.479  0.00  0.00    +0.100 C 
BRANCH   4  24
ATOM     24  C   UNL     1       3.753   0.224  22.024  0.00  0.00    +0.112 C 
BRANCH  24  25
ATOM     25  C   UNL     1       4.766   0.562  23.105  0.00  0.00    +0.171 C 
BRANCH  25   2
ATOM      2  O   UNL     1       5.050  -0.615  23.849  0.00  0.00    -0.394 OA
ATOM     30  H   UNL     1       4.951  -1.367  23.241  0.00  0.00    +0.209 HD
ENDBRANCH  25   2
ENDBRANCH  24  25
ENDBRANCH   4  24
ENDBRANCH  12   3
ENDBRANCH   8  12
BRANCH  10  15
ATOM     15  C   UNL     1      -5.424   2.440  24.974  0.00  0.00    +0.105 C 
BRANCH  15  23
ATOM      1  O   UNL     1      -3.596   4.048  24.795  0.00  0.00    -0.425 OA
ATOM      5  N   UNL     1      -4.251   3.637  26.894  0.00  0.00    -0.112 NA
ATOM      6  N   UNL     1      -3.220   4.557  26.940  0.00  0.00    -0.112 NA
ATOM     23  C   UNL     1      -4.437   3.369  25.622  0.00  0.00    +0.218 A 
ATOM     26  C   UNL     1      -2.869   4.767  25.693  0.00  0.00    +0.217 A 
BRANCH  26  27
ATOM     27  C   UNL     1      -1.830   5.649  25.150  0.00  0.00    +0.097 C 
BRANCH  27  28
ATOM     28  C   UNL     1      -0.542   4.895  24.756  0.00  0.00    +0.006 C 
ATOM     29  C   UNL     1      -0.274   3.687  25.640  0.00  0.00    +0.004 C 
ENDBRANCH  27  28
ENDBRANCH  26  27
ENDBRANCH  15  23
ENDBRANCH  10  15
TORSDOF 10
ENDMDL
MODEL 2
REMARK VINA RESULT:      -2.4      1.353      2.438
REMARK  Name = 45783997
REMARK  14 active torsions:
REMARK  status: ('A' for Active; 'I' for Inactive)
REMARK    1  A    between atoms: O_2  and  C_25
REMARK    2  A    between atoms: N_3  and  C_12
REMARK    3  A    between atoms: N_4  and  C_24
REMARK    4  A    between atoms: C_7  and  C_11
REMARK    5  A    between atoms: C_8  and  C_12
REMARK    6  A    between atoms: C_10  and  C_15
REMARK    7  A    between atoms: C_11  and  C_18
REMARK    8  A    between atoms: C_11  and  C_19
REMARK    9  A    between atoms: C_14  and  C_22
REMARK   10  A    between atoms: C_15  and  C_23
REMARK   11  A    between atoms: C_24  and  C_25
REMARK   12  A    between atoms: C_26  and  C_27
REMARK   13  A    between atoms: C_27  and  C_28
REMARK   14  A    between atoms: C_28  and  C_29
REMARK                            x       y       z     vdW  Elec       q    Type
REMARK                         _______ _______ _______ _____ _____    ______ ____
ROOT
ATOM      7  C   UNL     1      -1.466   0.145  25.501  0.00  0.00    +0.000 C 
ATOM      8  C   UNL     1      -1.268  -0.302  24.034  0.00  0.00    +0.029 C 
ATOM      9  C   UNL     1      -2.894   0.668  25.716  0.00  0.00    +0.012 C 
ATOM     10  C   UNL     1      -3.984  -0.358  25.339  0.00  0.00    +0.024 C 
ATOM     13  C   UNL     1      -2.433  -1.101  23.510  0.00  0.00    -0.023 C 
ATOM     14  C   UNL     1      -3.648  -1.150  24.084  0.00  0.00    -0.073 C 
ATOM     22  C   UNL     1      -4.717  -2.050  23.525  0.00  0.00    +0.039 C 
ENDROOT
BRANCH   7  11
ATOM     11  C   UNL     1      -1.137  -0.990  26.481  0.00  0.00    -0.013 C 
ATOM     18  C   UNL     1      -0.352  -2.090  25.775  0.00  0.00    +0.007 C 
ATOM     19  C   UNL     1      -2.417  -1.548  27.096  0.00  0.00    +0.007 C 
ENDBRANCH   7  11
BRANCH   8  12
ATOM     12  C   UNL     1      -1.019   0.893  23.107  0.00  0.00    +0.092 C 
BRANCH  12   3
ATOM      3  N   UNL     1       0.386   0.958  22.714  0.00  0.00    -0.299 NA
ATOM      4  N   UNL     1       3.179   0.271  23.016  0.00  0.00    -0.298 NA
ATOM     16  C   UNL     1       1.203   1.539  23.786  0.00  0.00    +0.100 C 
ATOM     17  C   UNL     1       0.888  -0.374  22.352  0.00  0.00    +0.100 C 
ATOM     20  C   UNL     1       2.679   1.603  23.377  0.00  0.00    +0.100 C 
ATOM     21  C   UNL     1       2.363  -0.309  21.942  0.00  0.00    +0.100 C 
BRANCH   4  24
ATOM     24  C   UNL     1       4.586   0.333  22.624  0.00  0.00    +0.112 C 
BRANCH  24  25
ATOM     25  C   UNL     1       5.484  -0.092  23.774  0.00  0.00    +0.171 C 
BRANCH  25   2
ATOM      2  O   UNL     1       5.012  -1.331  24.287  0.00  0.00    -0.394 OA
ATOM     30  H   UNL     1       4.997  -1.251  25.256  0.00  0.00    +0.209 HD
ENDBRANCH  25   2
ENDBRANCH  24  25
ENDBRANCH   4  24
ENDBRANCH  12   3
ENDBRANCH   8  12
BRANCH  10  15
ATOM     15  C   UNL     1      -5.330   0.370  25.244  0.00  0.00    +0.105 C 
BRANCH  15  23
ATOM      1  O   UNL     1      -4.145   2.420  24.651  0.00  0.00    -0.425 OA
ATOM      5  N   UNL     1      -5.848   2.725  26.069  0.00  0.00    -0.112 NA
ATOM      6  N   UNL     1      -5.272   3.957  25.820  0.00  0.00    -0.112 NA
ATOM     23  C   UNL     1      -5.157   1.858  25.365  0.00  0.00    +0.218 A 
ATOM     26  C   UNL     1      -4.282   3.731  24.988  0.00  0.00    +0.217 A 
BRANCH  26  27
ATOM     27  C   UNL     1      -3.333   4.674  24.386  0.00  0.00    +0.097 C 
BRANCH  27  28
ATOM     28  C   UNL     1      -2.127   4.984  25.300  0.00  0.00    +0.006 C 
ATOM     29  C   UNL     1      -1.044   3.920  25.225  0.00  0.00    +0.004 C 
ENDBRANCH  27  28
ENDBRANCH  26  27
ENDBRANCH  15  23
ENDBRANCH  10  15
TORSDOF 10
ENDMDL
MODEL 3
REMARK VINA RESULT:      -1.6      2.050      3.631
REMARK  Name = 45783997
REMARK  14 active torsions:
REMARK  status: ('A' for Active; 'I' for Inactive)
REMARK    1  A    between atoms: O_2  and  C_25
REMARK    2  A    between atoms: N_3  and  C_12
REMARK    3  A    between atoms: N_4  and  C_24
REMARK    4  A    between atoms: C_7  and  C_11
REMARK    5  A    between atoms: C_8  and  C_12
REMARK    6  A    between atoms: C_10  and  C_15
REMARK    7  A    between atoms: C_11  and  C_18
REMARK    8  A    between atoms: C_11  and  C_19
REMARK    9  A    between atoms: C_14  and  C_22
REMARK   10  A    between atoms: C_15  and  C_23
REMARK   11  A    between atoms: C_24  and  C_25
REMARK   12  A    between atoms: C_26  and  C_27
REMARK   13  A    between atoms: C_27  and  C_28
REMARK   14  A    between atoms: C_28  and  C_29
REMARK                            x       y       z     vdW  Elec       q    Type
REMARK                         _______ _______ _______ _____ _____    ______ ____
ROOT
ATOM      7  C   UNL     1      -4.789   1.875  26.044  0.00  0.00    +0.000 C 
ATOM      8  C   UNL     1      -4.348   0.776  25.050  0.00  0.00    +0.029 C 
ATOM      9  C   UNL     1      -3.799   3.048  26.025  0.00  0.00    +0.012 C 
ATOM     10  C   UNL     1      -3.612   3.667  24.623  0.00  0.00    +0.024 C 
ATOM     13  C   UNL     1      -3.898   1.340  23.727  0.00  0.00    -0.023 C 
ATOM     14  C   UNL     1      -3.577   2.629  23.512  0.00  0.00    -0.073 C 
ATOM     22  C   UNL     1      -3.223   3.103  22.129  0.00  0.00    +0.039 C 
ENDROOT
BRANCH   7  11
ATOM     11  C   UNL     1      -6.219   2.352  25.753  0.00  0.00    -0.013 C 
ATOM     18  C   UNL     1      -6.771   1.651  24.516  0.00  0.00    +0.007 C 
ATOM     19  C   UNL     1      -6.249   3.867  25.575  0.00  0.00    +0.007 C 
ENDBRANCH   7  11
BRANCH   8  12
ATOM     12  C   UNL     1      -3.231  -0.097  25.632  0.00  0.00    +0.092 C 
BRANCH  12   3
ATOM      3  N   UNL     1      -2.227  -0.396  24.613  0.00  0.00    -0.299 NA
ATOM      4  N   UNL     1       0.442  -0.258  23.511  0.00  0.00    -0.298 NA
ATOM     16  C   UNL     1      -1.716   0.838  24.005  0.00  0.00    +0.100 C 
ATOM     17  C   UNL     1      -1.125  -1.181  25.182  0.00  0.00    +0.100 C 
ATOM     20  C   UNL     1      -0.659   0.526  22.940  0.00  0.00    +0.100 C 
ATOM     21  C   UNL     1      -0.070  -1.493  24.117  0.00  0.00    +0.100 C 
BRANCH   4  24
ATOM     24  C   UNL     1       1.449  -0.557  22.493  0.00  0.00    +0.112 C 
BRANCH  24  25
ATOM     25  C   UNL     1       2.713   0.252  22.735  0.00  0.00    +0.171 C 
BRANCH  25   2
ATOM      2  O   UNL     1       2.370   1.434  23.446  0.00  0.00    -0.394 OA
ATOM     30  H   UNL     1       1.403   1.525  23.397  0.00  0.00    +0.209 HD
ENDBRANCH  25   2
ENDBRANCH  24  25
ENDBRANCH   4  24
ENDBRANCH  12   3
ENDBRANCH   8  12
BRANCH  10  15
ATOM     15  C   UNL     1      -2.366   4.561  24.645  0.00  0.00    +0.105 C 
BRANCH  15  23
ATOM      1  O   UNL     1      -1.169   3.341  26.388  0.00  0.00    -0.425 OA
ATOM      5  N   UNL     1      -0.056   3.502  24.454  0.00  0.00    -0.112 NA
ATOM      6  N   UNL     1       0.731   2.792  25.342  0.00  0.00    -0.112 NA
ATOM     23  C   UNL     1      -1.155   3.801  25.107  0.00  0.00    +0.218 A 
ATOM     26  C   UNL     1       0.042   2.723  26.458  0.00  0.00    +0.217 A 
BRANCH  26  27
ATOM     27  C   UNL     1       0.388   2.086  27.733  0.00  0.00    +0.097 C 
BRANCH  27  28
ATOM     28  C   UNL     1       1.611   2.732  28.419  0.00  0.00    +0.006 C 
ATOM     29  C   UNL     1       1.738   2.341  29.883  0.00  0.00    +0.004 C 
ENDBRANCH  27  28
ENDBRANCH  26  27
ENDBRANCH  15  23
ENDBRANCH  10  15
TORSDOF 10
ENDMDL
MODEL 4
REMARK VINA RESULT:      -1.5      1.769      4.733
REMARK  Name = 45783997
REMARK  14 active torsions:
REMARK  status: ('A' for Active; 'I' for Inactive)
REMARK    1  A    between atoms: O_2  and  C_25
REMARK    2  A    between atoms: N_3  and  C_12
REMARK    3  A    between atoms: N_4  and  C_24
REMARK    4  A    between atoms: C_7  and  C_11
REMARK    5  A    between atoms: C_8  and  C_12
REMARK    6  A    between atoms: C_10  and  C_15
REMARK    7  A    between atoms: C_11  and  C_18
REMARK    8  A    between atoms: C_11  and  C_19
REMARK    9  A    between atoms: C_14  and  C_22
REMARK   10  A    between atoms: C_15  and  C_23
REMARK   11  A    between atoms: C_24  and  C_25
REMARK   12  A    between atoms: C_26  and  C_27
REMARK   13  A    between atoms: C_27  and  C_28
REMARK   14  A    between atoms: C_28  and  C_29
REMARK                            x       y       z     vdW  Elec       q    Type
REMARK                         _______ _______ _______ _____ _____    ______ ____
ROOT
ATOM      7  C   UNL     1      -1.272   3.480  24.450  0.00  0.00    +0.000 C 
ATOM      8  C   UNL     1      -1.456   3.541  25.984  0.00  0.00    +0.029 C 
ATOM      9  C   UNL     1      -2.429   2.708  23.800  0.00  0.00    +0.012 C 
ATOM     10  C   UNL     1      -3.818   3.296  24.129  0.00  0.00    +0.024 C 
ATOM     13  C   UNL     1      -2.873   3.859  26.385  0.00  0.00    -0.023 C 
ATOM     14  C   UNL     1      -3.939   3.769  25.570  0.00  0.00    -0.073 C 
ATOM     22  C   UNL     1      -5.300   4.195  26.048  0.00  0.00    +0.039 C 
ENDROOT
BRANCH   7  11
ATOM     11  C   UNL     1      -1.135   4.886  23.847  0.00  0.00    -0.013 C 
ATOM     18  C   UNL     1       0.146   4.988  23.025  0.00  0.00    +0.007 C 
ATOM     19  C   UNL     1      -1.158   5.941  24.948  0.00  0.00    +0.007 C 
ENDBRANCH   7  11
BRANCH   8  12
ATOM     12  C   UNL     1      -1.023   2.234  26.657  0.00  0.00    +0.092 C 
BRANCH  12   3
ATOM      3  N   UNL     1      -0.145   1.466  25.777  0.00  0.00    -0.299 NA
ATOM      4  N   UNL     1       0.670   0.464  23.190  0.00  0.00    -0.298 NA
ATOM     16  C   UNL     1      -0.888   0.393  25.106  0.00  0.00    +0.100 C 
ATOM     17  C   UNL     1       0.497   2.341  24.788  0.00  0.00    +0.100 C 
ATOM     20  C   UNL     1       0.030  -0.411  24.179  0.00  0.00    +0.100 C 
ATOM     21  C   UNL     1       1.414   1.537  23.862  0.00  0.00    +0.100 C 
BRANCH   4  24
ATOM     24  C   UNL     1       1.547  -0.303  22.307  0.00  0.00    +0.112 C 
BRANCH  24  25
ATOM     25  C   UNL     1       2.995   0.125  22.485  0.00  0.00    +0.171 C 
BRANCH  25   2
ATOM      2  O   UNL     1       3.639  -0.796  23.354  0.00  0.00    -0.394 OA
ATOM     30  H   UNL     1       3.787  -0.336  24.198  0.00  0.00    +0.209 HD
ENDBRANCH  25   2
ENDBRANCH  24  25
ENDBRANCH   4  24
ENDBRANCH  12   3
ENDBRANCH   8  12
BRANCH  10  15
ATOM     15  C   UNL     1      -4.888   2.266  23.746  0.00  0.00    +0.105 C 
BRANCH  15  23
ATOM      1  O   UNL     1      -4.505  -0.133  23.514  0.00  0.00    -0.425 OA
ATOM      5  N   UNL     1      -4.434   0.606  25.625  0.00  0.00    -0.112 NA
ATOM      6  N   UNL     1      -4.201  -0.757  25.641  0.00  0.00    -0.112 NA
ATOM     23  C   UNL     1      -4.605   0.926  24.363  0.00  0.00    +0.218 A 
ATOM     26  C   UNL     1      -4.252  -1.146  24.388  0.00  0.00    +0.217 A 
BRANCH  26  27
ATOM     27  C   UNL     1      -4.076  -2.486  23.816  0.00  0.00    +0.097 C 
BRANCH  27  28
ATOM     28  C   UNL     1      -3.119  -3.373  24.641  0.00  0.00    +0.006 C 
ATOM     29  C   UNL     1      -1.658  -2.996  24.452  0.00  0.00    +0.004 C 
ENDBRANCH  27  28
ENDBRANCH  26  27
ENDBRANCH  15  23
ENDBRANCH  10  15
TORSDOF 10
ENDMDL
MODEL 5
REMARK VINA RESULT:      -1.4      2.053      6.488
REMARK  Name = 45783997
REMARK  14 active torsions:
REMARK  status: ('A' for Active; 'I' for Inactive)
REMARK    1  A    between atoms: O_2  and  C_25
REMARK    2  A    between atoms: N_3  and  C_12
REMARK    3  A    between atoms: N_4  and  C_24
REMARK    4  A    between atoms: C_7  and  C_11
REMARK    5  A    between atoms: C_8  and  C_12
REMARK    6  A    between atoms: C_10  and  C_15
REMARK    7  A    between atoms: C_11  and  C_18
REMARK    8  A    between atoms: C_11  and  C_19
REMARK    9  A    between atoms: C_14  and  C_22
REMARK   10  A    between atoms: C_15  and  C_23
REMARK   11  A    between atoms: C_24  and  C_25
REMARK   12  A    between atoms: C_26  and  C_27
REMARK   13  A    between atoms: C_27  and  C_28
REMARK   14  A    between atoms: C_28  and  C_29
REMARK                            x       y       z     vdW  Elec       q    Type
REMARK                         _______ _______ _______ _____ _____    ______ ____
ROOT
ATOM      7  C   UNL     1      -2.216   4.063  25.434  0.00  0.00    +0.000 C 
ATOM      8  C   UNL     1      -3.607   3.699  24.866  0.00  0.00    +0.029 C 
ATOM      9  C   UNL     1      -1.321   2.818  25.506  0.00  0.00    +0.012 C 
ATOM     10  C   UNL     1      -1.151   2.109  24.145  0.00  0.00    +0.024 C 
ATOM     13  C   UNL     1      -3.524   2.782  23.674  0.00  0.00    -0.023 C 
ATOM     14  C   UNL     1      -2.433   2.073  23.328  0.00  0.00    -0.073 C 
ATOM     22  C   UNL     1      -2.429   1.254  22.066  0.00  0.00    +0.039 C 
ENDROOT
BRANCH   7  11
ATOM     11  C   UNL     1      -1.552   5.179  24.614  0.00  0.00    -0.013 C 
ATOM     18  C   UNL     1      -0.033   5.061  24.691  0.00  0.00    +0.007 C 
ATOM     19  C   UNL     1      -2.015   6.547  25.105  0.00  0.00    +0.007 C 
ENDBRANCH   7  11
BRANCH   8  12
ATOM     12  C   UNL     1      -4.504   3.059  25.932  0.00  0.00    +0.092 C 
BRANCH  12   3
ATOM      3  N   UNL     1      -4.681   1.633  25.669  0.00  0.00    -0.299 NA
ATOM      4  N   UNL     1      -4.128  -0.805  24.216  0.00  0.00    -0.298 NA
ATOM     16  C   UNL     1      -5.211   1.413  24.318  0.00  0.00    +0.100 C 
ATOM     17  C   UNL     1      -3.416   0.909  25.847  0.00  0.00    +0.100 C 
ATOM     20  C   UNL     1      -5.393  -0.083  24.039  0.00  0.00    +0.100 C 
ATOM     21  C   UNL     1      -3.599  -0.586  25.568  0.00  0.00    +0.100 C 
BRANCH   4  24
ATOM     24  C   UNL     1      -4.302  -2.232  23.952  0.00  0.00    +0.112 C 
BRANCH  24  25
ATOM     25  C   UNL     1      -3.264  -3.049  24.704  0.00  0.00    +0.171 C 
BRANCH  25   2
ATOM      2  O   UNL     1      -2.006  -2.890  24.064  0.00  0.00    -0.394 OA
ATOM     30  H   UNL     1      -1.397  -2.513  24.721  0.00  0.00    +0.209 HD
ENDBRANCH  25   2
ENDBRANCH  24  25
ENDBRANCH   4  24
ENDBRANCH  12   3
ENDBRANCH   8  12
BRANCH  10  15
ATOM     15  C   UNL     1      -0.560   0.715  24.391  0.00  0.00    +0.105 C 
BRANCH  15  23
ATOM      1  O   UNL     1       1.768   1.163  23.810  0.00  0.00    -0.425 OA
ATOM      5  N   UNL     1       0.768  -0.343  22.491  0.00  0.00    -0.112 NA
ATOM      6  N   UNL     1       2.071  -0.188  22.054  0.00  0.00    -0.112 NA
ATOM     23  C   UNL     1       0.636   0.465  23.518  0.00  0.00    +0.218 A 
ATOM     26  C   UNL     1       2.616   0.701  22.852  0.00  0.00    +0.217 A 
BRANCH  26  27
ATOM     27  C   UNL     1       3.979   1.245  22.854  0.00  0.00    +0.097 C 
BRANCH  27  28
ATOM     28  C   UNL     1       5.066   0.152  22.935  0.00  0.00    +0.006 C 
ATOM     29  C   UNL     1       5.427  -0.214  24.366  0.00  0.00    +0.004 C 
ENDBRANCH  27  28
ENDBRANCH  26  27
ENDBRANCH  15  23
ENDBRANCH  10  15
TORSDOF 10
ENDMDL
MODEL 6
REMARK VINA RESULT:      -1.4     15.108     17.448
REMARK  Name = 45783997
REMARK  14 active torsions:
REMARK  status: ('A' for Active; 'I' for Inactive)
REMARK    1  A    between atoms: O_2  and  C_25
REMARK    2  A    between atoms: N_3  and  C_12
REMARK    3  A    between atoms: N_4  and  C_24
REMARK    4  A    between atoms: C_7  and  C_11
REMARK    5  A    between atoms: C_8  and  C_12
REMARK    6  A    between atoms: C_10  and  C_15
REMARK    7  A    between atoms: C_11  and  C_18
REMARK    8  A    between atoms: C_11  and  C_19
REMARK    9  A    between atoms: C_14  and  C_22
REMARK   10  A    between atoms: C_15  and  C_23
REMARK   11  A    between atoms: C_24  and  C_25
REMARK   12  A    between atoms: C_26  and  C_27
REMARK   13  A    between atoms: C_27  and  C_28
REMARK   14  A    between atoms: C_28  and  C_29
REMARK                            x       y       z     vdW  Elec       q    Type
REMARK                         _______ _______ _______ _____ _____    ______ ____
ROOT
ATOM      7  C   UNL     1      -6.844  -9.469   8.878  0.00  0.00    +0.000 C 
ATOM      8  C   UNL     1      -5.569  -9.410   9.751  0.00  0.00    +0.029 C 
ATOM      9  C   UNL     1      -7.944 -10.273   9.585  0.00  0.00    +0.012 C 
ATOM     10  C   UNL     1      -8.303  -9.721  10.982  0.00  0.00    +0.024 C 
ATOM     13  C   UNL     1      -5.873  -9.129  11.200  0.00  0.00    -0.023 C 
ATOM     14  C   UNL     1      -7.088  -9.249  11.766  0.00  0.00    -0.073 C 
ATOM     22  C   UNL     1      -7.298  -8.858  13.203  0.00  0.00    +0.039 C 
ENDROOT
BRANCH   7  11
ATOM     11  C   UNL     1      -7.335  -8.062   8.509  0.00  0.00    -0.013 C 
ATOM     18  C   UNL     1      -6.492  -7.004   9.214  0.00  0.00    +0.007 C 
ATOM     19  C   UNL     1      -8.810  -7.903   8.864  0.00  0.00    +0.007 C 
ENDBRANCH   7  11
BRANCH   8  12
ATOM     12  C   UNL     1      -4.754 -10.704   9.649  0.00  0.00    +0.092 C 
BRANCH  12   3
ATOM      3  N   UNL     1      -3.615 -10.669  10.564  0.00  0.00    -0.299 NA
ATOM      4  N   UNL     1      -2.086  -9.514  12.729  0.00  0.00    -0.298 NA
ATOM     16  C   UNL     1      -2.830  -9.443  10.374  0.00  0.00    +0.100 C 
ATOM     17  C   UNL     1      -4.062 -10.781  11.958  0.00  0.00    +0.100 C 
ATOM     20  C   UNL     1      -1.637  -9.403  11.336  0.00  0.00    +0.100 C 
ATOM     21  C   UNL     1      -2.869 -10.742  12.918  0.00  0.00    +0.100 C 
BRANCH   4  24
ATOM     24  C   UNL     1      -0.947  -9.478  13.646  0.00  0.00    +0.112 C 
BRANCH  24  25
ATOM     25  C   UNL     1      -1.364  -9.926  15.038  0.00  0.00    +0.171 C 
BRANCH  25   2
ATOM      2  O   UNL     1      -0.231 -10.471  15.700  0.00  0.00    -0.394 OA
ATOM     30  H   UNL     1       0.118 -11.179  15.131  0.00  0.00    +0.209 HD
ENDBRANCH  25   2
ENDBRANCH  24  25
ENDBRANCH   4  24
ENDBRANCH  12   3
ENDBRANCH   8  12
BRANCH  10  15
ATOM     15  C   UNL     1      -9.123 -10.779  11.730  0.00  0.00    +0.105 C 
BRANCH  15  23
ATOM      1  O   UNL     1      -9.209 -10.781  14.169  0.00  0.00    -0.425 OA
ATOM      5  N   UNL     1     -10.570  -9.290  13.206  0.00  0.00    -0.112 NA
ATOM      6  N   UNL     1     -10.719  -9.182  14.576  0.00  0.00    -0.112 NA
ATOM     23  C   UNL     1      -9.679 -10.235  13.014  0.00  0.00    +0.218 A 
ATOM     26  C   UNL     1      -9.906 -10.071  15.097  0.00  0.00    +0.217 A 
BRANCH  26  27
ATOM     27  C   UNL     1      -9.651 -10.393  16.506  0.00  0.00    +0.097 C 
BRANCH  27  28
ATOM     28  C   UNL     1      -9.111  -9.192  17.312  0.00  0.00    +0.006 C 
ATOM     29  C   UNL     1      -7.697  -9.416  17.825  0.00  0.00    +0.004 C 
ENDBRANCH  27  28
ENDBRANCH  26  27
ENDBRANCH  15  23
ENDBRANCH  10  15
TORSDOF 10
ENDMDL
MODEL 7
REMARK VINA RESULT:      -0.7      1.551      4.408
REMARK  Name = 45783997
REMARK  14 active torsions:
REMARK  status: ('A' for Active; 'I' for Inactive)
REMARK    1  A    between atoms: O_2  and  C_25
REMARK    2  A    between atoms: N_3  and  C_12
REMARK    3  A    between atoms: N_4  and  C_24
REMARK    4  A    between atoms: C_7  and  C_11
REMARK    5  A    between atoms: C_8  and  C_12
REMARK    6  A    between atoms: C_10  and  C_15
REMARK    7  A    between atoms: C_11  and  C_18
REMARK    8  A    between atoms: C_11  and  C_19
REMARK    9  A    between atoms: C_14  and  C_22
REMARK   10  A    between atoms: C_15  and  C_23
REMARK   11  A    between atoms: C_24  and  C_25
REMARK   12  A    between atoms: C_26  and  C_27
REMARK   13  A    between atoms: C_27  and  C_28
REMARK   14  A    between atoms: C_28  and  C_29
REMARK                            x       y       z     vdW  Elec       q    Type
REMARK                         _______ _______ _______ _____ _____    ______ ____
ROOT
ATOM      7  C   UNL     1      -1.297   3.660  24.385  0.00  0.00    +0.000 C 
ATOM      8  C   UNL     1      -0.935   2.763  25.591  0.00  0.00    +0.029 C 
ATOM      9  C   UNL     1      -2.820   3.778  24.239  0.00  0.00    +0.012 C 
ATOM     10  C   UNL     1      -3.516   4.317  25.508  0.00  0.00    +0.024 C 
ATOM     13  C   UNL     1      -1.772   3.064  26.808  0.00  0.00    -0.023 C 
ATOM     14  C   UNL     1      -2.919   3.766  26.794  0.00  0.00    -0.073 C 
ATOM     22  C   UNL     1      -3.631   4.084  28.081  0.00  0.00    +0.039 C 
ENDROOT
BRANCH   7  11
ATOM     11  C   UNL     1      -0.641   5.044  24.502  0.00  0.00    -0.013 C 
ATOM     18  C   UNL     1      -1.702   6.116  24.729  0.00  0.00    +0.007 C 
ATOM     19  C   UNL     1       0.179   5.350  23.253  0.00  0.00    +0.007 C 
ENDBRANCH   7  11
BRANCH   8  12
ATOM     12  C   UNL     1      -1.064   1.275  25.248  0.00  0.00    +0.092 C 
BRANCH  12   3
ATOM      3  N   UNL     1       0.181   0.768  24.674  0.00  0.00    -0.299 NA
ATOM      4  N   UNL     1       2.032   0.361  22.491  0.00  0.00    -0.298 NA
ATOM     16  C   UNL     1      -0.092  -0.211  23.616  0.00  0.00    +0.100 C 
ATOM     17  C   UNL     1       1.001   1.869  24.155  0.00  0.00    +0.100 C 
ATOM     20  C   UNL     1       1.213  -0.740  23.010  0.00  0.00    +0.100 C 
ATOM     21  C   UNL     1       2.306   1.340  23.551  0.00  0.00    +0.100 C 
BRANCH   4  24
ATOM     24  C   UNL     1       3.277  -0.144  21.915  0.00  0.00    +0.112 C 
BRANCH  24  25
ATOM     25  C   UNL     1       4.466   0.250  22.778  0.00  0.00    +0.171 C 
BRANCH  25   2
ATOM      2  O   UNL     1       4.731  -0.802  23.696  0.00  0.00    -0.394 OA
ATOM     30  H   UNL     1       3.966  -1.402  23.671  0.00  0.00    +0.209 HD
ENDBRANCH  25   2
ENDBRANCH  24  25
ENDBRANCH   4  24
ENDBRANCH  12   3
ENDBRANCH   8  12
BRANCH  10  15
ATOM     15  C   UNL     1      -5.022   4.056  25.388  0.00  0.00    +0.105 C 
BRANCH  15  23
ATOM      1  O   UNL     1      -4.262   1.839  24.707  0.00  0.00    -0.425 OA
ATOM      5  N   UNL     1      -6.435   1.941  25.228  0.00  0.00    -0.112 NA
ATOM      6  N   UNL     1      -6.143   0.639  24.865  0.00  0.00    -0.112 NA
ATOM     23  C   UNL     1      -5.307   2.605  25.121  0.00  0.00    +0.218 A 
ATOM     26  C   UNL     1      -4.864   0.626  24.568  0.00  0.00    +0.217 A 
BRANCH  26  27
ATOM     27  C   UNL     1      -4.019  -0.488  24.123  0.00  0.00    +0.097 C 
BRANCH  27  28
ATOM     28  C   UNL     1      -3.585  -1.416  25.278  0.00  0.00    +0.006 C 
ATOM     29  C   UNL     1      -3.362  -2.851  24.827  0.00  0.00    +0.004 C 
ENDBRANCH  27  28
ENDBRANCH  26  27
ENDBRANCH  15  23
ENDBRANCH  10  15
TORSDOF 10
ENDMDL
MODEL 8
REMARK VINA RESULT:      -0.5      1.402      2.118
REMARK  Name = 45783997
REMARK  14 active torsions:
REMARK  status: ('A' for Active; 'I' for Inactive)
REMARK    1  A    between atoms: O_2  and  C_25
REMARK    2  A    between atoms: N_3  and  C_12
REMARK    3  A    between atoms: N_4  and  C_24
REMARK    4  A    between atoms: C_7  and  C_11
REMARK    5  A    between atoms: C_8  and  C_12
REMARK    6  A    between atoms: C_10  and  C_15
REMARK    7  A    between atoms: C_11  and  C_18
REMARK    8  A    between atoms: C_11  and  C_19
REMARK    9  A    between atoms: C_14  and  C_22
REMARK   10  A    between atoms: C_15  and  C_23
REMARK   11  A    between atoms: C_24  and  C_25
REMARK   12  A    between atoms: C_26  and  C_27
REMARK   13  A    between atoms: C_27  and  C_28
REMARK   14  A    between atoms: C_28  and  C_29
REMARK                            x       y       z     vdW  Elec       q    Type
REMARK                         _______ _______ _______ _____ _____    ______ ____
ROOT
ATOM      7  C   UNL     1      -3.553  -0.402  25.250  0.00  0.00    +0.000 C 
ATOM      8  C   UNL     1      -2.374  -0.429  24.251  0.00  0.00    +0.029 C 
ATOM      9  C   UNL     1      -3.861   1.039  25.681  0.00  0.00    +0.012 C 
ATOM     10  C   UNL     1      -4.170   1.979  24.496  0.00  0.00    +0.024 C 
ATOM     13  C   UNL     1      -2.479   0.649  23.202  0.00  0.00    -0.023 C 
ATOM     14  C   UNL     1      -3.283   1.724  23.287  0.00  0.00    -0.073 C 
ATOM     22  C   UNL     1      -3.375   2.695  22.142  0.00  0.00    +0.039 C 
ENDROOT
BRANCH   7  11
ATOM     11  C   UNL     1      -4.798  -1.084  24.664  0.00  0.00    -0.013 C 
ATOM     18  C   UNL     1      -4.409  -1.989  23.499  0.00  0.00    +0.007 C 
ATOM     19  C   UNL     1      -5.818  -0.039  24.221  0.00  0.00    +0.007 C 
ENDBRANCH   7  11
BRANCH   8  12
ATOM     12  C   UNL     1      -1.024  -0.306  24.966  0.00  0.00    +0.092 C 
BRANCH  12   3
ATOM      3  N   UNL     1       0.042  -0.013  24.010  0.00  0.00    -0.299 NA
ATOM      4  N   UNL     1       2.798   0.500  23.304  0.00  0.00    -0.298 NA
ATOM     16  C   UNL     1       0.681   1.272  24.317  0.00  0.00    +0.100 C 
ATOM     17  C   UNL     1       1.038  -1.091  23.994  0.00  0.00    +0.100 C 
ATOM     20  C   UNL     1       1.802   1.578  23.317  0.00  0.00    +0.100 C 
ATOM     21  C   UNL     1       2.158  -0.785  22.994  0.00  0.00    +0.100 C 
BRANCH   4  24
ATOM     24  C   UNL     1       3.866   0.791  22.349  0.00  0.00    +0.112 C 
BRANCH  24  25
ATOM     25  C   UNL     1       5.221   0.415  22.926  0.00  0.00    +0.171 C 
BRANCH  25   2
ATOM      2  O   UNL     1       5.130   0.423  24.344  0.00  0.00    -0.394 OA
ATOM     30  H   UNL     1       4.562  -0.325  24.598  0.00  0.00    +0.209 HD
ENDBRANCH  25   2
ENDBRANCH  24  25
ENDBRANCH   4  24
ENDBRANCH  12   3
ENDBRANCH   8  12
BRANCH  10  15
ATOM     15  C   UNL     1      -4.102   3.428  24.992  0.00  0.00    +0.105 C 
BRANCH  15  23
ATOM      1  O   UNL     1      -1.852   3.010  25.841  0.00  0.00    -0.425 OA
ATOM      5  N   UNL     1      -2.097   4.993  24.833  0.00  0.00    -0.112 NA
ATOM      6  N   UNL     1      -0.786   4.889  25.261  0.00  0.00    -0.112 NA
ATOM     23  C   UNL     1      -2.681   3.874  25.194  0.00  0.00    +0.218 A 
ATOM     26  C   UNL     1      -0.689   3.716  25.844  0.00  0.00    +0.217 A 
BRANCH  26  27
ATOM     27  C   UNL     1       0.472   3.080  26.477  0.00  0.00    +0.097 C 
BRANCH  27  28
ATOM     28  C   UNL     1       0.118   2.344  27.787  0.00  0.00    +0.006 C 
ATOM     29  C   UNL     1       1.212   2.454  28.837  0.00  0.00    +0.004 C 
ENDBRANCH  27  28
ENDBRANCH  26  27
ENDBRANCH  15  23
ENDBRANCH  10  15
TORSDOF 10
ENDMDL
MODEL 9
REMARK VINA RESULT:      -0.2      2.284      5.693
REMARK  Name = 45783997
REMARK  14 active torsions:
REMARK  status: ('A' for Active; 'I' for Inactive)
REMARK    1  A    between atoms: O_2  and  C_25
REMARK    2  A    between atoms: N_3  and  C_12
REMARK    3  A    between atoms: N_4  and  C_24
REMARK    4  A    between atoms: C_7  and  C_11
REMARK    5  A    between atoms: C_8  and  C_12
REMARK    6  A    between atoms: C_10  and  C_15
REMARK    7  A    between atoms: C_11  and  C_18
REMARK    8  A    between atoms: C_11  and  C_19
REMARK    9  A    between atoms: C_14  and  C_22
REMARK   10  A    between atoms: C_15  and  C_23
REMARK   11  A    between atoms: C_24  and  C_25
REMARK   12  A    between atoms: C_26  and  C_27
REMARK   13  A    between atoms: C_27  and  C_28
REMARK   14  A    between atoms: C_28  and  C_29
REMARK                            x       y       z     vdW  Elec       q    Type
REMARK                         _______ _______ _______ _____ _____    ______ ____
ROOT
ATOM      7  C   UNL     1      -4.067   3.022  25.461  0.00  0.00    +0.000 C 
ATOM      8  C   UNL     1      -3.897   3.579  24.029  0.00  0.00    +0.029 C 
ATOM      9  C   UNL     1      -2.722   2.525  26.009  0.00  0.00    +0.012 C 
ATOM     10  C   UNL     1      -1.623   3.609  26.007  0.00  0.00    +0.024 C 
ATOM     13  C   UNL     1      -2.676   4.451  23.889  0.00  0.00    -0.023 C 
ATOM     14  C   UNL     1      -1.657   4.488  24.767  0.00  0.00    -0.073 C 
ATOM     22  C   UNL     1      -0.525   5.461  24.575  0.00  0.00    +0.039 C 
ENDROOT
BRANCH   7  11
ATOM     11  C   UNL     1      -4.696   4.065  26.396  0.00  0.00    -0.013 C 
ATOM     18  C   UNL     1      -5.805   4.824  25.675  0.00  0.00    +0.007 C 
ATOM     19  C   UNL     1      -3.631   5.025  26.915  0.00  0.00    +0.007 C 
ENDBRANCH   7  11
BRANCH   8  12
ATOM     12  C   UNL     1      -3.836   2.456  22.989  0.00  0.00    +0.092 C 
BRANCH  12   3
ATOM      3  N   UNL     1      -3.517   1.180  23.625  0.00  0.00    -0.299 NA
ATOM      4  N   UNL     1      -3.933  -1.645  24.083  0.00  0.00    -0.298 NA
ATOM     16  C   UNL     1      -4.651   0.696  24.422  0.00  0.00    +0.100 C 
ATOM     17  C   UNL     1      -3.130   0.180  22.623  0.00  0.00    +0.100 C 
ATOM     20  C   UNL     1      -4.319  -0.645  25.087  0.00  0.00    +0.100 C 
ATOM     21  C   UNL     1      -2.798  -1.160  23.288  0.00  0.00    +0.100 C 
BRANCH   4  24
ATOM     24  C   UNL     1      -3.615  -2.922  24.718  0.00  0.00    +0.112 C 
BRANCH  24  25
ATOM     25  C   UNL     1      -2.170  -3.311  24.448  0.00  0.00    +0.171 C 
BRANCH  25   2
ATOM      2  O   UNL     1      -1.340  -2.677  25.411  0.00  0.00    -0.394 OA
ATOM     30  H   UNL     1      -1.742  -1.814  25.610  0.00  0.00    +0.209 HD
ENDBRANCH  25   2
ENDBRANCH  24  25
ENDBRANCH   4  24
ENDBRANCH  12   3
ENDBRANCH   8  12
BRANCH  10  15
ATOM     15  C   UNL     1      -0.266   2.929  26.221  0.00  0.00    +0.105 C 
BRANCH  15  23
ATOM      1  O   UNL     1       0.612   1.774  24.258  0.00  0.00    -0.425 OA
ATOM      5  N   UNL     1      -0.649   0.490  25.587  0.00  0.00    -0.112 NA
ATOM      6  N   UNL     1      -0.221  -0.284  24.525  0.00  0.00    -0.112 NA
ATOM     23  C   UNL     1      -0.138   1.684  25.390  0.00  0.00    +0.218 A 
ATOM     26  C   UNL     1       0.511   0.506  23.775  0.00  0.00    +0.217 A 
BRANCH  26  27
ATOM     27  C   UNL     1       1.219   0.215  22.523  0.00  0.00    +0.097 C 
BRANCH  27  28
ATOM     28  C   UNL     1       2.686  -0.211  22.743  0.00  0.00    +0.006 C 
ATOM     29  C   UNL     1       3.651   0.964  22.714  0.00  0.00    +0.004 C 
ENDBRANCH  27  28
ENDBRANCH  26  27
ENDBRANCH  15  23
ENDBRANCH  10  15
TORSDOF 10
ENDMDL
MODEL 10
REMARK VINA RESULT:      -0.0      2.038      3.943
REMARK  Name = 45783997
REMARK  14 active torsions:
REMARK  status: ('A' for Active; 'I' for Inactive)
REMARK    1  A    between atoms: O_2  and  C_25
REMARK    2  A    between atoms: N_3  and  C_12
REMARK    3  A    between atoms: N_4  and  C_24
REMARK    4  A    between atoms: C_7  and  C_11
REMARK    5  A    between atoms: C_8  and  C_12
REMARK    6  A    between atoms: C_10  and  C_15
REMARK    7  A    between atoms: C_11  and  C_18
REMARK    8  A    between atoms: C_11  and  C_19
REMARK    9  A    between atoms: C_14  and  C_22
REMARK   10  A    between atoms: C_15  and  C_23
REMARK   11  A    between atoms: C_24  and  C_25
REMARK   12  A    between atoms: C_26  and  C_27
REMARK   13  A    between atoms: C_27  and  C_28
REMARK   14  A    between atoms: C_28  and  C_29
REMARK                            x       y       z     vdW  Elec       q    Type
REMARK                         _______ _______ _______ _____ _____    ______ ____
ROOT
ATOM      7  C   UNL     1      -0.574   1.396  24.547  0.00  0.00    +0.000 C 
ATOM      8  C   UNL     1       0.247   0.098  24.378  0.00  0.00    +0.029 C 
ATOM      9  C   UNL     1      -2.041   1.161  24.159  0.00  0.00    +0.012 C 
ATOM     10  C   UNL     1      -2.709   0.022  24.958  0.00  0.00    +0.024 C 
ATOM     13  C   UNL     1      -0.471  -1.115  24.911  0.00  0.00    -0.023 C 
ATOM     14  C   UNL     1      -1.787  -1.165  25.189  0.00  0.00    -0.073 C 
ATOM     22  C   UNL     1      -2.387  -2.402  25.801  0.00  0.00    +0.039 C 
ENDROOT
BRANCH   7  11
ATOM     11  C   UNL     1      -0.460   1.948  25.975  0.00  0.00    -0.013 C 
ATOM     18  C   UNL     1      -1.508   3.031  26.211  0.00  0.00    +0.007 C 
ATOM     19  C   UNL     1       0.944   2.490  26.226  0.00  0.00    +0.007 C 
ENDBRANCH   7  11
BRANCH   8  12
ATOM     12  C   UNL     1       0.626  -0.145  22.913  0.00  0.00    +0.092 C 
BRANCH  12   3
ATOM      3  N   UNL     1       2.078  -0.132  22.747  0.00  0.00    -0.299 NA
ATOM      4  N   UNL     1       4.775   0.306  23.694  0.00  0.00    -0.298 NA
ATOM     16  C   UNL     1       2.612   1.223  22.928  0.00  0.00    +0.100 C 
ATOM     17  C   UNL     1       2.719  -1.064  23.683  0.00  0.00    +0.100 C 
ATOM     20  C   UNL     1       4.135   1.238  22.758  0.00  0.00    +0.100 C 
ATOM     21  C   UNL     1       4.241  -1.050  23.512  0.00  0.00    +0.100 C 
BRANCH   4  24
ATOM     24  C   UNL     1       6.227   0.319  23.530  0.00  0.00    +0.112 C 
BRANCH  24  25
ATOM     25  C   UNL     1       6.675  -0.816  22.625  0.00  0.00    +0.171 C 
BRANCH  25   2
ATOM      2  O   UNL     1       8.082  -0.728  22.444  0.00  0.00    -0.394 OA
ATOM     30  H   UNL     1       8.243  -0.661  21.487  0.00  0.00    +0.209 HD
ENDBRANCH  25   2
ENDBRANCH  24  25
ENDBRANCH   4  24
ENDBRANCH  12   3
ENDBRANCH   8  12
BRANCH  10  15
ATOM     15  C   UNL     1      -4.017  -0.364  24.258  0.00  0.00    +0.105 C 
BRANCH  15  23
ATOM      1  O   UNL     1      -4.718   1.814  25.107  0.00  0.00    -0.425 OA
ATOM      5  N   UNL     1      -6.380   0.589  24.245  0.00  0.00    -0.112 NA
ATOM      6  N   UNL     1      -6.914   1.787  24.683  0.00  0.00    -0.112 NA
ATOM     23  C   UNL     1      -5.096   0.649  24.513  0.00  0.00    +0.218 A 
ATOM     26  C   UNL     1      -5.908   2.470  25.179  0.00  0.00    +0.217 A 
BRANCH  26  27
ATOM     27  C   UNL     1      -5.893   3.808  25.780  0.00  0.00    +0.097 C 
BRANCH  27  28
ATOM     28  C   UNL     1      -4.628   4.617  25.422  0.00  0.00    +0.006 C 
ATOM     29  C   UNL     1      -4.057   4.244  24.062  0.00  0.00    +0.004 C 
ENDBRANCH  27  28
ENDBRANCH  26  27
ENDBRANCH  15  23
ENDBRANCH  10  15
TORSDOF 10
ENDMDL
