MODEL 1
REMARK VINA RESULT:       3.0      0.000      0.000
REMARK  Name = 11913295
REMARK  6 active torsions:
REMARK  status: ('A' for Active; 'I' for Inactive)
REMARK    1  A    between atoms: S_1  and  N_7
REMARK    2  A    between atoms: S_1  and  C_19
REMARK    3  A    between atoms: N_7  and  C_14
REMARK    4  A    between atoms: N_8  and  C_15
REMARK    5  A    between atoms: C_20  and  C_29
REMARK    6  A    between atoms: C_22  and  C_28
REMARK                            x       y       z     vdW  Elec       q    Type
REMARK                         _______ _______ _______ _____ _____    ______ ____
ROOT
ATOM      2  O   UNL     1      -1.253  -1.473  26.489  0.00  0.00    -0.370 OA
ATOM      3  O   UNL     1      -2.436  -2.283  23.712  0.00  0.00    -0.370 OA
ATOM     12  C   UNL     1      -1.732  -1.122  24.184  0.00  0.00    +0.170 C 
ATOM     13  C   UNL     1      -2.201  -0.856  25.602  0.00  0.00    +0.171 C 
ATOM     14  C   UNL     1      -0.262  -1.429  24.333  0.00  0.00    +0.133 C 
ATOM     15  C   UNL     1      -3.535  -1.559  25.690  0.00  0.00    +0.130 C 
ATOM     16  C   UNL     1      -0.186  -2.044  25.717  0.00  0.00    +0.183 C 
ATOM     17  C   UNL     1      -3.367  -2.712  24.717  0.00  0.00    +0.185 C 
ENDROOT
BRANCH  15   8
ATOM      8  N   UNL     1      -4.590  -0.676  25.242  0.00  0.00    -0.306 N 
ATOM      9  N   UNL     1      -3.176   1.196  25.247  0.00  0.00    -0.211 NA
ATOM     10  N   UNL     1      -5.490   1.394  24.602  0.00  0.00    -0.223 NA
ATOM     18  C   UNL     1      -4.414   0.678  25.024  0.00  0.00    +0.216 A 
ATOM     22  C   UNL     1      -3.040   2.520  25.024  0.00  0.00    +0.111 A 
ATOM     23  C   UNL     1      -5.283   2.711  24.398  0.00  0.00    +0.116 A 
ATOM     26  C   UNL     1      -4.068   3.335  24.594  0.00  0.00    +0.051 A 
ATOM     34  H   UNL     1      -5.502  -1.062  25.022  0.00  0.00    +0.149 HD
BRANCH  22  28
ATOM      6  O   UNL     1      -0.864   2.180  25.877  0.00  0.00    -0.461 OA
ATOM     28  C   UNL     1      -1.721   3.039  25.268  0.00  0.00    +0.153 A 
ATOM     30  C   UNL     1      -1.109   4.244  25.020  0.00  0.00    +0.051 A 
ATOM     31  C   UNL     1       0.212   4.119  25.509  0.00  0.00    +0.042 A 
ATOM     32  C   UNL     1       0.313   2.846  26.020  0.00  0.00    +0.196 A 
ENDBRANCH  22  28
ENDBRANCH  15   8
BRANCH  14   7
ATOM      7  N   UNL     1       0.515  -0.166  24.306  0.00  0.00    -0.182 NA
ATOM     33  H   UNL     1       0.343   0.517  25.053  0.00  0.00    +0.148 HD
BRANCH   7   1
ATOM      1  S   UNL     1       1.346   0.285  22.896  0.00  0.00    +0.060 S 
ATOM      4  O   UNL     1       1.363   1.731  22.786  0.00  0.00    -0.153 OA
ATOM      5  O   UNL     1       0.867  -0.525  21.792  0.00  0.00    -0.153 OA
BRANCH   1  19
ATOM     19  C   UNL     1       2.991  -0.254  23.253  0.00  0.00    +0.123 A 
ATOM     20  C   UNL     1       4.084   0.568  23.023  0.00  0.00    +0.078 A 
ATOM     21  C   UNL     1       3.152  -1.530  23.774  0.00  0.00    +0.030 A 
ATOM     24  C   UNL     1       5.366   0.104  23.319  0.00  0.00    +0.021 A 
ATOM     25  C   UNL     1       4.433  -1.994  24.071  0.00  0.00    +0.002 A 
ATOM     27  C   UNL     1       5.541  -1.176  23.844  0.00  0.00    +0.001 A 
BRANCH  20  29
ATOM     11  N   UNL     1       3.827   2.956  22.050  0.00  0.00    -0.191 NA
ATOM     29  C   UNL     1       3.943   1.887  22.485  0.00  0.00    +0.101 C 
ENDBRANCH  20  29
ENDBRANCH   1  19
ENDBRANCH   7   1
ENDBRANCH  14   7
TORSDOF 6
ENDMDL
MODEL 2
REMARK VINA RESULT:       3.1      2.826      7.019
REMARK  Name = 11913295
REMARK  6 active torsions:
REMARK  status: ('A' for Active; 'I' for Inactive)
REMARK    1  A    between atoms: S_1  and  N_7
REMARK    2  A    between atoms: S_1  and  C_19
REMARK    3  A    between atoms: N_7  and  C_14
REMARK    4  A    between atoms: N_8  and  C_15
REMARK    5  A    between atoms: C_20  and  C_29
REMARK    6  A    between atoms: C_22  and  C_28
REMARK                            x       y       z     vdW  Elec       q    Type
REMARK                         _______ _______ _______ _____ _____    ______ ____
ROOT
ATOM      2  O   UNL     1      -0.893   2.568  26.923  0.00  0.00    -0.370 OA
ATOM      3  O   UNL     1      -1.291   4.238  24.311  0.00  0.00    -0.370 OA
ATOM     12  C   UNL     1      -2.150   3.366  25.066  0.00  0.00    +0.170 C 
ATOM     13  C   UNL     1      -1.293   2.227  25.585  0.00  0.00    +0.171 C 
ATOM     14  C   UNL     1      -2.633   4.064  26.314  0.00  0.00    +0.133 C 
ATOM     15  C   UNL     1      -0.094   2.218  24.666  0.00  0.00    +0.130 C 
ATOM     16  C   UNL     1      -1.505   3.811  27.297  0.00  0.00    +0.183 C 
ATOM     17  C   UNL     1       0.029   3.676  24.265  0.00  0.00    +0.185 C 
ENDROOT
BRANCH  15   8
ATOM      8  N   UNL     1      -0.366   1.400  23.505  0.00  0.00    -0.306 N 
ATOM      9  N   UNL     1       1.854   0.655  23.370  0.00  0.00    -0.211 NA
ATOM     10  N   UNL     1       0.200  -0.092  21.785  0.00  0.00    -0.223 NA
ATOM     18  C   UNL     1       0.591   0.631  22.867  0.00  0.00    +0.216 A 
ATOM     22  C   UNL     1       2.762  -0.106  22.724  0.00  0.00    +0.111 A 
ATOM     23  C   UNL     1       1.158  -0.831  21.189  0.00  0.00    +0.116 A 
ATOM     26  C   UNL     1       2.468  -0.878  21.618  0.00  0.00    +0.051 A 
ATOM     34  H   UNL     1      -1.316   1.334  23.154  0.00  0.00    +0.149 HD
BRANCH  22  28
ATOM      6  O   UNL     1       4.504  -1.203  23.882  0.00  0.00    -0.461 OA
ATOM     28  C   UNL     1       4.089  -0.061  23.278  0.00  0.00    +0.153 A 
ATOM     30  C   UNL     1       5.064   0.905  23.340  0.00  0.00    +0.051 A 
ATOM     31  C   UNL     1       6.152   0.318  24.028  0.00  0.00    +0.042 A 
ATOM     32  C   UNL     1       5.763  -0.965  24.336  0.00  0.00    +0.196 A 
ENDBRANCH  22  28
ENDBRANCH  15   8
BRANCH  14   7
ATOM      7  N   UNL     1      -3.872   3.411  26.801  0.00  0.00    -0.182 NA
ATOM     33  H   UNL     1      -3.869   3.030  27.755  0.00  0.00    +0.148 HD
BRANCH   7   1
ATOM      1  S   UNL     1      -5.083   2.969  25.696  0.00  0.00    +0.060 S 
ATOM      4  O   UNL     1      -5.111   3.920  24.601  0.00  0.00    -0.153 OA
ATOM      5  O   UNL     1      -6.297   2.666  26.429  0.00  0.00    -0.153 OA
BRANCH   1  19
ATOM     19  C   UNL     1      -4.464   1.436  25.070  0.00  0.00    +0.123 A 
ATOM     20  C   UNL     1      -3.950   1.338  23.786  0.00  0.00    +0.078 A 
ATOM     21  C   UNL     1      -4.509   0.332  25.910  0.00  0.00    +0.030 A 
ATOM     24  C   UNL     1      -3.472   0.108  23.331  0.00  0.00    +0.021 A 
ATOM     25  C   UNL     1      -4.030  -0.896  25.456  0.00  0.00    +0.002 A 
ATOM     27  C   UNL     1      -3.510  -1.008  24.166  0.00  0.00    +0.001 A 
BRANCH  20  29
ATOM     11  N   UNL     1      -3.850   3.372  22.185  0.00  0.00    -0.191 NA
ATOM     29  C   UNL     1      -3.895   2.462  22.901  0.00  0.00    +0.101 C 
ENDBRANCH  20  29
ENDBRANCH   1  19
ENDBRANCH   7   1
ENDBRANCH  14   7
TORSDOF 6
ENDMDL
MODEL 3
REMARK VINA RESULT:       3.2      2.920      7.427
REMARK  Name = 11913295
REMARK  6 active torsions:
REMARK  status: ('A' for Active; 'I' for Inactive)
REMARK    1  A    between atoms: S_1  and  N_7
REMARK    2  A    between atoms: S_1  and  C_19
REMARK    3  A    between atoms: N_7  and  C_14
REMARK    4  A    between atoms: N_8  and  C_15
REMARK    5  A    between atoms: C_20  and  C_29
REMARK    6  A    between atoms: C_22  and  C_28
REMARK                            x       y       z     vdW  Elec       q    Type
REMARK                         _______ _______ _______ _____ _____    ______ ____
ROOT
ATOM      2  O   UNL     1      -1.990   3.177  26.575  0.00  0.00    -0.370 OA
ATOM      3  O   UNL     1      -0.102   5.184  25.100  0.00  0.00    -0.370 OA
ATOM     12  C   UNL     1      -1.294   4.482  24.711  0.00  0.00    +0.170 C 
ATOM     13  C   UNL     1      -1.239   3.109  25.351  0.00  0.00    +0.171 C 
ATOM     14  C   UNL     1      -2.508   5.131  25.331  0.00  0.00    +0.133 C 
ATOM     15  C   UNL     1       0.227   2.896  25.647  0.00  0.00    +0.130 C 
ATOM     16  C   UNL     1      -2.569   4.485  26.702  0.00  0.00    +0.183 C 
ATOM     17  C   UNL     1       0.727   4.310  25.881  0.00  0.00    +0.185 C 
ENDROOT
BRANCH  15   8
ATOM      8  N   UNL     1       0.884   2.317  24.496  0.00  0.00    -0.306 N 
ATOM      9  N   UNL     1      -0.368   0.338  24.638  0.00  0.00    -0.211 NA
ATOM     10  N   UNL     1       1.285   0.635  22.909  0.00  0.00    -0.223 NA
ATOM     18  C   UNL     1       0.592   1.059  24.000  0.00  0.00    +0.216 A 
ATOM     22  C   UNL     1      -0.629  -0.883  24.126  0.00  0.00    +0.111 A 
ATOM     23  C   UNL     1       0.973  -0.595  22.451  0.00  0.00    +0.116 A 
ATOM     26  C   UNL     1       0.016  -1.406  23.023  0.00  0.00    +0.051 A 
ATOM     34  H   UNL     1       1.565   2.866  23.982  0.00  0.00    +0.149 HD
BRANCH  22  28
ATOM      6  O   UNL     1      -2.081  -1.063  25.980  0.00  0.00    -0.461 OA
ATOM     28  C   UNL     1      -1.649  -1.622  24.822  0.00  0.00    +0.153 A 
ATOM     30  C   UNL     1      -2.306  -2.803  24.575  0.00  0.00    +0.051 A 
ATOM     31  C   UNL     1      -3.203  -2.983  25.654  0.00  0.00    +0.042 A 
ATOM     32  C   UNL     1      -3.029  -1.898  26.482  0.00  0.00    +0.196 A 
ENDBRANCH  22  28
ENDBRANCH  15   8
BRANCH  14   7
ATOM      7  N   UNL     1      -3.718   4.769  24.555  0.00  0.00    -0.182 NA
ATOM     33  H   UNL     1      -3.882   5.261  23.669  0.00  0.00    +0.148 HD
BRANCH   7   1
ATOM      1  S   UNL     1      -4.961   3.880  25.295  0.00  0.00    +0.060 S 
ATOM      4  O   UNL     1      -6.246   4.351  24.813  0.00  0.00    -0.153 OA
ATOM      5  O   UNL     1      -4.700   3.807  26.720  0.00  0.00    -0.153 OA
BRANCH   1  19
ATOM     19  C   UNL     1      -4.693   2.261  24.639  0.00  0.00    +0.123 A 
ATOM     20  C   UNL     1      -5.352   1.156  25.156  0.00  0.00    +0.078 A 
ATOM     21  C   UNL     1      -3.799   2.134  23.585  0.00  0.00    +0.030 A 
ATOM     24  C   UNL     1      -5.111  -0.105  24.608  0.00  0.00    +0.021 A 
ATOM     25  C   UNL     1      -3.560   0.874  23.037  0.00  0.00    +0.002 A 
ATOM     27  C   UNL     1      -4.216  -0.246  23.548  0.00  0.00    +0.001 A 
BRANCH  20  29
ATOM     11  N   UNL     1      -7.026   1.350  27.124  0.00  0.00    -0.191 NA
ATOM     29  C   UNL     1      -6.277   1.263  26.243  0.00  0.00    +0.101 C 
ENDBRANCH  20  29
ENDBRANCH   1  19
ENDBRANCH   7   1
ENDBRANCH  14   7
TORSDOF 6
ENDMDL
MODEL 4
REMARK VINA RESULT:       3.7      2.073      4.312
REMARK  Name = 11913295
REMARK  6 active torsions:
REMARK  status: ('A' for Active; 'I' for Inactive)
REMARK    1  A    between atoms: S_1  and  N_7
REMARK    2  A    between atoms: S_1  and  C_19
REMARK    3  A    between atoms: N_7  and  C_14
REMARK    4  A    between atoms: N_8  and  C_15
REMARK    5  A    between atoms: C_20  and  C_29
REMARK    6  A    between atoms: C_22  and  C_28
REMARK                            x       y       z     vdW  Elec       q    Type
REMARK                         _______ _______ _______ _____ _____    ______ ____
ROOT
ATOM      2  O   UNL     1      -1.168   2.745  23.165  0.00  0.00    -0.370 OA
ATOM      3  O   UNL     1      -0.870   4.398  25.801  0.00  0.00    -0.370 OA
ATOM     12  C   UNL     1      -1.119   3.008  25.530  0.00  0.00    +0.170 C 
ATOM     13  C   UNL     1      -2.016   2.940  24.309  0.00  0.00    +0.171 C 
ATOM     14  C   UNL     1       0.154   2.326  25.092  0.00  0.00    +0.133 C 
ATOM     15  C   UNL     1      -2.667   4.302  24.252  0.00  0.00    +0.130 C 
ATOM     16  C   UNL     1       0.193   2.614  23.603  0.00  0.00    +0.183 C 
ATOM     17  C   UNL     1      -1.613   5.201  24.872  0.00  0.00    +0.185 C 
ENDROOT
BRANCH  15   8
ATOM      8  N   UNL     1      -3.869   4.311  25.056  0.00  0.00    -0.306 N 
ATOM      9  N   UNL     1      -4.067   1.974  24.983  0.00  0.00    -0.211 NA
ATOM     10  N   UNL     1      -5.674   3.315  26.178  0.00  0.00    -0.223 NA
ATOM     18  C   UNL     1      -4.557   3.166  25.416  0.00  0.00    +0.216 A 
ATOM     22  C   UNL     1      -4.763   0.878  25.353  0.00  0.00    +0.111 A 
ATOM     23  C   UNL     1      -6.319   2.179  26.512  0.00  0.00    +0.116 A 
ATOM     26  C   UNL     1      -5.906   0.920  26.125  0.00  0.00    +0.051 A 
ATOM     34  H   UNL     1      -4.214   5.189  25.429  0.00  0.00    +0.149 HD
BRANCH  22  28
ATOM      6  O   UNL     1      -3.646  -1.147  25.830  0.00  0.00    -0.461 OA
ATOM     28  C   UNL     1      -4.220  -0.367  24.880  0.00  0.00    +0.153 A 
ATOM     30  C   UNL     1      -4.147  -0.968  23.646  0.00  0.00    +0.051 A 
ATOM     31  C   UNL     1      -3.483  -2.200  23.851  0.00  0.00    +0.042 A 
ATOM     32  C   UNL     1      -3.198  -2.263  25.195  0.00  0.00    +0.196 A 
ENDBRANCH  22  28
ENDBRANCH  15   8
BRANCH  14   7
ATOM      7  N   UNL     1       0.037   0.864  25.313  0.00  0.00    -0.182 NA
ATOM     33  H   UNL     1       0.146   0.516  26.273  0.00  0.00    +0.148 HD
BRANCH   7   1
ATOM      1  S   UNL     1       0.118  -0.199  23.992  0.00  0.00    +0.060 S 
ATOM      4  O   UNL     1      -0.836   0.214  22.979  0.00  0.00    -0.153 OA
ATOM      5  O   UNL     1       0.111  -1.562  24.487  0.00  0.00    -0.153 OA
BRANCH   1  19
ATOM     19  C   UNL     1       1.742   0.114  23.370  0.00  0.00    +0.123 A 
ATOM     20  C   UNL     1       2.055  -0.092  22.035  0.00  0.00    +0.078 A 
ATOM     21  C   UNL     1       2.697   0.576  24.266  0.00  0.00    +0.030 A 
ATOM     24  C   UNL     1       3.350   0.168  21.586  0.00  0.00    +0.021 A 
ATOM     25  C   UNL     1       3.991   0.836  23.817  0.00  0.00    +0.002 A 
ATOM     27  C   UNL     1       4.318   0.633  22.476  0.00  0.00    +0.001 A 
BRANCH  20  29
ATOM     11  N   UNL     1       0.305  -0.952  20.330  0.00  0.00    -0.191 NA
ATOM     29  C   UNL     1       1.088  -0.567  21.093  0.00  0.00    +0.101 C 
ENDBRANCH  20  29
ENDBRANCH   1  19
ENDBRANCH   7   1
ENDBRANCH  14   7
TORSDOF 6
ENDMDL
MODEL 5
REMARK VINA RESULT:       3.9      2.283      4.541
REMARK  Name = 11913295
REMARK  6 active torsions:
REMARK  status: ('A' for Active; 'I' for Inactive)
REMARK    1  A    between atoms: S_1  and  N_7
REMARK    2  A    between atoms: S_1  and  C_19
REMARK    3  A    between atoms: N_7  and  C_14
REMARK    4  A    between atoms: N_8  and  C_15
REMARK    5  A    between atoms: C_20  and  C_29
REMARK    6  A    between atoms: C_22  and  C_28
REMARK                            x       y       z     vdW  Elec       q    Type
REMARK                         _______ _______ _______ _____ _____    ______ ____
ROOT
ATOM      2  O   UNL     1      -3.236   2.780  21.953  0.00  0.00    -0.370 OA
ATOM      3  O   UNL     1      -1.988   3.876  24.601  0.00  0.00    -0.370 OA
ATOM     12  C   UNL     1      -2.480   2.586  24.202  0.00  0.00    +0.170 C 
ATOM     13  C   UNL     1      -3.690   2.818  23.317  0.00  0.00    +0.171 C 
ATOM     14  C   UNL     1      -1.484   1.905  23.294  0.00  0.00    +0.133 C 
ATOM     15  C   UNL     1      -4.151   4.211  23.677  0.00  0.00    +0.130 C 
ATOM     16  C   UNL     1      -1.835   2.467  21.930  0.00  0.00    +0.183 C 
ATOM     17  C   UNL     1      -2.857   4.894  24.082  0.00  0.00    +0.185 C 
ENDROOT
BRANCH  15   8
ATOM      8  N   UNL     1      -5.061   4.156  24.799  0.00  0.00    -0.306 N 
ATOM      9  N   UNL     1      -4.859   1.826  24.992  0.00  0.00    -0.211 NA
ATOM     10  N   UNL     1      -6.276   3.074  26.490  0.00  0.00    -0.223 NA
ATOM     18  C   UNL     1      -5.409   2.984  25.446  0.00  0.00    +0.216 A 
ATOM     22  C   UNL     1      -5.219   0.703  25.646  0.00  0.00    +0.111 A 
ATOM     23  C   UNL     1      -6.592   1.912  27.099  0.00  0.00    +0.116 A 
ATOM     26  C   UNL     1      -6.090   0.685  26.717  0.00  0.00    +0.051 A 
ATOM     34  H   UNL     1      -5.436   5.019  25.179  0.00  0.00    +0.149 HD
BRANCH  22  28
ATOM      6  O   UNL     1      -3.873  -1.198  26.039  0.00  0.00    -0.461 OA
ATOM     28  C   UNL     1      -4.622  -0.505  25.143  0.00  0.00    +0.153 A 
ATOM     30  C   UNL     1      -4.633  -1.139  23.924  0.00  0.00    +0.051 A 
ATOM     31  C   UNL     1      -3.839  -2.299  24.080  0.00  0.00    +0.042 A 
ATOM     32  C   UNL     1      -3.400  -2.290  25.383  0.00  0.00    +0.196 A 
ENDBRANCH  22  28
ENDBRANCH  15   8
BRANCH  14   7
ATOM      7  N   UNL     1      -1.719   0.441  23.305  0.00  0.00    -0.182 NA
ATOM     33  H   UNL     1      -2.666   0.108  23.088  0.00  0.00    +0.148 HD
BRANCH   7   1
ATOM      1  S   UNL     1      -0.583  -0.591  24.030  0.00  0.00    +0.060 S 
ATOM      4  O   UNL     1      -0.766  -1.940  23.529  0.00  0.00    -0.153 OA
ATOM      5  O   UNL     1      -0.567  -0.340  25.458  0.00  0.00    -0.153 OA
BRANCH   1  19
ATOM     19  C   UNL     1       0.940   0.030  23.382  0.00  0.00    +0.123 A 
ATOM     20  C   UNL     1       1.539   1.164  23.910  0.00  0.00    +0.078 A 
ATOM     21  C   UNL     1       1.517  -0.659  22.324  0.00  0.00    +0.030 A 
ATOM     24  C   UNL     1       2.741   1.620  23.368  0.00  0.00    +0.021 A 
ATOM     25  C   UNL     1       2.719  -0.203  21.783  0.00  0.00    +0.002 A 
ATOM     27  C   UNL     1       3.332   0.936  22.305  0.00  0.00    +0.001 A 
BRANCH  20  29
ATOM     11  N   UNL     1       0.494   2.479  25.882  0.00  0.00    -0.191 NA
ATOM     29  C   UNL     1       0.962   1.890  25.000  0.00  0.00    +0.101 C 
ENDBRANCH  20  29
ENDBRANCH   1  19
ENDBRANCH   7   1
ENDBRANCH  14   7
TORSDOF 6
ENDMDL
MODEL 6
REMARK VINA RESULT:       4.4      2.639      7.302
REMARK  Name = 11913295
REMARK  6 active torsions:
REMARK  status: ('A' for Active; 'I' for Inactive)
REMARK    1  A    between atoms: S_1  and  N_7
REMARK    2  A    between atoms: S_1  and  C_19
REMARK    3  A    between atoms: N_7  and  C_14
REMARK    4  A    between atoms: N_8  and  C_15
REMARK    5  A    between atoms: C_20  and  C_29
REMARK    6  A    between atoms: C_22  and  C_28
REMARK                            x       y       z     vdW  Elec       q    Type
REMARK                         _______ _______ _______ _____ _____    ______ ____
ROOT
ATOM      2  O   UNL     1      -2.238   3.186  26.329  0.00  0.00    -0.370 OA
ATOM      3  O   UNL     1      -0.053   5.138  25.239  0.00  0.00    -0.370 OA
ATOM     12  C   UNL     1      -1.203   4.514  24.646  0.00  0.00    +0.170 C 
ATOM     13  C   UNL     1      -1.313   3.119  25.230  0.00  0.00    +0.171 C 
ATOM     14  C   UNL     1      -2.465   5.205  25.102  0.00  0.00    +0.133 C 
ATOM     15  C   UNL     1       0.079   2.818  25.735  0.00  0.00    +0.130 C 
ATOM     16  C   UNL     1      -2.766   4.517  26.420  0.00  0.00    +0.183 C 
ATOM     17  C   UNL     1       0.604   4.195  26.100  0.00  0.00    +0.185 C 
ENDROOT
BRANCH  15   8
ATOM      8  N   UNL     1       0.877   2.244  24.674  0.00  0.00    -0.306 N 
ATOM      9  N   UNL     1      -0.376   0.260  24.656  0.00  0.00    -0.211 NA
ATOM     10  N   UNL     1       1.478   0.567  23.147  0.00  0.00    -0.223 NA
ATOM     18  C   UNL     1       0.653   0.986  24.144  0.00  0.00    +0.216 A 
ATOM     22  C   UNL     1      -0.566  -0.961  24.115  0.00  0.00    +0.111 A 
ATOM     23  C   UNL     1       1.231  -0.663  22.652  0.00  0.00    +0.116 A 
ATOM     26  C   UNL     1       0.213  -1.480  23.100  0.00  0.00    +0.051 A 
ATOM     34  H   UNL     1       1.614   2.797  24.249  0.00  0.00    +0.149 HD
BRANCH  22  28
ATOM      6  O   UNL     1      -2.225  -1.159  25.784  0.00  0.00    -0.461 OA
ATOM     28  C   UNL     1      -1.661  -1.705  24.677  0.00  0.00    +0.153 A 
ATOM     30  C   UNL     1      -2.288  -2.881  24.341  0.00  0.00    +0.051 A 
ATOM     31  C   UNL     1      -3.305  -3.071  25.306  0.00  0.00    +0.042 A 
ATOM     32  C   UNL     1      -3.226  -1.997  26.162  0.00  0.00    +0.196 A 
ENDBRANCH  22  28
ENDBRANCH  15   8
BRANCH  14   7
ATOM      7  N   UNL     1      -3.559   4.934  24.138  0.00  0.00    -0.182 NA
ATOM     33  H   UNL     1      -4.349   5.589  24.116  0.00  0.00    +0.148 HD
BRANCH   7   1
ATOM      1  S   UNL     1      -3.677   3.408  23.403  0.00  0.00    +0.060 S 
ATOM      4  O   UNL     1      -2.373   2.771  23.399  0.00  0.00    -0.153 OA
ATOM      5  O   UNL     1      -4.426   3.541  22.169  0.00  0.00    -0.153 OA
BRANCH   1  19
ATOM     19  C   UNL     1      -4.708   2.534  24.540  0.00  0.00    +0.123 A 
ATOM     20  C   UNL     1      -4.806   1.150  24.508  0.00  0.00    +0.078 A 
ATOM     21  C   UNL     1      -5.419   3.280  25.470  0.00  0.00    +0.030 A 
ATOM     24  C   UNL     1      -5.632   0.499  25.425  0.00  0.00    +0.021 A 
ATOM     25  C   UNL     1      -6.244   2.629  26.386  0.00  0.00    +0.002 A 
ATOM     27  C   UNL     1      -6.351   1.238  26.365  0.00  0.00    +0.001 A 
BRANCH  20  29
ATOM     11  N   UNL     1      -3.499  -0.281  22.789  0.00  0.00    -0.191 NA
ATOM     29  C   UNL     1      -4.083   0.360  23.558  0.00  0.00    +0.101 C 
ENDBRANCH  20  29
ENDBRANCH   1  19
ENDBRANCH   7   1
ENDBRANCH  14   7
TORSDOF 6
ENDMDL
MODEL 7
REMARK VINA RESULT:       4.6      2.834      6.662
REMARK  Name = 11913295
REMARK  6 active torsions:
REMARK  status: ('A' for Active; 'I' for Inactive)
REMARK    1  A    between atoms: S_1  and  N_7
REMARK    2  A    between atoms: S_1  and  C_19
REMARK    3  A    between atoms: N_7  and  C_14
REMARK    4  A    between atoms: N_8  and  C_15
REMARK    5  A    between atoms: C_20  and  C_29
REMARK    6  A    between atoms: C_22  and  C_28
REMARK                            x       y       z     vdW  Elec       q    Type
REMARK                         _______ _______ _______ _____ _____    ______ ____
ROOT
ATOM      2  O   UNL     1      -1.609   3.324  27.145  0.00  0.00    -0.370 OA
ATOM      3  O   UNL     1      -1.760   4.880  24.440  0.00  0.00    -0.370 OA
ATOM     12  C   UNL     1      -2.238   3.594  24.866  0.00  0.00    +0.170 C 
ATOM     13  C   UNL     1      -1.196   3.014  25.804  0.00  0.00    +0.171 C 
ATOM     14  C   UNL     1      -3.465   3.752  25.730  0.00  0.00    +0.133 C 
ATOM     15  C   UNL     1       0.070   3.762  25.459  0.00  0.00    +0.130 C 
ATOM     16  C   UNL     1      -2.877   3.995  27.106  0.00  0.00    +0.183 C 
ATOM     17  C   UNL     1      -0.456   5.108  24.993  0.00  0.00    +0.185 C 
ENDROOT
BRANCH  15   8
ATOM      8  N   UNL     1       0.761   3.093  24.379  0.00  0.00    -0.306 N 
ATOM      9  N   UNL     1      -0.254   1.033  24.857  0.00  0.00    -0.211 NA
ATOM     10  N   UNL     1       1.313   1.249  23.038  0.00  0.00    -0.223 NA
ATOM     18  C   UNL     1       0.602   1.751  24.083  0.00  0.00    +0.216 A 
ATOM     22  C   UNL     1      -0.386  -0.272  24.539  0.00  0.00    +0.111 A 
ATOM     23  C   UNL     1       1.132  -0.063  22.776  0.00  0.00    +0.116 A 
ATOM     26  C   UNL     1       0.288  -0.880  23.499  0.00  0.00    +0.051 A 
ATOM     34  H   UNL     1       1.362   3.631  23.763  0.00  0.00    +0.149 HD
BRANCH  22  28
ATOM      6  O   UNL     1      -2.143  -0.247  26.117  0.00  0.00    -0.461 OA
ATOM     28  C   UNL     1      -1.297  -1.006  25.375  0.00  0.00    +0.153 A 
ATOM     30  C   UNL     1      -1.515  -2.343  25.604  0.00  0.00    +0.051 A 
ATOM     31  C   UNL     1      -2.565  -2.411  26.550  0.00  0.00    +0.042 A 
ATOM     32  C   UNL     1      -2.913  -1.110  26.831  0.00  0.00    +0.196 A 
ENDBRANCH  22  28
ENDBRANCH  15   8
BRANCH  14   7
ATOM      7  N   UNL     1      -4.238   2.486  25.735  0.00  0.00    -0.182 NA
ATOM     33  H   UNL     1      -3.964   1.762  26.410  0.00  0.00    +0.148 HD
BRANCH   7   1
ATOM      1  S   UNL     1      -5.253   2.111  24.427  0.00  0.00    +0.060 S 
ATOM      4  O   UNL     1      -4.952   2.992  23.313  0.00  0.00    -0.153 OA
ATOM      5  O   UNL     1      -6.614   1.988  24.911  0.00  0.00    -0.153 OA
BRANCH   1  19
ATOM     19  C   UNL     1      -4.709   0.485  23.998  0.00  0.00    +0.123 A 
ATOM     20  C   UNL     1      -3.648   0.287  23.126  0.00  0.00    +0.078 A 
ATOM     21  C   UNL     1      -5.381  -0.589  24.564  0.00  0.00    +0.030 A 
ATOM     24  C   UNL     1      -3.251  -1.014  22.814  0.00  0.00    +0.021 A 
ATOM     25  C   UNL     1      -4.983  -1.888  24.253  0.00  0.00    +0.002 A 
ATOM     27  C   UNL     1      -3.917  -2.102  23.378  0.00  0.00    +0.001 A 
BRANCH  20  29
ATOM     11  N   UNL     1      -2.368   2.263  22.047  0.00  0.00    -0.191 NA
ATOM     29  C   UNL     1      -2.941   1.379  22.529  0.00  0.00    +0.101 C 
ENDBRANCH  20  29
ENDBRANCH   1  19
ENDBRANCH   7   1
ENDBRANCH  14   7
TORSDOF 6
ENDMDL
MODEL 8
REMARK VINA RESULT:       4.9      2.520      6.794
REMARK  Name = 11913295
REMARK  6 active torsions:
REMARK  status: ('A' for Active; 'I' for Inactive)
REMARK    1  A    between atoms: S_1  and  N_7
REMARK    2  A    between atoms: S_1  and  C_19
REMARK    3  A    between atoms: N_7  and  C_14
REMARK    4  A    between atoms: N_8  and  C_15
REMARK    5  A    between atoms: C_20  and  C_29
REMARK    6  A    between atoms: C_22  and  C_28
REMARK                            x       y       z     vdW  Elec       q    Type
REMARK                         _______ _______ _______ _____ _____    ______ ____
ROOT
ATOM      2  O   UNL     1      -1.630   4.448  26.121  0.00  0.00    -0.370 OA
ATOM      3  O   UNL     1       0.176   2.413  24.581  0.00  0.00    -0.370 OA
ATOM     12  C   UNL     1      -1.181   2.855  24.410  0.00  0.00    +0.170 C 
ATOM     13  C   UNL     1      -1.769   3.055  25.793  0.00  0.00    +0.171 C 
ATOM     14  C   UNL     1      -1.207   4.234  23.795  0.00  0.00    +0.133 C 
ATOM     15  C   UNL     1      -0.893   2.215  26.693  0.00  0.00    +0.130 C 
ATOM     16  C   UNL     1      -1.059   5.141  25.001  0.00  0.00    +0.183 C 
ATOM     17  C   UNL     1       0.447   2.254  25.982  0.00  0.00    +0.185 C 
ENDROOT
BRANCH  15   8
ATOM      8  N   UNL     1      -1.393   0.859  26.745  0.00  0.00    -0.306 N 
ATOM      9  N   UNL     1      -0.102   0.195  24.902  0.00  0.00    -0.211 NA
ATOM     10  N   UNL     1      -1.551  -1.369  26.025  0.00  0.00    -0.223 NA
ATOM     18  C   UNL     1      -1.004  -0.135  25.864  0.00  0.00    +0.216 A 
ATOM     22  C   UNL     1       0.257  -0.798  24.062  0.00  0.00    +0.111 A 
ATOM     23  C   UNL     1      -1.148  -2.314  25.151  0.00  0.00    +0.116 A 
ATOM     26  C   UNL     1      -0.238  -2.085  24.139  0.00  0.00    +0.051 A 
ATOM     34  H   UNL     1      -2.027   0.589  27.490  0.00  0.00    +0.149 HD
BRANCH  22  28
ATOM      6  O   UNL     1       2.315   0.223  23.515  0.00  0.00    -0.461 OA
ATOM     28  C   UNL     1       1.212  -0.420  23.055  0.00  0.00    +0.153 A 
ATOM     30  C   UNL     1       1.265  -0.563  21.690  0.00  0.00    +0.051 A 
ATOM     31  C   UNL     1       2.483   0.031  21.282  0.00  0.00    +0.042 A 
ATOM     32  C   UNL     1       3.085   0.495  22.429  0.00  0.00    +0.196 A 
ENDBRANCH  22  28
ENDBRANCH  15   8
BRANCH  14   7
ATOM      7  N   UNL     1      -2.523   4.469  23.154  0.00  0.00    -0.182 NA
ATOM     33  H   UNL     1      -2.950   5.396  23.266  0.00  0.00    +0.148 HD
BRANCH   7   1
ATOM      1  S   UNL     1      -3.445   3.151  22.610  0.00  0.00    +0.060 S 
ATOM      4  O   UNL     1      -2.570   2.022  22.353  0.00  0.00    -0.153 OA
ATOM      5  O   UNL     1      -4.361   3.611  21.585  0.00  0.00    -0.153 OA
BRANCH   1  19
ATOM     19  C   UNL     1      -4.417   2.772  24.037  0.00  0.00    +0.123 A 
ATOM     20  C   UNL     1      -4.590   1.464  24.464  0.00  0.00    +0.078 A 
ATOM     21  C   UNL     1      -5.003   3.831  24.717  0.00  0.00    +0.030 A 
ATOM     24  C   UNL     1      -5.366   1.209  25.596  0.00  0.00    +0.021 A 
ATOM     25  C   UNL     1      -5.777   3.576  25.847  0.00  0.00    +0.002 A 
ATOM     27  C   UNL     1      -5.959   2.265  26.289  0.00  0.00    +0.001 A 
BRANCH  20  29
ATOM     11  N   UNL     1      -3.517  -0.542  23.225  0.00  0.00    -0.191 NA
ATOM     29  C   UNL     1      -3.997   0.356  23.779  0.00  0.00    +0.101 C 
ENDBRANCH  20  29
ENDBRANCH   1  19
ENDBRANCH   7   1
ENDBRANCH  14   7
TORSDOF 6
ENDMDL
MODEL 9
REMARK VINA RESULT:       5.3      2.671      5.458
REMARK  Name = 11913295
REMARK  6 active torsions:
REMARK  status: ('A' for Active; 'I' for Inactive)
REMARK    1  A    between atoms: S_1  and  N_7
REMARK    2  A    between atoms: S_1  and  C_19
REMARK    3  A    between atoms: N_7  and  C_14
REMARK    4  A    between atoms: N_8  and  C_15
REMARK    5  A    between atoms: C_20  and  C_29
REMARK    6  A    between atoms: C_22  and  C_28
REMARK                            x       y       z     vdW  Elec       q    Type
REMARK                         _______ _______ _______ _____ _____    ______ ____
ROOT
ATOM      2  O   UNL     1      -1.511   3.432  23.274  0.00  0.00    -0.370 OA
ATOM      3  O   UNL     1      -2.222   6.079  24.775  0.00  0.00    -0.370 OA
ATOM     12  C   UNL     1      -1.648   4.830  25.195  0.00  0.00    +0.170 C 
ATOM     13  C   UNL     1      -2.338   3.730  24.411  0.00  0.00    +0.171 C 
ATOM     14  C   UNL     1      -0.205   4.746  24.758  0.00  0.00    +0.133 C 
ATOM     15  C   UNL     1      -3.639   4.354  23.964  0.00  0.00    +0.130 C 
ATOM     16  C   UNL     1      -0.315   4.223  23.338  0.00  0.00    +0.183 C 
ATOM     17  C   UNL     1      -3.275   5.823  23.834  0.00  0.00    +0.185 C 
ENDROOT
BRANCH  15   8
ATOM      8  N   UNL     1      -4.649   4.176  24.983  0.00  0.00    -0.306 N 
ATOM      9  N   UNL     1      -4.536   1.837  24.843  0.00  0.00    -0.211 NA
ATOM     10  N   UNL     1      -6.046   2.914  26.382  0.00  0.00    -0.223 NA
ATOM     18  C   UNL     1      -5.090   2.939  25.416  0.00  0.00    +0.216 A 
ATOM     22  C   UNL     1      -4.989   0.647  25.290  0.00  0.00    +0.111 A 
ATOM     23  C   UNL     1      -6.452   1.690  26.782  0.00  0.00    +0.116 A 
ATOM     26  C   UNL     1      -5.954   0.511  26.267  0.00  0.00    +0.051 A 
ATOM     34  H   UNL     1      -5.032   4.990  25.453  0.00  0.00    +0.149 HD
BRANCH  22  28
ATOM      6  O   UNL     1      -4.247  -1.589  25.464  0.00  0.00    -0.461 OA
ATOM     28  C   UNL     1      -4.384  -0.500  24.666  0.00  0.00    +0.153 A 
ATOM     30  C   UNL     1      -3.896  -0.754  23.407  0.00  0.00    +0.051 A 
ATOM     31  C   UNL     1      -3.428  -2.088  23.432  0.00  0.00    +0.042 A 
ATOM     32  C   UNL     1      -3.663  -2.553  24.705  0.00  0.00    +0.196 A 
ENDBRANCH  22  28
ENDBRANCH  15   8
BRANCH  14   7
ATOM      7  N   UNL     1       0.513   3.757  25.598  0.00  0.00    -0.182 NA
ATOM     33  H   UNL     1       1.539   3.788  25.600  0.00  0.00    +0.148 HD
BRANCH   7   1
ATOM      1  S   UNL     1      -0.314   2.402  26.200  0.00  0.00    +0.060 S 
ATOM      4  O   UNL     1      -1.744   2.647  26.153  0.00  0.00    -0.153 OA
ATOM      5  O   UNL     1       0.313   1.984  27.439  0.00  0.00    -0.153 OA
BRANCH   1  19
ATOM     19  C   UNL     1       0.068   1.173  24.989  0.00  0.00    +0.123 A 
ATOM     20  C   UNL     1      -0.416  -0.122  25.099  0.00  0.00    +0.078 A 
ATOM     21  C   UNL     1       0.870   1.549  23.921  0.00  0.00    +0.030 A 
ATOM     24  C   UNL     1      -0.091  -1.062  24.120  0.00  0.00    +0.021 A 
ATOM     25  C   UNL     1       1.195   0.610  22.942  0.00  0.00    +0.002 A 
ATOM     27  C   UNL     1       0.714  -0.696  23.041  0.00  0.00    +0.001 A 
BRANCH  20  29
ATOM     11  N   UNL     1      -1.916  -0.865  27.076  0.00  0.00    -0.191 NA
ATOM     29  C   UNL     1      -1.245  -0.533  26.192  0.00  0.00    +0.101 C 
ENDBRANCH  20  29
ENDBRANCH   1  19
ENDBRANCH   7   1
ENDBRANCH  14   7
TORSDOF 6
ENDMDL
MODEL 10
REMARK VINA RESULT:       5.4      2.728      5.976
REMARK  Name = 11913295
REMARK  6 active torsions:
REMARK  status: ('A' for Active; 'I' for Inactive)
REMARK    1  A    between atoms: S_1  and  N_7
REMARK    2  A    between atoms: S_1  and  C_19
REMARK    3  A    between atoms: N_7  and  C_14
REMARK    4  A    between atoms: N_8  and  C_15
REMARK    5  A    between atoms: C_20  and  C_29
REMARK    6  A    between atoms: C_22  and  C_28
REMARK                            x       y       z     vdW  Elec       q    Type
REMARK                         _______ _______ _______ _____ _____    ______ ____
ROOT
ATOM      2  O   UNL     1      -0.498   0.649  26.117  0.00  0.00    -0.370 OA
ATOM      3  O   UNL     1       1.189  -0.780  23.909  0.00  0.00    -0.370 OA
ATOM     12  C   UNL     1       0.070   0.120  23.867  0.00  0.00    +0.170 C 
ATOM     13  C   UNL     1      -0.836  -0.231  25.032  0.00  0.00    +0.171 C 
ATOM     14  C   UNL     1       0.522   1.529  24.164  0.00  0.00    +0.133 C 
ATOM     15  C   UNL     1      -0.462  -1.654  25.376  0.00  0.00    +0.130 C 
ATOM     16  C   UNL     1       0.508   1.574  25.680  0.00  0.00    +0.183 C 
ATOM     17  C   UNL     1       1.002  -1.717  24.980  0.00  0.00    +0.185 C 
ENDROOT
BRANCH  15   8
ATOM      8  N   UNL     1      -1.237  -2.576  24.576  0.00  0.00    -0.306 N 
ATOM      9  N   UNL     1      -3.189  -1.291  24.785  0.00  0.00    -0.211 NA
ATOM     10  N   UNL     1      -3.187  -3.342  23.520  0.00  0.00    -0.223 NA
ATOM     18  C   UNL     1      -2.578  -2.398  24.285  0.00  0.00    +0.216 A 
ATOM     22  C   UNL     1      -4.496  -1.148  24.481  0.00  0.00    +0.111 A 
ATOM     23  C   UNL     1      -4.494  -3.136  23.255  0.00  0.00    +0.116 A 
ATOM     26  C   UNL     1      -5.207  -2.047  23.712  0.00  0.00    +0.051 A 
ATOM     34  H   UNL     1      -0.779  -3.378  24.155  0.00  0.00    +0.149 HD
BRANCH  22  28
ATOM      6  O   UNL     1      -6.163   0.516  24.311  0.00  0.00    -0.461 OA
ATOM     28  C   UNL     1      -5.114   0.032  25.024  0.00  0.00    +0.153 A 
ATOM     30  C   UNL     1      -4.879   0.807  26.133  0.00  0.00    +0.051 A 
ATOM     31  C   UNL     1      -5.848   1.838  26.102  0.00  0.00    +0.042 A 
ATOM     32  C   UNL     1      -6.605   1.617  24.974  0.00  0.00    +0.196 A 
ENDBRANCH  22  28
ENDBRANCH  15   8
BRANCH  14   7
ATOM      7  N   UNL     1      -0.468   2.494  23.628  0.00  0.00    -0.182 NA
ATOM     33  H   UNL     1      -0.909   2.275  22.727  0.00  0.00    +0.148 HD
BRANCH   7   1
ATOM      1  S   UNL     1      -0.562   4.058  24.281  0.00  0.00    +0.060 S 
ATOM      4  O   UNL     1      -0.285   5.033  23.242  0.00  0.00    -0.153 OA
ATOM      5  O   UNL     1       0.178   4.091  25.527  0.00  0.00    -0.153 OA
BRANCH   1  19
ATOM     19  C   UNL     1      -2.276   4.178  24.697  0.00  0.00    +0.123 A 
ATOM     20  C   UNL     1      -3.252   3.592  23.905  0.00  0.00    +0.078 A 
ATOM     21  C   UNL     1      -2.612   4.879  25.847  0.00  0.00    +0.030 A 
ATOM     24  C   UNL     1      -4.594   3.711  24.270  0.00  0.00    +0.021 A 
ATOM     25  C   UNL     1      -3.952   4.997  26.211  0.00  0.00    +0.002 A 
ATOM     27  C   UNL     1      -4.944   4.412  25.424  0.00  0.00    +0.001 A 
BRANCH  20  29
ATOM     11  N   UNL     1      -2.669   2.276  21.751  0.00  0.00    -0.191 NA
ATOM     29  C   UNL     1      -2.930   2.865  22.715  0.00  0.00    +0.101 C 
ENDBRANCH  20  29
ENDBRANCH   1  19
ENDBRANCH   7   1
ENDBRANCH  14   7
TORSDOF 6
ENDMDL
