MODEL 1
REMARK VINA RESULT:       4.3      0.000      0.000
REMARK  Name = 7127938
REMARK  12 active torsions:
REMARK  status: ('A' for Active; 'I' for Inactive)
REMARK    1  A    between atoms: S_1  and  C_20
REMARK    2  A    between atoms: S_1  and  C_26
REMARK    3  A    between atoms: O_7  and  C_34
REMARK    4  A    between atoms: O_7  and  C_35
REMARK    5  A    between atoms: N_9  and  C_13
REMARK    6  A    between atoms: N_10  and  C_19
REMARK    7  A    between atoms: N_11  and  C_25
REMARK    8  A    between atoms: C_14  and  C_17
REMARK    9  A    between atoms: C_18  and  C_20
REMARK   10  A    between atoms: C_19  and  C_22
REMARK   11  A    between atoms: C_19  and  C_23
REMARK   12  A    between atoms: C_22  and  C_24
REMARK                            x       y       z     vdW  Elec       q    Type
REMARK                         _______ _______ _______ _____ _____    ______ ____
ROOT
ATOM      4  O   UNL     1      -4.218   1.068  26.612  0.00  0.00    -0.275 OA
ATOM      8  N   UNL     1      -3.375  -0.358  24.995  0.00  0.00    -0.287 N 
ATOM     13  C   UNL     1      -2.173  -1.862  23.604  0.00  0.00    +0.094 C 
ATOM     14  C   UNL     1      -2.420  -1.036  25.860  0.00  0.00    +0.164 C 
ATOM     15  C   UNL     1      -1.964  -2.258  25.067  0.00  0.00    +0.055 C 
ATOM     16  C   UNL     1      -3.391  -0.945  23.655  0.00  0.00    +0.131 C 
ATOM     18  C   UNL     1      -4.261   0.595  25.475  0.00  0.00    +0.226 C 
ENDROOT
BRANCH  13   9
ATOM      5  O   UNL     1       0.502  -1.948  24.626  0.00  0.00    -0.253 OA
ATOM      9  N   UNL     1      -1.020  -1.193  23.057  0.00  0.00    -0.295 N 
ATOM     11  N   UNL     1       1.175  -0.533  22.878  0.00  0.00    -0.269 N 
ATOM     21  C   UNL     1       0.259  -1.285  23.620  0.00  0.00    +0.304 C 
ATOM     36  H   UNL     1      -1.152  -0.573  22.264  0.00  0.00    +0.151 HD
ATOM     38  H   UNL     1       0.809  -0.040  22.067  0.00  0.00    +0.156 HD
BRANCH  11  25
ATOM     25  C   UNL     1       2.559  -0.368  23.116  0.00  0.00    +0.035 A 
ATOM     28  C   UNL     1       3.305  -1.418  23.650  0.00  0.00    +0.027 A 
ATOM     29  C   UNL     1       3.179   0.846  22.815  0.00  0.00    +0.027 A 
ATOM     32  C   UNL     1       4.671  -1.255  23.884  0.00  0.00    +0.047 A 
ATOM     33  C   UNL     1       4.544   1.008  23.049  0.00  0.00    +0.047 A 
ATOM     34  C   UNL     1       5.289  -0.042  23.583  0.00  0.00    +0.120 A 
BRANCH  34   7
ATOM      7  O   UNL     1       6.623   0.116  23.809  0.00  0.00    -0.495 OA
ATOM     35  C   UNL     1       7.516  -0.539  22.909  0.00  0.00    +0.277 C 
ENDBRANCH  34   7
ENDBRANCH  11  25
ENDBRANCH  13   9
BRANCH  14  17
ATOM      3  O   UNL     1      -0.604  -0.197  27.163  0.00  0.00    -0.274 OA
ATOM     10  N   UNL     1      -1.118   0.842  25.144  0.00  0.00    -0.302 N 
ATOM     17  C   UNL     1      -1.279  -0.104  26.141  0.00  0.00    +0.234 C 
ATOM     37  H   UNL     1      -1.758   0.842  24.355  0.00  0.00    +0.150 HD
BRANCH  10  19
ATOM     19  C   UNL     1      -0.103   1.870  25.186  0.00  0.00    +0.163 C 
BRANCH  19  23
ATOM      6  O   UNL     1      -1.329   3.216  26.797  0.00  0.00    -0.274 OA
ATOM     12  N   UNL     1       0.808   2.553  27.317  0.00  0.00    -0.328 N 
ATOM     23  C   UNL     1      -0.293   2.631  26.490  0.00  0.00    +0.231 C 
ATOM     39  H   UNL     1       0.808   3.005  28.226  0.00  0.00    +0.145 HD
ATOM     40  H   UNL     1       1.658   2.064  27.053  0.00  0.00    +0.145 HD
ENDBRANCH  19  23
BRANCH  19  22
ATOM     22  C   UNL     1      -0.194   2.826  23.990  0.00  0.00    +0.074 C 
BRANCH  22  24
ATOM      2  S   UNL     1      -2.704   4.033  24.061  0.00  0.00    -0.102 S 
ATOM     24  C   UNL     1      -1.591   2.901  23.419  0.00  0.00    -0.008 A 
ATOM     27  C   UNL     1      -2.143   2.152  22.404  0.00  0.00    +0.011 A 
ATOM     30  C   UNL     1      -3.496   2.514  22.147  0.00  0.00    +0.008 A 
ATOM     31  C   UNL     1      -3.928   3.524  22.977  0.00  0.00    +0.045 A 
ENDBRANCH  22  24
ENDBRANCH  19  22
ENDBRANCH  10  19
ENDBRANCH  14  17
BRANCH  18  20
ATOM     20  C   UNL     1      -5.313   1.055  24.498  0.00  0.00    +0.164 C 
BRANCH  20   1
ATOM      1  S   UNL     1      -6.589   1.911  25.432  0.00  0.00    -0.155 S 
ATOM     26  C   UNL     1      -5.747   3.496  25.670  0.00  0.00    +0.085 C 
ENDBRANCH  20   1
ENDBRANCH  18  20
TORSDOF 10
ENDMDL
MODEL 2
REMARK VINA RESULT:       4.5      1.928      3.285
REMARK  Name = 7127938
REMARK  12 active torsions:
REMARK  status: ('A' for Active; 'I' for Inactive)
REMARK    1  A    between atoms: S_1  and  C_20
REMARK    2  A    between atoms: S_1  and  C_26
REMARK    3  A    between atoms: O_7  and  C_34
REMARK    4  A    between atoms: O_7  and  C_35
REMARK    5  A    between atoms: N_9  and  C_13
REMARK    6  A    between atoms: N_10  and  C_19
REMARK    7  A    between atoms: N_11  and  C_25
REMARK    8  A    between atoms: C_14  and  C_17
REMARK    9  A    between atoms: C_18  and  C_20
REMARK   10  A    between atoms: C_19  and  C_22
REMARK   11  A    between atoms: C_19  and  C_23
REMARK   12  A    between atoms: C_22  and  C_24
REMARK                            x       y       z     vdW  Elec       q    Type
REMARK                         _______ _______ _______ _____ _____    ______ ____
ROOT
ATOM      4  O   UNL     1      -4.480   1.878  26.497  0.00  0.00    -0.275 OA
ATOM      8  N   UNL     1      -3.575   0.507  24.867  0.00  0.00    -0.287 N 
ATOM     13  C   UNL     1      -2.332  -0.969  23.482  0.00  0.00    +0.094 C 
ATOM     14  C   UNL     1      -2.710  -0.253  25.758  0.00  0.00    +0.164 C 
ATOM     15  C   UNL     1      -2.243  -1.450  24.932  0.00  0.00    +0.055 C 
ATOM     16  C   UNL     1      -3.517  -0.007  23.498  0.00  0.00    +0.131 C 
ATOM     18  C   UNL     1      -4.458   1.468  25.335  0.00  0.00    +0.226 C 
ENDROOT
BRANCH  13   9
ATOM      5  O   UNL     1       0.339  -1.627  24.285  0.00  0.00    -0.253 OA
ATOM      9  N   UNL     1      -1.119  -0.319  23.055  0.00  0.00    -0.295 N 
ATOM     11  N   UNL     1       1.136   0.107  22.918  0.00  0.00    -0.269 N 
ATOM     21  C   UNL     1       0.154  -0.702  23.498  0.00  0.00    +0.304 C 
ATOM     36  H   UNL     1      -1.193   0.497  22.455  0.00  0.00    +0.151 HD
ATOM     38  H   UNL     1       0.813   0.833  22.282  0.00  0.00    +0.156 HD
BRANCH  11  25
ATOM     25  C   UNL     1       2.536   0.043  23.106  0.00  0.00    +0.035 A 
ATOM     28  C   UNL     1       3.327   1.163  22.848  0.00  0.00    +0.027 A 
ATOM     29  C   UNL     1       3.127  -1.141  23.551  0.00  0.00    +0.027 A 
ATOM     32  C   UNL     1       4.708   1.099  23.035  0.00  0.00    +0.047 A 
ATOM     33  C   UNL     1       4.507  -1.204  23.737  0.00  0.00    +0.047 A 
ATOM     34  C   UNL     1       5.297  -0.085  23.479  0.00  0.00    +0.120 A 
BRANCH  34   7
ATOM      7  O   UNL     1       6.645  -0.146  23.664  0.00  0.00    -0.495 OA
ATOM     35  C   UNL     1       7.399  -0.884  22.703  0.00  0.00    +0.277 C 
ENDBRANCH  34   7
ENDBRANCH  11  25
ENDBRANCH  13   9
BRANCH  14  17
ATOM      3  O   UNL     1      -0.584   0.160  26.760  0.00  0.00    -0.274 OA
ATOM     10  N   UNL     1      -1.756   1.942  25.825  0.00  0.00    -0.302 N 
ATOM     17  C   UNL     1      -1.560   0.615  26.169  0.00  0.00    +0.234 C 
ATOM     37  H   UNL     1      -2.620   2.210  25.363  0.00  0.00    +0.150 HD
BRANCH  10  19
ATOM     19  C   UNL     1      -0.804   2.986  26.129  0.00  0.00    +0.163 C 
BRANCH  19  23
ATOM      6  O   UNL     1      -1.006   5.151  25.042  0.00  0.00    -0.274 OA
ATOM     12  N   UNL     1      -0.485   3.319  23.757  0.00  0.00    -0.328 N 
ATOM     23  C   UNL     1      -0.799   3.943  24.946  0.00  0.00    +0.231 C 
ATOM     39  H   UNL     1      -0.433   3.846  22.891  0.00  0.00    +0.145 HD
ATOM     40  H   UNL     1      -0.313   2.320  23.692  0.00  0.00    +0.145 HD
ENDBRANCH  19  23
BRANCH  19  22
ATOM     22  C   UNL     1       0.605   2.435  26.379  0.00  0.00    +0.074 C 
BRANCH  22  24
ATOM      2  S   UNL     1       2.659   2.785  28.229  0.00  0.00    -0.102 S 
ATOM     24  C   UNL     1       1.012   2.537  27.831  0.00  0.00    -0.008 A 
ATOM     27  C   UNL     1       0.216   2.452  28.951  0.00  0.00    +0.011 A 
ATOM     30  C   UNL     1       0.967   2.596  30.153  0.00  0.00    +0.008 A 
ATOM     31  C   UNL     1       2.309   2.782  29.905  0.00  0.00    +0.045 A 
ENDBRANCH  22  24
ENDBRANCH  19  22
ENDBRANCH  10  19
ENDBRANCH  14  17
BRANCH  18  20
ATOM     20  C   UNL     1      -5.420   2.021  24.314  0.00  0.00    +0.164 C 
BRANCH  20   1
ATOM      1  S   UNL     1      -4.626   3.427  23.521  0.00  0.00    -0.155 S 
ATOM     26  C   UNL     1      -4.361   4.461  24.983  0.00  0.00    +0.085 C 
ENDBRANCH  20   1
ENDBRANCH  18  20
TORSDOF 10
ENDMDL
MODEL 3
REMARK VINA RESULT:       6.7      2.656      5.335
REMARK  Name = 7127938
REMARK  12 active torsions:
REMARK  status: ('A' for Active; 'I' for Inactive)
REMARK    1  A    between atoms: S_1  and  C_20
REMARK    2  A    between atoms: S_1  and  C_26
REMARK    3  A    between atoms: O_7  and  C_34
REMARK    4  A    between atoms: O_7  and  C_35
REMARK    5  A    between atoms: N_9  and  C_13
REMARK    6  A    between atoms: N_10  and  C_19
REMARK    7  A    between atoms: N_11  and  C_25
REMARK    8  A    between atoms: C_14  and  C_17
REMARK    9  A    between atoms: C_18  and  C_20
REMARK   10  A    between atoms: C_19  and  C_22
REMARK   11  A    between atoms: C_19  and  C_23
REMARK   12  A    between atoms: C_22  and  C_24
REMARK                            x       y       z     vdW  Elec       q    Type
REMARK                         _______ _______ _______ _____ _____    ______ ____
ROOT
ATOM      4  O   UNL     1      -4.339  -0.265  23.555  0.00  0.00    -0.275 OA
ATOM      8  N   UNL     1      -3.541   1.886  23.859  0.00  0.00    -0.287 N 
ATOM     13  C   UNL     1      -2.423   3.982  23.883  0.00  0.00    +0.094 C 
ATOM     14  C   UNL     1      -2.775   1.950  22.624  0.00  0.00    +0.164 C 
ATOM     15  C   UNL     1      -2.412   3.424  22.457  0.00  0.00    +0.055 C 
ATOM     16  C   UNL     1      -3.506   3.161  24.577  0.00  0.00    +0.131 C 
ATOM     18  C   UNL     1      -4.334   0.795  24.183  0.00  0.00    +0.226 C 
ENDROOT
BRANCH  13   9
ATOM      5  O   UNL     1      -1.946   3.088  26.563  0.00  0.00    -0.253 OA
ATOM      9  N   UNL     1      -1.142   3.834  24.528  0.00  0.00    -0.295 N 
ATOM     11  N   UNL     1       0.358   3.347  26.200  0.00  0.00    -0.269 N 
ATOM     21  C   UNL     1      -0.994   3.390  25.848  0.00  0.00    +0.304 C 
ATOM     36  H   UNL     1      -0.311   4.126  24.023  0.00  0.00    +0.151 HD
ATOM     38  H   UNL     1       1.025   3.632  25.486  0.00  0.00    +0.156 HD
BRANCH  11  25
ATOM     25  C   UNL     1       0.922   2.956  27.436  0.00  0.00    +0.035 A 
ATOM     28  C   UNL     1       0.115   2.390  28.422  0.00  0.00    +0.027 A 
ATOM     29  C   UNL     1       2.287   3.134  27.668  0.00  0.00    +0.027 A 
ATOM     32  C   UNL     1       0.672   2.003  29.642  0.00  0.00    +0.047 A 
ATOM     33  C   UNL     1       2.843   2.747  28.887  0.00  0.00    +0.047 A 
ATOM     34  C   UNL     1       2.035   2.182  29.874  0.00  0.00    +0.120 A 
BRANCH  34   7
ATOM      7  O   UNL     1       2.579   1.802  31.063  0.00  0.00    -0.495 OA
ATOM     35  C   UNL     1       1.691   1.678  32.173  0.00  0.00    +0.277 C 
ENDBRANCH  34   7
ENDBRANCH  11  25
ENDBRANCH  13   9
BRANCH  14  17
ATOM      3  O   UNL     1      -1.046   0.519  21.811  0.00  0.00    -0.274 OA
ATOM     10  N   UNL     1      -1.112   1.031  24.081  0.00  0.00    -0.302 N 
ATOM     17  C   UNL     1      -1.552   1.095  22.771  0.00  0.00    +0.234 C 
ATOM     37  H   UNL     1      -1.630   1.527  24.801  0.00  0.00    +0.150 HD
BRANCH  10  19
ATOM     19  C   UNL     1       0.035   0.255  24.493  0.00  0.00    +0.163 C 
BRANCH  19  23
ATOM      6  O   UNL     1       1.636   1.981  23.892  0.00  0.00    -0.274 OA
ATOM     12  N   UNL     1       1.887  -0.114  22.984  0.00  0.00    -0.328 N 
ATOM     23  C   UNL     1       1.245   0.824  23.765  0.00  0.00    +0.231 C 
ATOM     39  H   UNL     1       2.718   0.131  22.456  0.00  0.00    +0.145 HD
ATOM     40  H   UNL     1       1.554  -1.069  22.891  0.00  0.00    +0.145 HD
ENDBRANCH  19  23
BRANCH  19  22
ATOM     22  C   UNL     1      -0.127  -1.237  24.176  0.00  0.00    +0.074 C 
BRANCH  22  24
ATOM      2  S   UNL     1      -2.089  -1.180  26.153  0.00  0.00    -0.102 S 
ATOM     24  C   UNL     1      -1.431  -1.795  24.697  0.00  0.00    -0.008 A 
ATOM     27  C   UNL     1      -2.219  -2.784  24.151  0.00  0.00    +0.011 A 
ATOM     30  C   UNL     1      -3.380  -3.039  24.937  0.00  0.00    +0.008 A 
ATOM     31  C   UNL     1      -3.434  -2.236  26.054  0.00  0.00    +0.045 A 
ENDBRANCH  22  24
ENDBRANCH  19  22
ENDBRANCH  10  19
ENDBRANCH  14  17
BRANCH  18  20
ATOM     20  C   UNL     1      -5.214   0.967  25.394  0.00  0.00    +0.164 C 
BRANCH  20   1
ATOM      1  S   UNL     1      -6.599   2.013  24.920  0.00  0.00    -0.155 S 
ATOM     26  C   UNL     1      -6.101   3.535  25.764  0.00  0.00    +0.085 C 
ENDBRANCH  20   1
ENDBRANCH  18  20
TORSDOF 10
ENDMDL
MODEL 4
REMARK VINA RESULT:       6.8      1.835      3.385
REMARK  Name = 7127938
REMARK  12 active torsions:
REMARK  status: ('A' for Active; 'I' for Inactive)
REMARK    1  A    between atoms: S_1  and  C_20
REMARK    2  A    between atoms: S_1  and  C_26
REMARK    3  A    between atoms: O_7  and  C_34
REMARK    4  A    between atoms: O_7  and  C_35
REMARK    5  A    between atoms: N_9  and  C_13
REMARK    6  A    between atoms: N_10  and  C_19
REMARK    7  A    between atoms: N_11  and  C_25
REMARK    8  A    between atoms: C_14  and  C_17
REMARK    9  A    between atoms: C_18  and  C_20
REMARK   10  A    between atoms: C_19  and  C_22
REMARK   11  A    between atoms: C_19  and  C_23
REMARK   12  A    between atoms: C_22  and  C_24
REMARK                            x       y       z     vdW  Elec       q    Type
REMARK                         _______ _______ _______ _____ _____    ______ ____
ROOT
ATOM      4  O   UNL     1      -5.944   2.379  26.002  0.00  0.00    -0.275 OA
ATOM      8  N   UNL     1      -4.414   2.370  24.265  0.00  0.00    -0.287 N 
ATOM     13  C   UNL     1      -2.753   1.962  22.618  0.00  0.00    +0.094 C 
ATOM     14  C   UNL     1      -4.272   0.924  24.184  0.00  0.00    +0.164 C 
ATOM     15  C   UNL     1      -3.536   0.672  22.870  0.00  0.00    +0.055 C 
ATOM     16  C   UNL     1      -3.648   3.044  23.217  0.00  0.00    +0.131 C 
ATOM     18  C   UNL     1      -5.314   2.978  25.129  0.00  0.00    +0.226 C 
ENDROOT
BRANCH  13   9
ATOM      5  O   UNL     1      -0.481   0.430  21.781  0.00  0.00    -0.253 OA
ATOM      9  N   UNL     1      -1.455   1.934  23.243  0.00  0.00    -0.295 N 
ATOM     11  N   UNL     1       0.738   1.329  23.575  0.00  0.00    -0.269 N 
ATOM     21  C   UNL     1      -0.392   1.154  22.770  0.00  0.00    +0.304 C 
ATOM     36  H   UNL     1      -1.321   2.455  24.104  0.00  0.00    +0.151 HD
ATOM     38  H   UNL     1       0.644   1.968  24.360  0.00  0.00    +0.156 HD
BRANCH  11  25
ATOM     25  C   UNL     1       2.008   0.722  23.433  0.00  0.00    +0.035 A 
ATOM     28  C   UNL     1       3.119   1.499  23.106  0.00  0.00    +0.027 A 
ATOM     29  C   UNL     1       2.148  -0.653  23.622  0.00  0.00    +0.027 A 
ATOM     32  C   UNL     1       4.372   0.900  22.967  0.00  0.00    +0.047 A 
ATOM     33  C   UNL     1       3.400  -1.252  23.484  0.00  0.00    +0.047 A 
ATOM     34  C   UNL     1       4.511  -0.475  23.156  0.00  0.00    +0.120 A 
BRANCH  34   7
ATOM      7  O   UNL     1       5.734  -1.059  23.023  0.00  0.00    -0.495 OA
ATOM     35  C   UNL     1       6.875  -0.207  23.120  0.00  0.00    +0.277 C 
ENDBRANCH  34   7
ENDBRANCH  11  25
ENDBRANCH  13   9
BRANCH  14  17
ATOM      3  O   UNL     1      -3.940  -0.326  26.189  0.00  0.00    -0.274 OA
ATOM     10  N   UNL     1      -2.207   1.009  25.393  0.00  0.00    -0.302 N 
ATOM     17  C   UNL     1      -3.473   0.452  25.361  0.00  0.00    +0.234 C 
ATOM     37  H   UNL     1      -1.938   1.668  24.667  0.00  0.00    +0.150 HD
BRANCH  10  19
ATOM     19  C   UNL     1      -1.247   0.733  26.438  0.00  0.00    +0.163 C 
BRANCH  19  23
ATOM      6  O   UNL     1      -0.303   2.842  25.684  0.00  0.00    -0.274 OA
ATOM     12  N   UNL     1       0.532   1.885  27.598  0.00  0.00    -0.328 N 
ATOM     23  C   UNL     1      -0.300   1.922  26.499  0.00  0.00    +0.231 C 
ATOM     39  H   UNL     1       1.204   2.627  27.767  0.00  0.00    +0.145 HD
ATOM     40  H   UNL     1       0.523   1.121  28.267  0.00  0.00    +0.145 HD
ENDBRANCH  19  23
BRANCH  19  22
ATOM     22  C   UNL     1      -0.466  -0.562  26.184  0.00  0.00    +0.074 C 
BRANCH  22  24
ATOM      2  S   UNL     1      -2.602  -2.350  26.127  0.00  0.00    -0.102 S 
ATOM     24  C   UNL     1      -1.266  -1.569  25.392  0.00  0.00    -0.008 A 
ATOM     27  C   UNL     1      -1.076  -1.985  24.093  0.00  0.00    +0.011 A 
ATOM     30  C   UNL     1      -2.040  -2.955  23.694  0.00  0.00    +0.008 A 
ATOM     31  C   UNL     1      -2.930  -3.245  24.705  0.00  0.00    +0.045 A 
ENDBRANCH  22  24
ENDBRANCH  19  22
ENDBRANCH  10  19
ENDBRANCH  14  17
BRANCH  18  20
ATOM     20  C   UNL     1      -5.483   4.465  24.953  0.00  0.00    +0.164 C 
BRANCH  20   1
ATOM      1  S   UNL     1      -3.877   5.232  25.212  0.00  0.00    -0.155 S 
ATOM     26  C   UNL     1      -3.324   4.251  26.630  0.00  0.00    +0.085 C 
ENDBRANCH  20   1
ENDBRANCH  18  20
TORSDOF 10
ENDMDL
MODEL 5
REMARK VINA RESULT:       7.3      2.358      4.525
REMARK  Name = 7127938
REMARK  12 active torsions:
REMARK  status: ('A' for Active; 'I' for Inactive)
REMARK    1  A    between atoms: S_1  and  C_20
REMARK    2  A    between atoms: S_1  and  C_26
REMARK    3  A    between atoms: O_7  and  C_34
REMARK    4  A    between atoms: O_7  and  C_35
REMARK    5  A    between atoms: N_9  and  C_13
REMARK    6  A    between atoms: N_10  and  C_19
REMARK    7  A    between atoms: N_11  and  C_25
REMARK    8  A    between atoms: C_14  and  C_17
REMARK    9  A    between atoms: C_18  and  C_20
REMARK   10  A    between atoms: C_19  and  C_22
REMARK   11  A    between atoms: C_19  and  C_23
REMARK   12  A    between atoms: C_22  and  C_24
REMARK                            x       y       z     vdW  Elec       q    Type
REMARK                         _______ _______ _______ _____ _____    ______ ____
ROOT
ATOM      4  O   UNL     1      -6.194   2.993  24.473  0.00  0.00    -0.275 OA
ATOM      8  N   UNL     1      -4.100   3.674  25.187  0.00  0.00    -0.287 N 
ATOM     13  C   UNL     1      -1.833   4.305  25.511  0.00  0.00    +0.094 C 
ATOM     14  C   UNL     1      -3.578   4.000  23.868  0.00  0.00    +0.164 C 
ATOM     15  C   UNL     1      -2.294   4.784  24.132  0.00  0.00    +0.055 C 
ATOM     16  C   UNL     1      -3.141   4.009  26.240  0.00  0.00    +0.131 C 
ATOM     18  C   UNL     1      -5.412   3.268  25.385  0.00  0.00    +0.226 C 
ENDROOT
BRANCH  13   9
ATOM      5  O   UNL     1       0.316   3.878  23.664  0.00  0.00    -0.253 OA
ATOM      9  N   UNL     1      -0.993   3.138  25.421  0.00  0.00    -0.295 N 
ATOM     11  N   UNL     1       0.680   1.771  24.635  0.00  0.00    -0.269 N 
ATOM     21  C   UNL     1       0.040   3.006  24.485  0.00  0.00    +0.304 C 
ATOM     36  H   UNL     1      -1.200   2.346  26.023  0.00  0.00    +0.151 HD
ATOM     38  H   UNL     1       0.327   1.160  25.368  0.00  0.00    +0.156 HD
BRANCH  11  25
ATOM     25  C   UNL     1       1.766   1.260  23.888  0.00  0.00    +0.035 A 
ATOM     28  C   UNL     1       1.787  -0.085  23.518  0.00  0.00    +0.027 A 
ATOM     29  C   UNL     1       2.817   2.101  23.519  0.00  0.00    +0.027 A 
ATOM     32  C   UNL     1       2.858  -0.589  22.780  0.00  0.00    +0.047 A 
ATOM     33  C   UNL     1       3.887   1.597  22.781  0.00  0.00    +0.047 A 
ATOM     34  C   UNL     1       3.908   0.252  22.412  0.00  0.00    +0.120 A 
BRANCH  34   7
ATOM      7  O   UNL     1       4.952  -0.239  21.690  0.00  0.00    -0.495 OA
ATOM     35  C   UNL     1       6.153  -0.534  22.402  0.00  0.00    +0.277 C 
ENDBRANCH  34   7
ENDBRANCH  11  25
ENDBRANCH  13   9
BRANCH  14  17
ATOM      3  O   UNL     1      -2.830   2.723  21.996  0.00  0.00    -0.274 OA
ATOM     10  N   UNL     1      -3.663   1.608  23.862  0.00  0.00    -0.302 N 
ATOM     17  C   UNL     1      -3.303   2.725  23.130  0.00  0.00    +0.234 C 
ATOM     37  H   UNL     1      -4.076   1.732  24.783  0.00  0.00    +0.150 HD
BRANCH  10  19
ATOM     19  C   UNL     1      -3.521   0.257  23.366  0.00  0.00    +0.163 C 
BRANCH  19  23
ATOM      6  O   UNL     1      -4.314  -0.361  25.579  0.00  0.00    -0.274 OA
ATOM     12  N   UNL     1      -4.563  -1.866  23.862  0.00  0.00    -0.328 N 
ATOM     23  C   UNL     1      -4.149  -0.666  24.400  0.00  0.00    +0.231 C 
ATOM     39  H   UNL     1      -5.012  -2.568  24.441  0.00  0.00    +0.145 HD
ATOM     40  H   UNL     1      -4.424  -2.105  22.884  0.00  0.00    +0.145 HD
ENDBRANCH  19  23
BRANCH  19  22
ATOM     22  C   UNL     1      -2.054  -0.124  23.129  0.00  0.00    +0.074 C 
BRANCH  22  24
ATOM      2  S   UNL     1      -1.003  -2.479  24.182  0.00  0.00    -0.102 S 
ATOM     24  C   UNL     1      -1.445  -0.830  24.317  0.00  0.00    -0.008 A 
ATOM     27  C   UNL     1      -1.177  -0.324  25.570  0.00  0.00    +0.011 A 
ATOM     30  C   UNL     1      -0.598  -1.302  26.429  0.00  0.00    +0.008 A 
ATOM     31  C   UNL     1      -0.448  -2.518  25.801  0.00  0.00    +0.045 A 
ENDBRANCH  22  24
ENDBRANCH  19  22
ENDBRANCH  10  19
ENDBRANCH  14  17
BRANCH  18  20
ATOM     20  C   UNL     1      -5.850   3.160  26.823  0.00  0.00    +0.164 C 
BRANCH  20   1
ATOM      1  S   UNL     1      -6.642   1.559  27.035  0.00  0.00    -0.155 S 
ATOM     26  C   UNL     1      -6.827   1.105  25.292  0.00  0.00    +0.085 C 
ENDBRANCH  20   1
ENDBRANCH  18  20
TORSDOF 10
ENDMDL
MODEL 6
REMARK VINA RESULT:       7.4      1.784      2.681
REMARK  Name = 7127938
REMARK  12 active torsions:
REMARK  status: ('A' for Active; 'I' for Inactive)
REMARK    1  A    between atoms: S_1  and  C_20
REMARK    2  A    between atoms: S_1  and  C_26
REMARK    3  A    between atoms: O_7  and  C_34
REMARK    4  A    between atoms: O_7  and  C_35
REMARK    5  A    between atoms: N_9  and  C_13
REMARK    6  A    between atoms: N_10  and  C_19
REMARK    7  A    between atoms: N_11  and  C_25
REMARK    8  A    between atoms: C_14  and  C_17
REMARK    9  A    between atoms: C_18  and  C_20
REMARK   10  A    between atoms: C_19  and  C_22
REMARK   11  A    between atoms: C_19  and  C_23
REMARK   12  A    between atoms: C_22  and  C_24
REMARK                            x       y       z     vdW  Elec       q    Type
REMARK                         _______ _______ _______ _____ _____    ______ ____
ROOT
ATOM      4  O   UNL     1      -5.385   1.270  25.656  0.00  0.00    -0.275 OA
ATOM      8  N   UNL     1      -3.985   1.448  23.821  0.00  0.00    -0.287 N 
ATOM     13  C   UNL     1      -2.371   1.267  22.088  0.00  0.00    +0.094 C 
ATOM     14  C   UNL     1      -3.558   0.056  23.809  0.00  0.00    +0.164 C 
ATOM     15  C   UNL     1      -2.862  -0.133  22.463  0.00  0.00    +0.055 C 
ATOM     16  C   UNL     1      -3.431   2.187  22.687  0.00  0.00    +0.131 C 
ATOM     18  C   UNL     1      -4.939   1.921  24.710  0.00  0.00    +0.226 C 
ENDROOT
BRANCH  13   9
ATOM      5  O   UNL     1      -0.075  -0.442  21.949  0.00  0.00    -0.253 OA
ATOM      9  N   UNL     1      -1.061   1.538  22.623  0.00  0.00    -0.295 N 
ATOM     11  N   UNL     1       1.154   1.176  23.124  0.00  0.00    -0.269 N 
ATOM     21  C   UNL     1       0.013   0.646  22.513  0.00  0.00    +0.304 C 
ATOM     36  H   UNL     1      -0.925   2.389  23.161  0.00  0.00    +0.151 HD
ATOM     38  H   UNL     1       1.058   2.096  23.549  0.00  0.00    +0.156 HD
BRANCH  11  25
ATOM     25  C   UNL     1       2.436   0.589  23.229  0.00  0.00    +0.035 A 
ATOM     28  C   UNL     1       3.575   1.353  22.977  0.00  0.00    +0.027 A 
ATOM     29  C   UNL     1       2.561  -0.754  23.585  0.00  0.00    +0.027 A 
ATOM     32  C   UNL     1       4.840   0.774  23.080  0.00  0.00    +0.047 A 
ATOM     33  C   UNL     1       3.825  -1.333  23.689  0.00  0.00    +0.047 A 
ATOM     34  C   UNL     1       4.964  -0.569  23.437  0.00  0.00    +0.120 A 
BRANCH  34   7
ATOM      7  O   UNL     1       6.199  -1.134  23.540  0.00  0.00    -0.495 OA
ATOM     35  C   UNL     1       7.316  -0.323  23.178  0.00  0.00    +0.277 C 
ENDBRANCH  34   7
ENDBRANCH  11  25
ENDBRANCH  13   9
BRANCH  14  17
ATOM      3  O   UNL     1      -2.894  -0.923  25.882  0.00  0.00    -0.274 OA
ATOM     10  N   UNL     1      -1.457   0.576  24.830  0.00  0.00    -0.302 N 
ATOM     17  C   UNL     1      -2.616  -0.169  24.952  0.00  0.00    +0.234 C 
ATOM     37  H   UNL     1      -1.348   1.193  24.030  0.00  0.00    +0.150 HD
BRANCH  10  19
ATOM     19  C   UNL     1      -0.396   0.557  25.812  0.00  0.00    +0.163 C 
BRANCH  19  23
ATOM      6  O   UNL     1      -0.954  -0.859  27.708  0.00  0.00    -0.274 OA
ATOM     12  N   UNL     1      -0.111  -1.843  25.811  0.00  0.00    -0.328 N 
ATOM     23  C   UNL     1      -0.511  -0.761  26.566  0.00  0.00    +0.231 C 
ATOM     39  H   UNL     1      -0.151  -2.784  26.190  0.00  0.00    +0.145 HD
ATOM     40  H   UNL     1       0.251  -1.749  24.867  0.00  0.00    +0.145 HD
ENDBRANCH  19  23
BRANCH  19  22
ATOM     22  C   UNL     1      -0.482   1.739  26.785  0.00  0.00    +0.074 C 
BRANCH  22  24
ATOM      2  S   UNL     1      -2.383   3.730  26.354  0.00  0.00    -0.102 S 
ATOM     24  C   UNL     1      -0.842   3.030  26.088  0.00  0.00    -0.008 A 
ATOM     27  C   UNL     1      -0.079   3.776  25.217  0.00  0.00    +0.011 A 
ATOM     30  C   UNL     1      -0.767   4.938  24.763  0.00  0.00    +0.008 A 
ATOM     31  C   UNL     1      -2.031   5.035  25.303  0.00  0.00    +0.045 A 
ENDBRANCH  22  24
ENDBRANCH  19  22
ENDBRANCH  10  19
ENDBRANCH  14  17
BRANCH  18  20
ATOM     20  C   UNL     1      -5.414   3.331  24.465  0.00  0.00    +0.164 C 
BRANCH  20   1
ATOM      1  S   UNL     1      -6.141   3.937  25.994  0.00  0.00    -0.155 S 
ATOM     26  C   UNL     1      -6.319   5.682  25.547  0.00  0.00    +0.085 C 
ENDBRANCH  20   1
ENDBRANCH  18  20
TORSDOF 10
ENDMDL
MODEL 7
REMARK VINA RESULT:       7.7      2.599      5.508
REMARK  Name = 7127938
REMARK  12 active torsions:
REMARK  status: ('A' for Active; 'I' for Inactive)
REMARK    1  A    between atoms: S_1  and  C_20
REMARK    2  A    between atoms: S_1  and  C_26
REMARK    3  A    between atoms: O_7  and  C_34
REMARK    4  A    between atoms: O_7  and  C_35
REMARK    5  A    between atoms: N_9  and  C_13
REMARK    6  A    between atoms: N_10  and  C_19
REMARK    7  A    between atoms: N_11  and  C_25
REMARK    8  A    between atoms: C_14  and  C_17
REMARK    9  A    between atoms: C_18  and  C_20
REMARK   10  A    between atoms: C_19  and  C_22
REMARK   11  A    between atoms: C_19  and  C_23
REMARK   12  A    between atoms: C_22  and  C_24
REMARK                            x       y       z     vdW  Elec       q    Type
REMARK                         _______ _______ _______ _____ _____    ______ ____
ROOT
ATOM      4  O   UNL     1      -5.410   0.517  25.055  0.00  0.00    -0.275 OA
ATOM      8  N   UNL     1      -3.968   2.170  24.315  0.00  0.00    -0.287 N 
ATOM     13  C   UNL     1      -2.262   3.539  23.389  0.00  0.00    +0.094 C 
ATOM     14  C   UNL     1      -3.320   1.370  23.286  0.00  0.00    +0.164 C 
ATOM     15  C   UNL     1      -2.537   2.370  22.440  0.00  0.00    +0.055 C 
ATOM     16  C   UNL     1      -3.486   3.551  24.300  0.00  0.00    +0.131 C 
ATOM     18  C   UNL     1      -5.029   1.689  25.068  0.00  0.00    +0.226 C 
ENDROOT
BRANCH  13   9
ATOM      5  O   UNL     1      -2.026   3.077  26.207  0.00  0.00    -0.253 OA
ATOM      9  N   UNL     1      -1.042   3.353  24.132  0.00  0.00    -0.295 N 
ATOM     11  N   UNL     1       0.307   2.987  25.958  0.00  0.00    -0.269 N 
ATOM     21  C   UNL     1      -1.012   3.131  25.515  0.00  0.00    +0.304 C 
ATOM     36  H   UNL     1      -0.157   3.449  23.642  0.00  0.00    +0.151 HD
ATOM     38  H   UNL     1       1.036   3.060  25.252  0.00  0.00    +0.156 HD
BRANCH  11  25
ATOM     25  C   UNL     1       0.759   2.753  27.277  0.00  0.00    +0.035 A 
ATOM     28  C   UNL     1      -0.144   2.363  28.265  0.00  0.00    +0.027 A 
ATOM     29  C   UNL     1       2.111   2.910  27.589  0.00  0.00    +0.027 A 
ATOM     32  C   UNL     1       0.303   2.131  29.567  0.00  0.00    +0.047 A 
ATOM     33  C   UNL     1       2.557   2.677  28.890  0.00  0.00    +0.047 A 
ATOM     34  C   UNL     1       1.654   2.288  29.878  0.00  0.00    +0.120 A 
BRANCH  34   7
ATOM      7  O   UNL     1       2.090   2.059  31.147  0.00  0.00    -0.495 OA
ATOM     35  C   UNL     1       1.103   2.027  32.177  0.00  0.00    +0.277 C 
ENDBRANCH  34   7
ENDBRANCH  11  25
ENDBRANCH  13   9
BRANCH  14  17
ATOM      3  O   UNL     1      -2.615  -0.023  25.092  0.00  0.00    -0.274 OA
ATOM     10  N   UNL     1      -1.351   0.016  23.137  0.00  0.00    -0.302 N 
ATOM     17  C   UNL     1      -2.412   0.378  23.948  0.00  0.00    +0.234 C 
ATOM     37  H   UNL     1      -1.267   0.438  22.216  0.00  0.00    +0.150 HD
BRANCH  10  19
ATOM     19  C   UNL     1      -0.320  -0.909  23.549  0.00  0.00    +0.163 C 
BRANCH  19  23
ATOM      6  O   UNL     1      -1.773  -2.774  24.115  0.00  0.00    -0.274 OA
ATOM     12  N   UNL     1      -0.531  -1.801  25.785  0.00  0.00    -0.328 N 
ATOM     23  C   UNL     1      -0.972  -1.917  24.484  0.00  0.00    +0.231 C 
ATOM     39  H   UNL     1      -0.876  -2.424  26.509  0.00  0.00    +0.145 HD
ATOM     40  H   UNL     1       0.134  -1.091  26.076  0.00  0.00    +0.145 HD
ENDBRANCH  19  23
BRANCH  19  22
ATOM     22  C   UNL     1       0.847  -0.205  24.252  0.00  0.00    +0.074 C 
BRANCH  22  24
ATOM      2  S   UNL     1       1.929  -0.486  21.700  0.00  0.00    -0.102 S 
ATOM     24  C   UNL     1       1.981   0.111  23.304  0.00  0.00    -0.008 A 
ATOM     27  C   UNL     1       3.120   0.848  23.545  0.00  0.00    +0.011 A 
ATOM     30  C   UNL     1       3.960   0.924  22.397  0.00  0.00    +0.008 A 
ATOM     31  C   UNL     1       3.432   0.242  21.323  0.00  0.00    +0.045 A 
ENDBRANCH  22  24
ENDBRANCH  19  22
ENDBRANCH  10  19
ENDBRANCH  14  17
BRANCH  18  20
ATOM     20  C   UNL     1      -5.715   2.703  25.948  0.00  0.00    +0.164 C 
BRANCH  20   1
ATOM      1  S   UNL     1      -4.886   4.282  25.711  0.00  0.00    -0.155 S 
ATOM     26  C   UNL     1      -6.343   5.329  25.467  0.00  0.00    +0.085 C 
ENDBRANCH  20   1
ENDBRANCH  18  20
TORSDOF 10
ENDMDL
MODEL 8
REMARK VINA RESULT:       8.0      2.218      4.376
REMARK  Name = 7127938
REMARK  12 active torsions:
REMARK  status: ('A' for Active; 'I' for Inactive)
REMARK    1  A    between atoms: S_1  and  C_20
REMARK    2  A    between atoms: S_1  and  C_26
REMARK    3  A    between atoms: O_7  and  C_34
REMARK    4  A    between atoms: O_7  and  C_35
REMARK    5  A    between atoms: N_9  and  C_13
REMARK    6  A    between atoms: N_10  and  C_19
REMARK    7  A    between atoms: N_11  and  C_25
REMARK    8  A    between atoms: C_14  and  C_17
REMARK    9  A    between atoms: C_18  and  C_20
REMARK   10  A    between atoms: C_19  and  C_22
REMARK   11  A    between atoms: C_19  and  C_23
REMARK   12  A    between atoms: C_22  and  C_24
REMARK                            x       y       z     vdW  Elec       q    Type
REMARK                         _______ _______ _______ _____ _____    ______ ____
ROOT
ATOM      4  O   UNL     1      -4.667   3.440  26.961  0.00  0.00    -0.275 OA
ATOM      8  N   UNL     1      -3.733   3.395  24.843  0.00  0.00    -0.287 N 
ATOM     13  C   UNL     1      -2.984   2.975  22.629  0.00  0.00    +0.094 C 
ATOM     14  C   UNL     1      -4.667   2.434  24.275  0.00  0.00    +0.164 C 
ATOM     15  C   UNL     1      -4.430   2.493  22.768  0.00  0.00    +0.055 C 
ATOM     16  C   UNL     1      -2.797   3.892  23.834  0.00  0.00    +0.131 C 
ATOM     18  C   UNL     1      -3.866   3.882  26.135  0.00  0.00    +0.226 C 
ENDROOT
BRANCH  13   9
ATOM      5  O   UNL     1      -0.144   3.147  22.968  0.00  0.00    -0.253 OA
ATOM      9  N   UNL     1      -2.049   1.879  22.639  0.00  0.00    -0.295 N 
ATOM     11  N   UNL     1      -0.017   0.811  22.776  0.00  0.00    -0.269 N 
ATOM     21  C   UNL     1      -0.669   2.048  22.810  0.00  0.00    +0.304 C 
ATOM     36  H   UNL     1      -2.398   0.944  22.449  0.00  0.00    +0.151 HD
ATOM     38  H   UNL     1      -0.602  -0.009  22.636  0.00  0.00    +0.156 HD
BRANCH  11  25
ATOM     25  C   UNL     1       1.367   0.555  22.911  0.00  0.00    +0.035 A 
ATOM     28  C   UNL     1       2.277   1.611  22.891  0.00  0.00    +0.027 A 
ATOM     29  C   UNL     1       1.822  -0.756  23.065  0.00  0.00    +0.027 A 
ATOM     32  C   UNL     1       3.643   1.358  23.024  0.00  0.00    +0.047 A 
ATOM     33  C   UNL     1       3.186  -1.008  23.199  0.00  0.00    +0.047 A 
ATOM     34  C   UNL     1       4.096   0.048  23.179  0.00  0.00    +0.120 A 
BRANCH  34   7
ATOM      7  O   UNL     1       5.429  -0.199  23.312  0.00  0.00    -0.495 OA
ATOM     35  C   UNL     1       5.850  -0.862  24.503  0.00  0.00    +0.277 C 
ENDBRANCH  34   7
ENDBRANCH  11  25
ENDBRANCH  13   9
BRANCH  14  17
ATOM      3  O   UNL     1      -5.178   0.163  24.805  0.00  0.00    -0.274 OA
ATOM     10  N   UNL     1      -3.081   1.008  25.364  0.00  0.00    -0.302 N 
ATOM     17  C   UNL     1      -4.355   1.076  24.828  0.00  0.00    +0.234 C 
ATOM     37  H   UNL     1      -2.497   1.839  25.356  0.00  0.00    +0.150 HD
BRANCH  10  19
ATOM     19  C   UNL     1      -2.545  -0.185  25.980  0.00  0.00    +0.163 C 
BRANCH  19  23
ATOM      6  O   UNL     1      -1.544  -0.765  23.843  0.00  0.00    -0.274 OA
ATOM     12  N   UNL     1      -0.300  -1.049  25.754  0.00  0.00    -0.328 N 
ATOM     23  C   UNL     1      -1.444  -0.703  25.066  0.00  0.00    +0.231 C 
ATOM     39  H   UNL     1       0.517  -1.396  25.261  0.00  0.00    +0.145 HD
ATOM     40  H   UNL     1      -0.229  -0.990  26.765  0.00  0.00    +0.145 HD
ENDBRANCH  19  23
BRANCH  19  22
ATOM     22  C   UNL     1      -3.616  -1.262  26.193  0.00  0.00    +0.074 C 
BRANCH  22  24
ATOM      2  S   UNL     1      -2.710  -3.592  24.963  0.00  0.00    -0.102 S 
ATOM     24  C   UNL     1      -3.718  -2.209  25.020  0.00  0.00    -0.008 A 
ATOM     27  C   UNL     1      -4.544  -2.126  23.921  0.00  0.00    +0.011 A 
ATOM     30  C   UNL     1      -4.349  -3.213  23.021  0.00  0.00    +0.008 A 
ATOM     31  C   UNL     1      -3.380  -4.085  23.466  0.00  0.00    +0.045 A 
ENDBRANCH  22  24
ENDBRANCH  19  22
ENDBRANCH  10  19
ENDBRANCH  14  17
BRANCH  18  20
ATOM     20  C   UNL     1      -2.941   5.014  26.503  0.00  0.00    +0.164 C 
BRANCH  20   1
ATOM      1  S   UNL     1      -1.435   4.824  25.537  0.00  0.00    -0.155 S 
ATOM     26  C   UNL     1      -0.776   3.339  26.335  0.00  0.00    +0.085 C 
ENDBRANCH  20   1
ENDBRANCH  18  20
TORSDOF 10
ENDMDL
MODEL 9
REMARK VINA RESULT:       8.2      3.086      5.492
REMARK  Name = 7127938
REMARK  12 active torsions:
REMARK  status: ('A' for Active; 'I' for Inactive)
REMARK    1  A    between atoms: S_1  and  C_20
REMARK    2  A    between atoms: S_1  and  C_26
REMARK    3  A    between atoms: O_7  and  C_34
REMARK    4  A    between atoms: O_7  and  C_35
REMARK    5  A    between atoms: N_9  and  C_13
REMARK    6  A    between atoms: N_10  and  C_19
REMARK    7  A    between atoms: N_11  and  C_25
REMARK    8  A    between atoms: C_14  and  C_17
REMARK    9  A    between atoms: C_18  and  C_20
REMARK   10  A    between atoms: C_19  and  C_22
REMARK   11  A    between atoms: C_19  and  C_23
REMARK   12  A    between atoms: C_22  and  C_24
REMARK                            x       y       z     vdW  Elec       q    Type
REMARK                         _______ _______ _______ _____ _____    ______ ____
ROOT
ATOM      4  O   UNL     1      -5.171   1.109  24.498  0.00  0.00    -0.275 OA
ATOM      8  N   UNL     1      -3.511   2.655  24.039  0.00  0.00    -0.287 N 
ATOM     13  C   UNL     1      -1.600   3.908  23.389  0.00  0.00    +0.094 C 
ATOM     14  C   UNL     1      -2.856   1.883  22.993  0.00  0.00    +0.164 C 
ATOM     15  C   UNL     1      -1.904   2.863  22.313  0.00  0.00    +0.055 C 
ATOM     16  C   UNL     1      -2.894   3.972  24.196  0.00  0.00    +0.131 C 
ATOM     18  C   UNL     1      -4.678   2.227  24.654  0.00  0.00    +0.226 C 
ENDROOT
BRANCH  13   9
ATOM      5  O   UNL     1      -1.596   3.538  26.230  0.00  0.00    -0.253 OA
ATOM      9  N   UNL     1      -0.477   3.527  24.207  0.00  0.00    -0.295 N 
ATOM     11  N   UNL     1       0.686   2.995  26.118  0.00  0.00    -0.269 N 
ATOM     21  C   UNL     1      -0.557   3.367  25.596  0.00  0.00    +0.304 C 
ATOM     36  H   UNL     1       0.433   3.432  23.765  0.00  0.00    +0.151 HD
ATOM     38  H   UNL     1       1.449   2.896  25.452  0.00  0.00    +0.156 HD
BRANCH  11  25
ATOM     25  C   UNL     1       1.020   2.739  27.468  0.00  0.00    +0.035 A 
ATOM     28  C   UNL     1       2.339   2.876  27.898  0.00  0.00    +0.027 A 
ATOM     29  C   UNL     1       0.028   2.351  28.370  0.00  0.00    +0.027 A 
ATOM     32  C   UNL     1       2.668   2.623  29.230  0.00  0.00    +0.047 A 
ATOM     33  C   UNL     1       0.357   2.099  29.701  0.00  0.00    +0.047 A 
ATOM     34  C   UNL     1       1.676   2.235  30.131  0.00  0.00    +0.120 A 
BRANCH  34   7
ATOM      7  O   UNL     1       1.997   1.991  31.432  0.00  0.00    -0.495 OA
ATOM     35  C   UNL     1       0.938   2.066  32.387  0.00  0.00    +0.277 C 
ENDBRANCH  34   7
ENDBRANCH  11  25
ENDBRANCH  13   9
BRANCH  14  17
ATOM      3  O   UNL     1      -1.650  -0.177  22.961  0.00  0.00    -0.274 OA
ATOM     10  N   UNL     1      -2.051   0.864  25.005  0.00  0.00    -0.302 N 
ATOM     17  C   UNL     1      -2.114   0.745  23.627  0.00  0.00    +0.234 C 
ATOM     37  H   UNL     1      -2.500   1.658  25.453  0.00  0.00    +0.150 HD
BRANCH  10  19
ATOM     19  C   UNL     1      -1.410  -0.114  25.854  0.00  0.00    +0.163 C 
BRANCH  19  23
ATOM      6  O   UNL     1      -0.066  -1.961  25.024  0.00  0.00    -0.274 OA
ATOM     12  N   UNL     1       0.396   0.161  24.272  0.00  0.00    -0.328 N 
ATOM     23  C   UNL     1      -0.297  -0.754  25.037  0.00  0.00    +0.231 C 
ATOM     39  H   UNL     1       1.155  -0.137  23.668  0.00  0.00    +0.145 HD
ATOM     40  H   UNL     1       0.193   1.156  24.290  0.00  0.00    +0.145 HD
ENDBRANCH  19  23
BRANCH  19  22
ATOM     22  C   UNL     1      -2.390  -1.182  26.354  0.00  0.00    +0.074 C 
BRANCH  22  24
ATOM      2  S   UNL     1      -2.662  -3.298  24.562  0.00  0.00    -0.102 S 
ATOM     24  C   UNL     1      -3.180  -1.808  25.228  0.00  0.00    -0.008 A 
ATOM     27  C   UNL     1      -4.319  -1.335  24.615  0.00  0.00    +0.011 A 
ATOM     30  C   UNL     1      -4.775  -2.209  23.586  0.00  0.00    +0.008 A 
ATOM     31  C   UNL     1      -3.965  -3.315  23.451  0.00  0.00    +0.045 A 
ENDBRANCH  22  24
ENDBRANCH  19  22
ENDBRANCH  10  19
ENDBRANCH  14  17
BRANCH  18  20
ATOM     20  C   UNL     1      -5.335   3.228  25.570  0.00  0.00    +0.164 C 
BRANCH  20   1
ATOM      1  S   UNL     1      -6.986   2.622  25.947  0.00  0.00    -0.155 S 
ATOM     26  C   UNL     1      -6.565   1.475  27.282  0.00  0.00    +0.085 C 
ENDBRANCH  20   1
ENDBRANCH  18  20
TORSDOF 10
ENDMDL
