MODEL 1
REMARK VINA RESULT:      12.3      0.000      0.000
REMARK  Name = 28960232
REMARK  12 active torsions:
REMARK  status: ('A' for Active; 'I' for Inactive)
REMARK    1  A    between atoms: N_2  and  C_15
REMARK    2  A    between atoms: N_3  and  C_8
REMARK    3  A    between atoms: N_5  and  C_27
REMARK    4  A    between atoms: C_6  and  C_9
REMARK    5  A    between atoms: C_12  and  C_16
REMARK    6  A    between atoms: C_13  and  C_18
REMARK    7  A    between atoms: C_14  and  C_17
REMARK    8  A    between atoms: C_14  and  C_24
REMARK    9  A    between atoms: C_14  and  C_25
REMARK   10  A    between atoms: C_14  and  C_26
REMARK   11  A    between atoms: C_27  and  C_28
REMARK   12  A    between atoms: C_27  and  C_29
REMARK                            x       y       z     vdW  Elec       q    Type
REMARK                         _______ _______ _______ _____ _____    ______ ____
ROOT
ATOM      2  N   UNL     1      -0.838   0.849  23.548  0.00  0.00    -0.236 N 
ATOM      4  N   UNL     1      -0.765   0.021  22.492  0.00  0.00    -0.171 NA
ATOM      9  C   UNL     1       1.310   0.603  23.245  0.00  0.00    +0.003 A 
ATOM     12  C   UNL     1       0.379   1.227  24.037  0.00  0.00    +0.046 A 
ATOM     13  C   UNL     1       0.550  -0.126  22.311  0.00  0.00    +0.064 A 
ATOM     16  C   UNL     1       0.542   2.133  25.193  0.00  0.00    +0.066 C 
ATOM     18  C   UNL     1       1.040  -0.983  21.218  0.00  0.00    +0.068 C 
ENDROOT
BRANCH   2  15
ATOM     15  C   UNL     1      -2.085   1.238  24.039  0.00  0.00    +0.066 A 
ATOM     17  C   UNL     1      -4.580   2.016  25.014  0.00  0.00    -0.042 A 
ATOM     20  C   UNL     1      -2.913   0.303  24.661  0.00  0.00    +0.028 A 
ATOM     21  C   UNL     1      -2.505   2.561  23.906  0.00  0.00    +0.028 A 
ATOM     22  C   UNL     1      -4.160   0.692  25.148  0.00  0.00    +0.006 A 
ATOM     23  C   UNL     1      -3.751   2.950  24.393  0.00  0.00    +0.006 A 
BRANCH  17  14
ATOM     14  C   UNL     1      -5.915   2.431  25.535  0.00  0.00    -0.013 C 
ATOM     24  C   UNL     1      -7.063   1.948  24.596  0.00  0.00    +0.015 C 
ATOM     25  C   UNL     1      -6.022   3.983  25.649  0.00  0.00    +0.015 C 
ATOM     26  C   UNL     1      -6.280   1.883  26.955  0.00  0.00    +0.015 C 
ENDBRANCH  17  14
ENDBRANCH   2  15
BRANCH   9   6
ATOM      6  C   UNL     1       2.817   0.682  23.355  0.00  0.00    +0.047 C 
ATOM      7  C   UNL     1       3.478  -0.676  23.668  0.00  0.00    +0.039 C 
ATOM      8  C   UNL     1       4.820  -0.668  22.927  0.00  0.00    +0.098 C 
ATOM     10  C   UNL     1       3.515   1.099  22.093  0.00  0.00    -0.021 C 
ATOM     11  C   UNL     1       4.609   0.362  21.866  0.00  0.00    -0.009 C 
BRANCH   8   3
ATOM      1  O   UNL     1       7.617  -0.597  22.218  0.00  0.00    -0.253 OA
ATOM      3  N   UNL     1       5.917  -0.264  23.766  0.00  0.00    -0.293 N 
ATOM      5  N   UNL     1       8.103   0.176  24.352  0.00  0.00    -0.297 N 
ATOM     19  C   UNL     1       7.247  -0.259  23.342  0.00  0.00    +0.300 C 
ATOM     30  H   UNL     1       5.727  -0.010  24.731  0.00  0.00    +0.151 HD
ATOM     31  H   UNL     1       7.710   0.361  25.271  0.00  0.00    +0.150 HD
BRANCH   5  27
ATOM     27  C   UNL     1       9.533   0.275  24.178  0.00  0.00    +0.068 C 
ATOM     28  C   UNL     1       9.996   1.707  24.409  0.00  0.00    +0.027 C 
ATOM     29  C   UNL     1       9.938  -0.221  22.795  0.00  0.00    +0.027 C 
ENDBRANCH   5  27
ENDBRANCH   8   3
ENDBRANCH   9   6
TORSDOF 5
ENDMDL
MODEL 2
REMARK VINA RESULT:      14.4      3.456     10.064
REMARK  Name = 28960232
REMARK  12 active torsions:
REMARK  status: ('A' for Active; 'I' for Inactive)
REMARK    1  A    between atoms: N_2  and  C_15
REMARK    2  A    between atoms: N_3  and  C_8
REMARK    3  A    between atoms: N_5  and  C_27
REMARK    4  A    between atoms: C_6  and  C_9
REMARK    5  A    between atoms: C_12  and  C_16
REMARK    6  A    between atoms: C_13  and  C_18
REMARK    7  A    between atoms: C_14  and  C_17
REMARK    8  A    between atoms: C_14  and  C_24
REMARK    9  A    between atoms: C_14  and  C_25
REMARK   10  A    between atoms: C_14  and  C_26
REMARK   11  A    between atoms: C_27  and  C_28
REMARK   12  A    between atoms: C_27  and  C_29
REMARK                            x       y       z     vdW  Elec       q    Type
REMARK                         _______ _______ _______ _____ _____    ______ ____
ROOT
ATOM      2  N   UNL     1       0.345  -0.849  24.061  0.00  0.00    -0.236 N 
ATOM      4  N   UNL     1      -0.231  -2.017  23.732  0.00  0.00    -0.171 NA
ATOM      9  C   UNL     1      -1.757  -0.535  24.561  0.00  0.00    +0.003 A 
ATOM     12  C   UNL     1      -0.527   0.073  24.562  0.00  0.00    +0.046 A 
ATOM     13  C   UNL     1      -1.515  -1.821  24.040  0.00  0.00    +0.064 A 
ATOM     16  C   UNL     1      -0.117   1.427  24.990  0.00  0.00    +0.066 C 
ATOM     18  C   UNL     1      -2.489  -2.904  23.817  0.00  0.00    +0.068 C 
ENDROOT
BRANCH   2  15
ATOM     15  C   UNL     1       1.717  -0.676  23.874  0.00  0.00    +0.066 A 
ATOM     17  C   UNL     1       4.460  -0.325  23.504  0.00  0.00    -0.042 A 
ATOM     20  C   UNL     1       2.601  -1.704  24.199  0.00  0.00    +0.028 A 
ATOM     21  C   UNL     1       2.204   0.527  23.363  0.00  0.00    +0.028 A 
ATOM     22  C   UNL     1       3.973  -1.529  24.015  0.00  0.00    +0.006 A 
ATOM     23  C   UNL     1       3.575   0.702  23.178  0.00  0.00    +0.006 A 
BRANCH  17  14
ATOM     14  C   UNL     1       5.927  -0.139  23.308  0.00  0.00    -0.013 C 
ATOM     24  C   UNL     1       6.746  -1.096  24.227  0.00  0.00    +0.015 C 
ATOM     25  C   UNL     1       6.362   1.322  23.642  0.00  0.00    +0.015 C 
ATOM     26  C   UNL     1       6.449  -0.407  21.857  0.00  0.00    +0.015 C 
ENDBRANCH  17  14
ENDBRANCH   2  15
BRANCH   9   6
ATOM      6  C   UNL     1      -3.076   0.047  25.018  0.00  0.00    +0.047 C 
ATOM      7  C   UNL     1      -3.905   0.655  23.868  0.00  0.00    +0.039 C 
ATOM      8  C   UNL     1      -5.373   0.387  24.224  0.00  0.00    +0.098 C 
ATOM     10  C   UNL     1      -4.029  -0.949  25.612  0.00  0.00    -0.021 C 
ATOM     11  C   UNL     1      -5.280  -0.757  25.179  0.00  0.00    -0.009 C 
BRANCH   8   3
ATOM      1  O   UNL     1      -4.241   3.006  24.662  0.00  0.00    -0.253 OA
ATOM      3  N   UNL     1      -5.998   1.503  24.883  0.00  0.00    -0.293 N 
ATOM      5  N   UNL     1      -6.205   3.640  25.722  0.00  0.00    -0.297 N 
ATOM     19  C   UNL     1      -5.377   2.742  25.053  0.00  0.00    +0.300 C 
ATOM     30  H   UNL     1      -6.922   1.378  25.286  0.00  0.00    +0.151 HD
ATOM     31  H   UNL     1      -7.099   3.305  26.072  0.00  0.00    +0.150 HD
BRANCH   5  27
ATOM     27  C   UNL     1      -5.806   4.993  26.028  0.00  0.00    +0.068 C 
ATOM     28  C   UNL     1      -6.286   5.945  24.941  0.00  0.00    +0.027 C 
ATOM     29  C   UNL     1      -4.295   5.077  26.209  0.00  0.00    +0.027 C 
ENDBRANCH   5  27
ENDBRANCH   8   3
ENDBRANCH   9   6
TORSDOF 5
ENDMDL
MODEL 3
REMARK VINA RESULT:      15.6      3.184     10.170
REMARK  Name = 28960232
REMARK  12 active torsions:
REMARK  status: ('A' for Active; 'I' for Inactive)
REMARK    1  A    between atoms: N_2  and  C_15
REMARK    2  A    between atoms: N_3  and  C_8
REMARK    3  A    between atoms: N_5  and  C_27
REMARK    4  A    between atoms: C_6  and  C_9
REMARK    5  A    between atoms: C_12  and  C_16
REMARK    6  A    between atoms: C_13  and  C_18
REMARK    7  A    between atoms: C_14  and  C_17
REMARK    8  A    between atoms: C_14  and  C_24
REMARK    9  A    between atoms: C_14  and  C_25
REMARK   10  A    between atoms: C_14  and  C_26
REMARK   11  A    between atoms: C_27  and  C_28
REMARK   12  A    between atoms: C_27  and  C_29
REMARK                            x       y       z     vdW  Elec       q    Type
REMARK                         _______ _______ _______ _____ _____    ______ ____
ROOT
ATOM      2  N   UNL     1       1.269  -0.110  23.728  0.00  0.00    -0.236 N 
ATOM      4  N   UNL     1       0.508  -1.216  23.676  0.00  0.00    -0.171 NA
ATOM      9  C   UNL     1      -0.763   0.665  23.928  0.00  0.00    +0.003 A 
ATOM     12  C   UNL     1       0.555   1.044  23.878  0.00  0.00    +0.046 A 
ATOM     13  C   UNL     1      -0.733  -0.737  23.799  0.00  0.00    +0.064 A 
ATOM     16  C   UNL     1       1.182   2.379  23.960  0.00  0.00    +0.066 C 
ATOM     18  C   UNL     1      -1.874  -1.669  23.788  0.00  0.00    +0.068 C 
ENDROOT
BRANCH   2  15
ATOM     15  C   UNL     1       2.657  -0.218  23.629  0.00  0.00    +0.066 A 
ATOM     17  C   UNL     1       5.432  -0.431  23.436  0.00  0.00    -0.042 A 
ATOM     20  C   UNL     1       3.291  -1.408  23.987  0.00  0.00    +0.028 A 
ATOM     21  C   UNL     1       3.409   0.863  23.174  0.00  0.00    +0.028 A 
ATOM     22  C   UNL     1       4.678  -1.514  23.892  0.00  0.00    +0.006 A 
ATOM     23  C   UNL     1       4.796   0.757  23.078  0.00  0.00    +0.006 A 
BRANCH  17  14
ATOM     14  C   UNL     1       6.915  -0.546  23.335  0.00  0.00    -0.013 C 
ATOM     24  C   UNL     1       7.333  -1.360  22.071  0.00  0.00    +0.015 C 
ATOM     25  C   UNL     1       7.514  -1.269  24.580  0.00  0.00    +0.015 C 
ATOM     26  C   UNL     1       7.687   0.811  23.230  0.00  0.00    +0.015 C 
ENDBRANCH  17  14
ENDBRANCH   2  15
BRANCH   9   6
ATOM      6  C   UNL     1      -1.975   1.556  24.086  0.00  0.00    +0.047 C 
ATOM      7  C   UNL     1      -1.806   2.624  25.186  0.00  0.00    +0.039 C 
ATOM      8  C   UNL     1      -2.565   3.860  24.687  0.00  0.00    +0.098 C 
ATOM     10  C   UNL     1      -2.305   2.384  22.878  0.00  0.00    -0.021 C 
ATOM     11  C   UNL     1      -2.630   3.638  23.212  0.00  0.00    -0.009 C 
BRANCH   8   3
ATOM      1  O   UNL     1      -4.442   1.692  25.010  0.00  0.00    -0.253 OA
ATOM      3  N   UNL     1      -3.902   3.942  25.212  0.00  0.00    -0.293 N 
ATOM      5  N   UNL     1      -5.982   3.198  25.871  0.00  0.00    -0.297 N 
ATOM     19  C   UNL     1      -4.748   2.838  25.335  0.00  0.00    +0.300 C 
ATOM     30  H   UNL     1      -4.273   4.853  25.468  0.00  0.00    +0.151 HD
ATOM     31  H   UNL     1      -6.167   4.184  26.038  0.00  0.00    +0.150 HD
BRANCH   5  27
ATOM     27  C   UNL     1      -7.043   2.246  26.102  0.00  0.00    +0.068 C 
ATOM     28  C   UNL     1      -6.768   1.444  27.366  0.00  0.00    +0.027 C 
ATOM     29  C   UNL     1      -7.215   1.334  24.894  0.00  0.00    +0.027 C 
ENDBRANCH   5  27
ENDBRANCH   8   3
ENDBRANCH   9   6
TORSDOF 5
ENDMDL
