MODEL 1
REMARK VINA RESULT:       1.4      0.000      0.000
REMARK  Name = 40780422
REMARK  9 active torsions:
REMARK  status: ('A' for Active; 'I' for Inactive)
REMARK    1  A    between atoms: N_4  and  C_11
REMARK    2  A    between atoms: N_5  and  C_20
REMARK    3  A    between atoms: N_7  and  C_21
REMARK    4  A    between atoms: N_8  and  C_22
REMARK    5  A    between atoms: C_9  and  C_12
REMARK    6  A    between atoms: C_15  and  C_17
REMARK    7  A    between atoms: C_16  and  C_18
REMARK    8  A    between atoms: C_21  and  C_25
REMARK    9  A    between atoms: C_21  and  C_26
REMARK                            x       y       z     vdW  Elec       q    Type
REMARK                         _______ _______ _______ _____ _____    ______ ____
ROOT
ATOM      5  N   UNL     1      -3.658   0.944  25.099  0.00  0.00    -0.234 N 
ATOM      6  N   UNL     1      -3.861  -0.335  24.739  0.00  0.00    -0.171 NA
ATOM     12  C   UNL     1      -1.645   0.214  24.669  0.00  0.00    +0.003 A 
ATOM     15  C   UNL     1      -2.349   1.323  25.074  0.00  0.00    +0.046 A 
ATOM     16  C   UNL     1      -2.628  -0.775  24.478  0.00  0.00    +0.064 A 
ATOM     17  C   UNL     1      -1.890   2.682  25.429  0.00  0.00    +0.066 C 
ATOM     18  C   UNL     1      -2.433  -2.169  24.041  0.00  0.00    +0.068 C 
ENDROOT
BRANCH   5  20
ATOM     20  C   UNL     1      -4.746   1.744  25.453  0.00  0.00    +0.096 A 
ATOM     22  C   UNL     1      -4.961   2.983  24.852  0.00  0.00    +0.151 A 
ATOM     23  C   UNL     1      -5.625   1.281  26.433  0.00  0.00    +0.030 A 
ATOM     24  C   UNL     1      -6.056   3.760  25.230  0.00  0.00    +0.035 A 
ATOM     27  C   UNL     1      -6.720   2.058  26.811  0.00  0.00    +0.002 A 
ATOM     28  C   UNL     1      -6.936   3.299  26.209  0.00  0.00    +0.002 A 
BRANCH  22   8
ATOM      2  O   UNL     1      -3.958   2.843  22.781  0.00  0.00    -0.126 OA
ATOM      3  O   UNL     1      -3.463   4.550  24.069  0.00  0.00    -0.126 OA
ATOM      8  N   UNL     1      -4.082   3.484  23.850  0.00  0.00    +0.059 N 
ENDBRANCH  22   8
ENDBRANCH   5  20
BRANCH  12   9
ATOM      9  C   UNL     1      -0.152   0.090  24.474  0.00  0.00    +0.047 C 
ATOM     10  C   UNL     1       0.234  -0.677  23.192  0.00  0.00    +0.039 C 
ATOM     11  C   UNL     1       1.522  -0.019  22.681  0.00  0.00    +0.098 C 
ATOM     13  C   UNL     1       0.570   1.395  24.297  0.00  0.00    -0.021 C 
ATOM     14  C   UNL     1       1.483   1.329  23.322  0.00  0.00    -0.009 C 
BRANCH  11   4
ATOM      1  O   UNL     1       4.149   1.109  23.074  0.00  0.00    -0.253 OA
ATOM      4  N   UNL     1       2.708  -0.712  23.109  0.00  0.00    -0.293 N 
ATOM      7  N   UNL     1       4.919  -0.991  23.695  0.00  0.00    -0.297 N 
ATOM     19  C   UNL     1       3.946  -0.088  23.274  0.00  0.00    +0.300 C 
ATOM     29  H   UNL     1       2.661  -1.717  23.254  0.00  0.00    +0.151 HD
ATOM     30  H   UNL     1       4.636  -1.942  23.908  0.00  0.00    +0.150 HD
BRANCH   7  21
ATOM     21  C   UNL     1       6.289  -0.605  23.941  0.00  0.00    +0.068 C 
ATOM     25  C   UNL     1       6.349   0.821  24.474  0.00  0.00    +0.027 C 
ATOM     26  C   UNL     1       7.123  -0.758  22.676  0.00  0.00    +0.027 C 
ENDBRANCH   7  21
ENDBRANCH  11   4
ENDBRANCH  12   9
TORSDOF 5
ENDMDL
MODEL 2
REMARK VINA RESULT:       3.1      1.739      2.621
REMARK  Name = 40780422
REMARK  9 active torsions:
REMARK  status: ('A' for Active; 'I' for Inactive)
REMARK    1  A    between atoms: N_4  and  C_11
REMARK    2  A    between atoms: N_5  and  C_20
REMARK    3  A    between atoms: N_7  and  C_21
REMARK    4  A    between atoms: N_8  and  C_22
REMARK    5  A    between atoms: C_9  and  C_12
REMARK    6  A    between atoms: C_15  and  C_17
REMARK    7  A    between atoms: C_16  and  C_18
REMARK    8  A    between atoms: C_21  and  C_25
REMARK    9  A    between atoms: C_21  and  C_26
REMARK                            x       y       z     vdW  Elec       q    Type
REMARK                         _______ _______ _______ _____ _____    ______ ____
ROOT
ATOM      5  N   UNL     1      -2.690   2.283  25.355  0.00  0.00    -0.234 N 
ATOM      6  N   UNL     1      -1.950   2.736  26.380  0.00  0.00    -0.171 NA
ATOM     12  C   UNL     1      -0.671   1.622  24.851  0.00  0.00    +0.003 A 
ATOM     15  C   UNL     1      -1.972   1.608  24.412  0.00  0.00    +0.046 A 
ATOM     16  C   UNL     1      -0.717   2.329  26.067  0.00  0.00    +0.064 A 
ATOM     17  C   UNL     1      -2.577   1.021  23.199  0.00  0.00    +0.066 C 
ATOM     18  C   UNL     1       0.402   2.643  26.973  0.00  0.00    +0.068 C 
ENDROOT
BRANCH   5  20
ATOM     20  C   UNL     1      -4.065   2.525  25.333  0.00  0.00    +0.096 A 
ATOM     22  C   UNL     1      -4.984   1.479  25.256  0.00  0.00    +0.151 A 
ATOM     23  C   UNL     1      -4.512   3.845  25.389  0.00  0.00    +0.030 A 
ATOM     24  C   UNL     1      -6.352   1.754  25.234  0.00  0.00    +0.035 A 
ATOM     27  C   UNL     1      -5.879   4.119  25.368  0.00  0.00    +0.002 A 
ATOM     28  C   UNL     1      -6.800   3.074  25.290  0.00  0.00    +0.002 A 
BRANCH  22   8
ATOM      2  O   UNL     1      -4.819  -0.547  24.169  0.00  0.00    -0.126 OA
ATOM      3  O   UNL     1      -3.940  -0.361  26.171  0.00  0.00    -0.126 OA
ATOM      8  N   UNL     1      -4.560   0.121  25.196  0.00  0.00    +0.059 N 
ENDBRANCH  22   8
ENDBRANCH   5  20
BRANCH  12   9
ATOM      9  C   UNL     1       0.537   1.011  24.177  0.00  0.00    +0.047 C 
ATOM     10  C   UNL     1       0.611  -0.522  24.331  0.00  0.00    +0.039 C 
ATOM     11  C   UNL     1       1.228  -1.045  23.028  0.00  0.00    +0.098 C 
ATOM     13  C   UNL     1       0.581   1.188  22.687  0.00  0.00    -0.021 C 
ATOM     14  C   UNL     1       0.962   0.066  22.066  0.00  0.00    -0.009 C 
BRANCH  11   4
ATOM      1  O   UNL     1       3.289   0.975  23.005  0.00  0.00    -0.253 OA
ATOM      4  N   UNL     1       2.647  -1.253  23.128  0.00  0.00    -0.293 N 
ATOM      7  N   UNL     1       4.882  -0.698  23.223  0.00  0.00    -0.297 N 
ATOM     19  C   UNL     1       3.581  -0.216  23.109  0.00  0.00    +0.300 C 
ATOM     29  H   UNL     1       3.000  -2.206  23.169  0.00  0.00    +0.151 HD
ATOM     30  H   UNL     1       5.017  -1.692  23.381  0.00  0.00    +0.150 HD
BRANCH   7  21
ATOM     21  C   UNL     1       6.039   0.166  23.229  0.00  0.00    +0.068 C 
ATOM     25  C   UNL     1       7.307  -0.646  23.003  0.00  0.00    +0.027 C 
ATOM     26  C   UNL     1       6.112   0.953  24.532  0.00  0.00    +0.027 C 
ENDBRANCH   7  21
ENDBRANCH  11   4
ENDBRANCH  12   9
TORSDOF 5
ENDMDL
MODEL 3
REMARK VINA RESULT:       3.1      1.523      1.989
REMARK  Name = 40780422
REMARK  9 active torsions:
REMARK  status: ('A' for Active; 'I' for Inactive)
REMARK    1  A    between atoms: N_4  and  C_11
REMARK    2  A    between atoms: N_5  and  C_20
REMARK    3  A    between atoms: N_7  and  C_21
REMARK    4  A    between atoms: N_8  and  C_22
REMARK    5  A    between atoms: C_9  and  C_12
REMARK    6  A    between atoms: C_15  and  C_17
REMARK    7  A    between atoms: C_16  and  C_18
REMARK    8  A    between atoms: C_21  and  C_25
REMARK    9  A    between atoms: C_21  and  C_26
REMARK                            x       y       z     vdW  Elec       q    Type
REMARK                         _______ _______ _______ _____ _____    ______ ____
ROOT
ATOM      5  N   UNL     1      -3.373   2.079  25.104  0.00  0.00    -0.234 N 
ATOM      6  N   UNL     1      -3.724   0.787  25.224  0.00  0.00    -0.171 NA
ATOM     12  C   UNL     1      -1.498   1.012  24.765  0.00  0.00    +0.003 A 
ATOM     15  C   UNL     1      -2.052   2.268  24.828  0.00  0.00    +0.046 A 
ATOM     16  C   UNL     1      -2.574   0.141  25.016  0.00  0.00    +0.064 A 
ATOM     17  C   UNL     1      -1.442   3.602  24.652  0.00  0.00    +0.066 C 
ATOM     18  C   UNL     1      -2.551  -1.332  25.067  0.00  0.00    +0.068 C 
ENDROOT
BRANCH   5  20
ATOM     20  C   UNL     1      -4.338   3.075  25.262  0.00  0.00    +0.096 A 
ATOM     22  C   UNL     1      -5.659   2.762  25.580  0.00  0.00    +0.151 A 
ATOM     23  C   UNL     1      -3.958   4.407  25.093  0.00  0.00    +0.030 A 
ATOM     24  C   UNL     1      -6.601   3.780  25.729  0.00  0.00    +0.035 A 
ATOM     27  C   UNL     1      -4.899   5.425  25.242  0.00  0.00    +0.002 A 
ATOM     28  C   UNL     1      -6.221   5.112  25.560  0.00  0.00    +0.002 A 
BRANCH  22   8
ATOM      2  O   UNL     1      -6.337   1.008  26.914  0.00  0.00    -0.126 OA
ATOM      3  O   UNL     1      -6.180   0.675  24.750  0.00  0.00    -0.126 OA
ATOM      8  N   UNL     1      -6.079   1.413  25.757  0.00  0.00    +0.059 N 
ENDBRANCH  22   8
ENDBRANCH   5  20
BRANCH  12   9
ATOM      9  C   UNL     1      -0.057   0.652  24.485  0.00  0.00    +0.047 C 
ATOM     10  C   UNL     1       0.102  -0.424  23.391  0.00  0.00    +0.039 C 
ATOM     11  C   UNL     1       1.392  -0.072  22.640  0.00  0.00    +0.098 C 
ATOM     13  C   UNL     1       0.780   1.779  23.952  0.00  0.00    -0.021 C 
ATOM     14  C   UNL     1       1.570   1.378  22.950  0.00  0.00    -0.009 C 
BRANCH  11   4
ATOM      1  O   UNL     1       4.041   0.964  23.128  0.00  0.00    -0.253 OA
ATOM      4  N   UNL     1       2.533  -0.802  23.122  0.00  0.00    -0.293 N 
ATOM      7  N   UNL     1       4.708  -1.155  23.800  0.00  0.00    -0.297 N 
ATOM     19  C   UNL     1       3.786  -0.222  23.331  0.00  0.00    +0.300 C 
ATOM     29  H   UNL     1       2.444  -1.803  23.275  0.00  0.00    +0.151 HD
ATOM     30  H   UNL     1       4.382  -2.093  24.010  0.00  0.00    +0.150 HD
BRANCH   7  21
ATOM     21  C   UNL     1       6.080  -0.816  24.097  0.00  0.00    +0.068 C 
ATOM     25  C   UNL     1       6.153   0.541  24.785  0.00  0.00    +0.027 C 
ATOM     26  C   UNL     1       6.923  -0.840  22.829  0.00  0.00    +0.027 C 
ENDBRANCH   7  21
ENDBRANCH  11   4
ENDBRANCH  12   9
TORSDOF 5
ENDMDL
MODEL 4
REMARK VINA RESULT:       4.1      1.447      2.394
REMARK  Name = 40780422
REMARK  9 active torsions:
REMARK  status: ('A' for Active; 'I' for Inactive)
REMARK    1  A    between atoms: N_4  and  C_11
REMARK    2  A    between atoms: N_5  and  C_20
REMARK    3  A    between atoms: N_7  and  C_21
REMARK    4  A    between atoms: N_8  and  C_22
REMARK    5  A    between atoms: C_9  and  C_12
REMARK    6  A    between atoms: C_15  and  C_17
REMARK    7  A    between atoms: C_16  and  C_18
REMARK    8  A    between atoms: C_21  and  C_25
REMARK    9  A    between atoms: C_21  and  C_26
REMARK                            x       y       z     vdW  Elec       q    Type
REMARK                         _______ _______ _______ _____ _____    ______ ____
ROOT
ATOM      5  N   UNL     1      -2.739   2.176  24.657  0.00  0.00    -0.234 N 
ATOM      6  N   UNL     1      -2.157   3.365  24.428  0.00  0.00    -0.171 NA
ATOM     12  C   UNL     1      -0.675   1.646  24.182  0.00  0.00    +0.003 A 
ATOM     15  C   UNL     1      -1.895   1.114  24.523  0.00  0.00    +0.046 A 
ATOM     16  C   UNL     1      -0.897   3.035  24.139  0.00  0.00    +0.064 A 
ATOM     17  C   UNL     1      -2.314  -0.287  24.728  0.00  0.00    +0.066 C 
ATOM     18  C   UNL     1       0.076   4.096  23.823  0.00  0.00    +0.068 C 
ENDROOT
BRANCH   5  20
ATOM     20  C   UNL     1      -4.092   2.121  24.996  0.00  0.00    +0.096 A 
ATOM     22  C   UNL     1      -4.664   3.062  25.852  0.00  0.00    +0.151 A 
ATOM     23  C   UNL     1      -4.874   1.097  24.461  0.00  0.00    +0.030 A 
ATOM     24  C   UNL     1      -6.019   2.979  26.173  0.00  0.00    +0.035 A 
ATOM     27  C   UNL     1      -6.229   1.014  24.783  0.00  0.00    +0.002 A 
ATOM     28  C   UNL     1      -6.802   1.955  25.639  0.00  0.00    +0.002 A 
BRANCH  22   8
ATOM      2  O   UNL     1      -3.913   5.241  25.861  0.00  0.00    -0.126 OA
ATOM      3  O   UNL     1      -3.221   3.891  27.447  0.00  0.00    -0.126 OA
ATOM      8  N   UNL     1      -3.893   4.118  26.415  0.00  0.00    +0.059 N 
ENDBRANCH  22   8
ENDBRANCH   5  20
BRANCH  12   9
ATOM      9  C   UNL     1       0.614   0.902  23.916  0.00  0.00    +0.047 C 
ATOM     10  C   UNL     1       0.520  -0.608  24.214  0.00  0.00    +0.039 C 
ATOM     11  C   UNL     1       1.415  -1.297  23.177  0.00  0.00    +0.098 C 
ATOM     13  C   UNL     1       1.066   0.920  22.484  0.00  0.00    -0.021 C 
ATOM     14  C   UNL     1       1.504  -0.279  22.088  0.00  0.00    -0.009 C 
BRANCH  11   4
ATOM      1  O   UNL     1       3.762   0.358  22.895  0.00  0.00    -0.253 OA
ATOM      4  N   UNL     1       2.735  -1.573  23.676  0.00  0.00    -0.293 N 
ATOM      7  N   UNL     1       4.978  -1.225  24.079  0.00  0.00    -0.297 N 
ATOM     19  C   UNL     1       3.821  -0.715  23.494  0.00  0.00    +0.300 C 
ATOM     29  H   UNL     1       2.906  -2.458  24.145  0.00  0.00    +0.151 HD
ATOM     30  H   UNL     1       4.908  -2.082  24.619  0.00  0.00    +0.150 HD
BRANCH   7  21
ATOM     21  C   UNL     1       6.245  -0.534  24.037  0.00  0.00    +0.068 C 
ATOM     25  C   UNL     1       6.046   0.953  24.297  0.00  0.00    +0.027 C 
ATOM     26  C   UNL     1       6.941  -0.774  22.703  0.00  0.00    +0.027 C 
ENDBRANCH   7  21
ENDBRANCH  11   4
ENDBRANCH  12   9
TORSDOF 5
ENDMDL
