MODEL 1
REMARK VINA RESULT:       0.5      0.000      0.000
REMARK  Name = 45360796
REMARK  9 active torsions:
REMARK  status: ('A' for Active; 'I' for Inactive)
REMARK    1  A    between atoms: O_3  and  C_29
REMARK    2  A    between atoms: O_3  and  C_33
REMARK    3  A    between atoms: N_5  and  C_18
REMARK    4  A    between atoms: N_6  and  C_17
REMARK    5  A    between atoms: C_12  and  C_16
REMARK    6  A    between atoms: C_16  and  C_19
REMARK    7  A    between atoms: C_17  and  C_20
REMARK    8  A    between atoms: C_19  and  C_21
REMARK    9  A    between atoms: C_22  and  C_29
REMARK                            x       y       z     vdW  Elec       q    Type
REMARK                         _______ _______ _______ _____ _____    ______ ____
ROOT
ATOM      1  O   UNL     1       0.055   2.069  23.808  0.00  0.00    -0.274 OA
ATOM      5  N   UNL     1      -2.849  -0.158  25.072  0.00  0.00    -0.296 NA
ATOM      6  N   UNL     1       0.543  -0.587  23.768  0.00  0.00    -0.286 NA
ATOM      7  N   UNL     1      -2.133   1.881  23.162  0.00  0.00    -0.312 N 
ATOM      9  C   UNL     1      -1.777  -0.923  24.397  0.00  0.00    +0.084 C 
ATOM     10  C   UNL     1      -0.828  -0.167  23.422  0.00  0.00    +0.161 C 
ATOM     11  C   UNL     1      -0.780  -1.588  25.366  0.00  0.00    +0.036 C 
ATOM     12  C   UNL     1      -3.868   0.417  24.151  0.00  0.00    +0.074 C 
ATOM     13  C   UNL     1       0.434  -1.846  24.498  0.00  0.00    +0.087 C 
ATOM     14  C   UNL     1      -3.297   1.067  22.876  0.00  0.00    +0.123 C 
ATOM     15  C   UNL     1      -0.900   1.355  23.502  0.00  0.00    +0.232 C 
ATOM     18  C   UNL     1      -3.502  -0.976  26.109  0.00  0.00    +0.105 C 
ATOM     34  H   UNL     1      -2.224   2.891  23.118  0.00  0.00    +0.149 HD
ENDROOT
BRANCH  12  16
ATOM     16  C   UNL     1      -4.711   1.487  24.879  0.00  0.00    +0.029 C 
BRANCH  16  19
ATOM     19  C   UNL     1      -5.110   2.620  23.955  0.00  0.00    +0.097 C 
BRANCH  19  21
ATOM      2  O   UNL     1      -3.913   4.369  22.894  0.00  0.00    -0.276 OA
ATOM      8  N   UNL     1      -3.274   3.844  25.066  0.00  0.00    -0.301 N 
ATOM     21  C   UNL     1      -4.050   3.691  23.916  0.00  0.00    +0.216 C 
ATOM     22  C   UNL     1      -0.977   3.491  26.786  0.00  0.00    +0.101 C 
ATOM     23  C   UNL     1      -2.252   4.890  25.121  0.00  0.00    +0.108 C 
ATOM     24  C   UNL     1      -3.414   3.054  26.296  0.00  0.00    +0.108 C 
ATOM     25  C   UNL     1      -0.892   4.305  25.492  0.00  0.00    +0.033 C 
ATOM     26  C   UNL     1      -2.077   2.430  26.691  0.00  0.00    +0.033 C 
BRANCH  22  29
ATOM      4  O   UNL     1       1.159   2.561  26.181  0.00  0.00    -0.251 OA
ATOM     29  C   UNL     1       0.345   2.838  27.051  0.00  0.00    +0.310 C 
BRANCH  29   3
ATOM      3  O   UNL     1       0.481   2.613  28.389  0.00  0.00    -0.468 OA
ATOM     33  C   UNL     1       1.826   2.612  28.877  0.00  0.00    +0.280 C 
ENDBRANCH  29   3
ENDBRANCH  22  29
ENDBRANCH  19  21
ENDBRANCH  16  19
ENDBRANCH  12  16
BRANCH   6  17
ATOM     17  C   UNL     1       1.422  -0.699  22.611  0.00  0.00    +0.120 C 
BRANCH  17  20
ATOM     20  C   UNL     1       2.855  -0.406  22.966  0.00  0.00    -0.033 A 
ATOM     27  C   UNL     1       3.625  -1.372  23.614  0.00  0.00    +0.005 A 
ATOM     28  C   UNL     1       3.414   0.832  22.646  0.00  0.00    +0.005 A 
ATOM     30  C   UNL     1       4.953  -1.101  23.943  0.00  0.00    +0.000 A 
ATOM     31  C   UNL     1       4.742   1.103  22.976  0.00  0.00    +0.000 A 
ATOM     32  C   UNL     1       5.512   0.136  23.624  0.00  0.00    +0.000 A 
ENDBRANCH  17  20
ENDBRANCH   6  17
TORSDOF 7
ENDMDL
MODEL 2
REMARK VINA RESULT:       0.8      2.177      4.165
REMARK  Name = 45360796
REMARK  9 active torsions:
REMARK  status: ('A' for Active; 'I' for Inactive)
REMARK    1  A    between atoms: O_3  and  C_29
REMARK    2  A    between atoms: O_3  and  C_33
REMARK    3  A    between atoms: N_5  and  C_18
REMARK    4  A    between atoms: N_6  and  C_17
REMARK    5  A    between atoms: C_12  and  C_16
REMARK    6  A    between atoms: C_16  and  C_19
REMARK    7  A    between atoms: C_17  and  C_20
REMARK    8  A    between atoms: C_19  and  C_21
REMARK    9  A    between atoms: C_22  and  C_29
REMARK                            x       y       z     vdW  Elec       q    Type
REMARK                         _______ _______ _______ _____ _____    ______ ____
ROOT
ATOM      1  O   UNL     1      -1.032  -0.395  26.012  0.00  0.00    -0.274 OA
ATOM      5  N   UNL     1      -1.124   2.933  24.034  0.00  0.00    -0.296 NA
ATOM      6  N   UNL     1       0.319  -0.410  23.674  0.00  0.00    -0.286 NA
ATOM      7  N   UNL     1      -0.439   1.744  26.572  0.00  0.00    -0.312 N 
ATOM      9  C   UNL     1      -0.130   1.969  23.511  0.00  0.00    +0.084 C 
ATOM     10  C   UNL     1       0.375   0.839  24.455  0.00  0.00    +0.161 C 
ATOM     11  C   UNL     1      -0.620   1.171  22.288  0.00  0.00    +0.036 C 
ATOM     12  C   UNL     1      -0.633   3.772  25.163  0.00  0.00    +0.074 C 
ATOM     13  C   UNL     1       0.297  -0.035  22.264  0.00  0.00    +0.087 C 
ATOM     14  C   UNL     1       0.176   3.011  26.232  0.00  0.00    +0.123 C 
ATOM     15  C   UNL     1      -0.443   0.648  25.729  0.00  0.00    +0.232 C 
ATOM     18  C   UNL     1      -1.645   3.787  22.953  0.00  0.00    +0.105 C 
ATOM     34  H   UNL     1      -0.899   1.654  27.472  0.00  0.00    +0.149 HD
ENDROOT
BRANCH  12  16
ATOM     16  C   UNL     1      -1.815   4.460  25.878  0.00  0.00    +0.029 C 
BRANCH  16  19
ATOM     19  C   UNL     1      -3.092   4.384  25.064  0.00  0.00    +0.097 C 
BRANCH  19  21
ATOM      2  O   UNL     1      -4.484   3.704  26.857  0.00  0.00    -0.276 OA
ATOM      8  N   UNL     1      -4.527   2.376  24.951  0.00  0.00    -0.301 N 
ATOM     21  C   UNL     1      -4.096   3.464  25.710  0.00  0.00    +0.216 C 
ATOM     22  C   UNL     1      -4.587  -0.367  24.035  0.00  0.00    +0.101 C 
ATOM     23  C   UNL     1      -5.532   1.460  25.493  0.00  0.00    +0.108 C 
ATOM     24  C   UNL     1      -4.085   2.065  23.585  0.00  0.00    +0.108 C 
ATOM     25  C   UNL     1      -5.038   0.017  25.448  0.00  0.00    +0.033 C 
ATOM     26  C   UNL     1      -3.559   0.634  23.501  0.00  0.00    +0.033 C 
BRANCH  22  29
ATOM      4  O   UNL     1      -4.644  -2.767  23.857  0.00  0.00    -0.251 OA
ATOM     29  C   UNL     1      -4.001  -1.745  24.057  0.00  0.00    +0.310 C 
BRANCH  29   3
ATOM      3  O   UNL     1      -2.668  -1.668  24.332  0.00  0.00    -0.468 OA
ATOM     33  C   UNL     1      -1.971  -2.918  24.349  0.00  0.00    +0.280 C 
ENDBRANCH  29   3
ENDBRANCH  22  29
ENDBRANCH  19  21
ENDBRANCH  16  19
ENDBRANCH  12  16
BRANCH   6  17
ATOM     17  C   UNL     1       1.406  -1.332  23.978  0.00  0.00    +0.120 C 
BRANCH  17  20
ATOM     20  C   UNL     1       2.750  -0.745  23.639  0.00  0.00    -0.033 A 
ATOM     27  C   UNL     1       3.917  -1.404  24.026  0.00  0.00    +0.005 A 
ATOM     28  C   UNL     1       2.829   0.458  22.936  0.00  0.00    +0.005 A 
ATOM     30  C   UNL     1       5.163  -0.861  23.711  0.00  0.00    +0.000 A 
ATOM     31  C   UNL     1       4.075   1.002  22.622  0.00  0.00    +0.000 A 
ATOM     32  C   UNL     1       5.242   0.342  23.010  0.00  0.00    +0.000 A 
ENDBRANCH  17  20
ENDBRANCH   6  17
TORSDOF 7
ENDMDL
MODEL 3
REMARK VINA RESULT:       0.8      1.801      2.467
REMARK  Name = 45360796
REMARK  9 active torsions:
REMARK  status: ('A' for Active; 'I' for Inactive)
REMARK    1  A    between atoms: O_3  and  C_29
REMARK    2  A    between atoms: O_3  and  C_33
REMARK    3  A    between atoms: N_5  and  C_18
REMARK    4  A    between atoms: N_6  and  C_17
REMARK    5  A    between atoms: C_12  and  C_16
REMARK    6  A    between atoms: C_16  and  C_19
REMARK    7  A    between atoms: C_17  and  C_20
REMARK    8  A    between atoms: C_19  and  C_21
REMARK    9  A    between atoms: C_22  and  C_29
REMARK                            x       y       z     vdW  Elec       q    Type
REMARK                         _______ _______ _______ _____ _____    ______ ____
ROOT
ATOM      1  O   UNL     1      -1.019   1.852  23.899  0.00  0.00    -0.274 OA
ATOM      5  N   UNL     1      -2.788  -1.452  24.872  0.00  0.00    -0.296 NA
ATOM      6  N   UNL     1       0.523  -0.361  23.761  0.00  0.00    -0.286 NA
ATOM      7  N   UNL     1      -2.909   0.829  23.111  0.00  0.00    -0.312 N 
ATOM      9  C   UNL     1      -1.471  -1.661  24.228  0.00  0.00    +0.084 C 
ATOM     10  C   UNL     1      -0.885  -0.517  23.352  0.00  0.00    +0.161 C 
ATOM     11  C   UNL     1      -0.325  -1.924  25.223  0.00  0.00    +0.036 C 
ATOM     12  C   UNL     1      -3.920  -1.283  23.918  0.00  0.00    +0.074 C 
ATOM     13  C   UNL     1       0.918  -1.600  24.420  0.00  0.00    +0.087 C 
ATOM     14  C   UNL     1      -3.621  -0.369  22.714  0.00  0.00    +0.123 C 
ATOM     15  C   UNL     1      -1.582   0.833  23.500  0.00  0.00    +0.232 C 
ATOM     18  C   UNL     1      -3.082  -2.536  25.826  0.00  0.00    +0.105 C 
ATOM     34  H   UNL     1      -3.408   1.713  23.110  0.00  0.00    +0.149 HD
ENDROOT
BRANCH  12  16
ATOM     16  C   UNL     1      -5.154  -0.707  24.644  0.00  0.00    +0.029 C 
BRANCH  16  19
ATOM     19  C   UNL     1      -4.772   0.352  25.660  0.00  0.00    +0.097 C 
BRANCH  19  21
ATOM      2  O   UNL     1      -6.248   1.798  24.499  0.00  0.00    -0.276 OA
ATOM      8  N   UNL     1      -4.555   2.812  25.725  0.00  0.00    -0.301 N 
ATOM     21  C   UNL     1      -5.264   1.713  25.239  0.00  0.00    +0.216 C 
ATOM     22  C   UNL     1      -2.617   4.958  25.670  0.00  0.00    +0.101 C 
ATOM     23  C   UNL     1      -4.996   4.168  25.396  0.00  0.00    +0.108 C 
ATOM     24  C   UNL     1      -3.383   2.744  26.608  0.00  0.00    +0.108 C 
ATOM     25  C   UNL     1      -3.859   4.976  24.774  0.00  0.00    +0.033 C 
ATOM     26  C   UNL     1      -2.212   3.521  26.011  0.00  0.00    +0.033 C 
BRANCH  22  29
ATOM      4  O   UNL     1      -1.534   6.825  24.603  0.00  0.00    -0.251 OA
ATOM     29  C   UNL     1      -1.491   5.659  24.974  0.00  0.00    +0.310 C 
BRANCH  29   3
ATOM      3  O   UNL     1      -0.443   4.801  24.827  0.00  0.00    -0.468 OA
ATOM     33  C   UNL     1       0.076   4.686  23.498  0.00  0.00    +0.280 C 
ENDBRANCH  29   3
ENDBRANCH  22  29
ENDBRANCH  19  21
ENDBRANCH  16  19
ENDBRANCH  12  16
BRANCH   6  17
ATOM     17  C   UNL     1       1.412  -0.021  22.656  0.00  0.00    +0.120 C 
BRANCH  17  20
ATOM     20  C   UNL     1       2.861  -0.108  23.055  0.00  0.00    -0.033 A 
ATOM     27  C   UNL     1       3.688   1.008  22.927  0.00  0.00    +0.005 A 
ATOM     28  C   UNL     1       3.377  -1.305  23.551  0.00  0.00    +0.005 A 
ATOM     30  C   UNL     1       5.031   0.927  23.297  0.00  0.00    +0.000 A 
ATOM     31  C   UNL     1       4.720  -1.387  23.920  0.00  0.00    +0.000 A 
ATOM     32  C   UNL     1       5.547  -0.270  23.792  0.00  0.00    +0.000 A 
ENDBRANCH  17  20
ENDBRANCH   6  17
TORSDOF 7
ENDMDL
MODEL 4
REMARK VINA RESULT:       1.6     15.374     17.997
REMARK  Name = 45360796
REMARK  9 active torsions:
REMARK  status: ('A' for Active; 'I' for Inactive)
REMARK    1  A    between atoms: O_3  and  C_29
REMARK    2  A    between atoms: O_3  and  C_33
REMARK    3  A    between atoms: N_5  and  C_18
REMARK    4  A    between atoms: N_6  and  C_17
REMARK    5  A    between atoms: C_12  and  C_16
REMARK    6  A    between atoms: C_16  and  C_19
REMARK    7  A    between atoms: C_17  and  C_20
REMARK    8  A    between atoms: C_19  and  C_21
REMARK    9  A    between atoms: C_22  and  C_29
REMARK                            x       y       z     vdW  Elec       q    Type
REMARK                         _______ _______ _______ _____ _____    ______ ____
ROOT
ATOM      1  O   UNL     1      -7.695  -8.414  13.539  0.00  0.00    -0.274 OA
ATOM      5  N   UNL     1      -7.185  -9.888   9.995  0.00  0.00    -0.296 NA
ATOM      6  N   UNL     1      -9.703  -9.984  12.649  0.00  0.00    -0.286 NA
ATOM      7  N   UNL     1      -6.025  -9.687  12.629  0.00  0.00    -0.312 N 
ATOM      9  C   UNL     1      -8.313 -10.504  10.729  0.00  0.00    +0.084 C 
ATOM     10  C   UNL     1      -8.336 -10.397  12.281  0.00  0.00    +0.161 C 
ATOM     11  C   UNL     1      -9.692  -9.933  10.347  0.00  0.00    +0.036 C 
ATOM     12  C   UNL     1      -5.856 -10.490  10.292  0.00  0.00    +0.074 C 
ATOM     13  C   UNL     1     -10.568 -10.315  11.522  0.00  0.00    +0.087 C 
ATOM     14  C   UNL     1      -5.594 -10.781  11.782  0.00  0.00    +0.123 C 
ATOM     15  C   UNL     1      -7.353  -9.390  12.873  0.00  0.00    +0.232 C 
ATOM     18  C   UNL     1      -7.437  -9.897   8.544  0.00  0.00    +0.105 C 
ATOM     34  H   UNL     1      -5.319  -9.100  13.061  0.00  0.00    +0.149 HD
ENDROOT
BRANCH  12  16
ATOM     16  C   UNL     1      -4.723  -9.568   9.793  0.00  0.00    +0.029 C 
BRANCH  16  19
ATOM     19  C   UNL     1      -3.365 -10.236   9.887  0.00  0.00    +0.097 C 
BRANCH  19  21
ATOM      2  O   UNL     1      -1.539  -8.733   9.744  0.00  0.00    -0.276 OA
ATOM      8  N   UNL     1      -2.368  -9.158  11.873  0.00  0.00    -0.301 N 
ATOM     21  C   UNL     1      -2.341  -9.307  10.486  0.00  0.00    +0.216 C 
ATOM     22  C   UNL     1      -1.582  -9.649  14.613  0.00  0.00    +0.101 C 
ATOM     23  C   UNL     1      -1.433  -8.241  12.527  0.00  0.00    +0.108 C 
ATOM     24  C   UNL     1      -3.309  -9.827  12.781  0.00  0.00    +0.108 C 
ATOM     25  C   UNL     1      -0.644  -8.954  13.622  0.00  0.00    +0.033 C 
ATOM     26  C   UNL     1      -2.559 -10.574  13.881  0.00  0.00    +0.033 C 
BRANCH  22  29
ATOM      4  O   UNL     1       0.386 -10.780  15.413  0.00  0.00    -0.251 OA
ATOM     29  C   UNL     1      -0.773 -10.432  15.600  0.00  0.00    +0.310 C 
BRANCH  29   3
ATOM      3  O   UNL     1      -1.525 -10.685  16.707  0.00  0.00    -0.468 OA
ATOM     33  C   UNL     1      -2.873 -10.206  16.656  0.00  0.00    +0.280 C 
ENDBRANCH  29   3
ENDBRANCH  22  29
ENDBRANCH  19  21
ENDBRANCH  16  19
ENDBRANCH  12  16
BRANCH   6  17
ATOM     17  C   UNL     1     -10.172 -10.581  13.893  0.00  0.00    +0.120 C 
BRANCH  17  20
ATOM     20  C   UNL     1      -9.820  -9.736  15.088  0.00  0.00    -0.033 A 
ATOM     27  C   UNL     1     -10.523  -8.558  15.341  0.00  0.00    +0.005 A 
ATOM     28  C   UNL     1      -8.790 -10.130  15.943  0.00  0.00    +0.005 A 
ATOM     30  C   UNL     1     -10.197  -7.775  16.448  0.00  0.00    +0.000 A 
ATOM     31  C   UNL     1      -8.463  -9.346  17.049  0.00  0.00    +0.000 A 
ATOM     32  C   UNL     1      -9.168  -8.168  17.302  0.00  0.00    +0.000 A 
ENDBRANCH  17  20
ENDBRANCH   6  17
TORSDOF 7
ENDMDL
MODEL 5
REMARK VINA RESULT:       1.8      1.775      2.743
REMARK  Name = 45360796
REMARK  9 active torsions:
REMARK  status: ('A' for Active; 'I' for Inactive)
REMARK    1  A    between atoms: O_3  and  C_29
REMARK    2  A    between atoms: O_3  and  C_33
REMARK    3  A    between atoms: N_5  and  C_18
REMARK    4  A    between atoms: N_6  and  C_17
REMARK    5  A    between atoms: C_12  and  C_16
REMARK    6  A    between atoms: C_16  and  C_19
REMARK    7  A    between atoms: C_17  and  C_20
REMARK    8  A    between atoms: C_19  and  C_21
REMARK    9  A    between atoms: C_22  and  C_29
REMARK                            x       y       z     vdW  Elec       q    Type
REMARK                         _______ _______ _______ _____ _____    ______ ____
ROOT
ATOM      1  O   UNL     1      -1.193  -3.075  23.731  0.00  0.00    -0.274 OA
ATOM      5  N   UNL     1      -2.748   0.463  23.962  0.00  0.00    -0.296 NA
ATOM      6  N   UNL     1       0.556  -1.033  23.481  0.00  0.00    -0.286 NA
ATOM      7  N   UNL     1      -2.463  -2.056  25.339  0.00  0.00    -0.312 N 
ATOM      9  C   UNL     1      -1.269   0.468  24.028  0.00  0.00    +0.084 C 
ATOM     10  C   UNL     1      -0.541  -0.842  24.447  0.00  0.00    +0.161 C 
ATOM     11  C   UNL     1      -0.586   0.802  22.689  0.00  0.00    +0.036 C 
ATOM     12  C   UNL     1      -3.422   0.227  25.269  0.00  0.00    +0.074 C 
ATOM     13  C   UNL     1       0.818   0.264  22.867  0.00  0.00    +0.087 C 
ATOM     14  C   UNL     1      -2.796  -0.888  26.130  0.00  0.00    +0.123 C 
ATOM     15  C   UNL     1      -1.412  -2.095  24.442  0.00  0.00    +0.232 C 
ATOM     18  C   UNL     1      -3.249   1.704  23.347  0.00  0.00    +0.105 C 
ATOM     34  H   UNL     1      -3.034  -2.889  25.441  0.00  0.00    +0.149 HD
ENDROOT
BRANCH  12  16
ATOM     16  C   UNL     1      -4.907  -0.133  25.053  0.00  0.00    +0.029 C 
BRANCH  16  19
ATOM     19  C   UNL     1      -5.832   0.782  25.833  0.00  0.00    +0.097 C 
BRANCH  19  21
ATOM      2  O   UNL     1      -6.772   2.336  24.312  0.00  0.00    -0.276 OA
ATOM      8  N   UNL     1      -5.024   3.108  25.634  0.00  0.00    -0.301 N 
ATOM     21  C   UNL     1      -5.925   2.140  25.188  0.00  0.00    +0.216 C 
ATOM     22  C   UNL     1      -2.624   4.720  25.597  0.00  0.00    +0.101 C 
ATOM     23  C   UNL     1      -5.080   4.464  25.087  0.00  0.00    +0.108 C 
ATOM     24  C   UNL     1      -4.008   2.905  26.675  0.00  0.00    +0.108 C 
ATOM     25  C   UNL     1      -3.719   4.888  24.540  0.00  0.00    +0.033 C 
ATOM     26  C   UNL     1      -2.624   3.296  26.160  0.00  0.00    +0.033 C 
BRANCH  22  29
ATOM      4  O   UNL     1      -0.832   6.162  24.886  0.00  0.00    -0.251 OA
ATOM     29  C   UNL     1      -1.292   5.032  24.988  0.00  0.00    +0.310 C 
BRANCH  29   3
ATOM      3  O   UNL     1      -0.698   3.876  24.577  0.00  0.00    -0.468 OA
ATOM     33  C   UNL     1       0.128   3.231  25.552  0.00  0.00    +0.280 C 
ENDBRANCH  29   3
ENDBRANCH  22  29
ENDBRANCH  19  21
ENDBRANCH  16  19
ENDBRANCH  12  16
BRANCH   6  17
ATOM     17  C   UNL     1       1.755  -1.610  24.075  0.00  0.00    +0.120 C 
BRANCH  17  20
ATOM     20  C   UNL     1       2.997  -0.862  23.671  0.00  0.00    -0.033 A 
ATOM     27  C   UNL     1       4.254  -1.355  24.022  0.00  0.00    +0.005 A 
ATOM     28  C   UNL     1       2.892   0.325  22.946  0.00  0.00    +0.005 A 
ATOM     30  C   UNL     1       5.406  -0.662  23.648  0.00  0.00    +0.000 A 
ATOM     31  C   UNL     1       4.043   1.018  22.572  0.00  0.00    +0.000 A 
ATOM     32  C   UNL     1       5.300   0.524  22.923  0.00  0.00    +0.000 A 
ENDBRANCH  17  20
ENDBRANCH   6  17
TORSDOF 7
ENDMDL
MODEL 6
REMARK VINA RESULT:       2.8     14.452     17.305
REMARK  Name = 45360796
REMARK  9 active torsions:
REMARK  status: ('A' for Active; 'I' for Inactive)
REMARK    1  A    between atoms: O_3  and  C_29
REMARK    2  A    between atoms: O_3  and  C_33
REMARK    3  A    between atoms: N_5  and  C_18
REMARK    4  A    between atoms: N_6  and  C_17
REMARK    5  A    between atoms: C_12  and  C_16
REMARK    6  A    between atoms: C_16  and  C_19
REMARK    7  A    between atoms: C_17  and  C_20
REMARK    8  A    between atoms: C_19  and  C_21
REMARK    9  A    between atoms: C_22  and  C_29
REMARK                            x       y       z     vdW  Elec       q    Type
REMARK                         _______ _______ _______ _____ _____    ______ ____
ROOT
ATOM      1  O   UNL     1      -7.559  -8.337  15.408  0.00  0.00    -0.274 OA
ATOM      5  N   UNL     1      -5.233 -10.091  12.856  0.00  0.00    -0.296 NA
ATOM      6  N   UNL     1      -8.789 -10.047  13.718  0.00  0.00    -0.286 NA
ATOM      7  N   UNL     1      -5.684  -9.625  15.667  0.00  0.00    -0.312 N 
ATOM      9  C   UNL     1      -6.589 -10.681  12.914  0.00  0.00    +0.084 C 
ATOM     10  C   UNL     1      -7.449 -10.442  14.189  0.00  0.00    +0.161 C 
ATOM     11  C   UNL     1      -7.530 -10.193  11.796  0.00  0.00    +0.036 C 
ATOM     12  C   UNL     1      -4.288 -10.619  13.879  0.00  0.00    +0.074 C 
ATOM     13  C   UNL     1      -8.910 -10.502  12.338  0.00  0.00    +0.087 C 
ATOM     14  C   UNL     1      -4.882 -10.772  15.293  0.00  0.00    +0.123 C 
ATOM     15  C   UNL     1      -6.927  -9.355  15.125  0.00  0.00    +0.232 C 
ATOM     18  C   UNL     1      -4.657 -10.232  11.508  0.00  0.00    +0.105 C 
ATOM     34  H   UNL     1      -5.316  -8.979  16.359  0.00  0.00    +0.149 HD
ENDROOT
BRANCH  12  16
ATOM     16  C   UNL     1      -3.050  -9.704  13.993  0.00  0.00    +0.029 C 
BRANCH  16  19
ATOM     19  C   UNL     1      -1.772 -10.431  13.621  0.00  0.00    +0.097 C 
BRANCH  19  21
ATOM      2  O   UNL     1      -1.430 -10.781  11.303  0.00  0.00    -0.276 OA
ATOM      8  N   UNL     1      -0.683  -8.757  12.167  0.00  0.00    -0.301 N 
ATOM     21  C   UNL     1      -1.284 -10.014  12.258  0.00  0.00    +0.216 C 
ATOM     22  C   UNL     1       1.492  -6.854  12.068  0.00  0.00    +0.101 C 
ATOM     23  C   UNL     1      -0.222  -8.262  10.869  0.00  0.00    +0.108 C 
ATOM     24  C   UNL     1      -0.497  -7.822  13.284  0.00  0.00    +0.108 C 
ATOM     25  C   UNL     1       1.247  -7.852  10.932  0.00  0.00    +0.033 C 
ATOM     26  C   UNL     1       0.968  -7.404  13.398  0.00  0.00    +0.033 C 
BRANCH  22  29
ATOM      4  O   UNL     1       3.431  -5.447  12.297  0.00  0.00    -0.251 OA
ATOM     29  C   UNL     1       2.959  -6.569  12.172  0.00  0.00    +0.310 C 
BRANCH  29   3
ATOM      3  O   UNL     1       3.656  -7.739  12.106  0.00  0.00    -0.468 OA
ATOM     33  C   UNL     1       5.072  -7.601  11.950  0.00  0.00    +0.280 C 
ENDBRANCH  29   3
ENDBRANCH  22  29
ENDBRANCH  19  21
ENDBRANCH  16  19
ENDBRANCH  12  16
BRANCH   6  17
ATOM     17  C   UNL     1      -9.869 -10.551  14.558  0.00  0.00    +0.120 C 
BRANCH  17  20
ATOM     20  C   UNL     1     -10.155  -9.631  15.715  0.00  0.00    -0.033 A 
ATOM     27  C   UNL     1     -10.259 -10.147  17.007  0.00  0.00    +0.005 A 
ATOM     28  C   UNL     1     -10.316  -8.263  15.496  0.00  0.00    +0.005 A 
ATOM     30  C   UNL     1     -10.524  -9.296  18.080  0.00  0.00    +0.000 A 
ATOM     31  C   UNL     1     -10.582  -7.411  16.568  0.00  0.00    +0.000 A 
ATOM     32  C   UNL     1     -10.686  -7.928  17.860  0.00  0.00    +0.000 A 
ENDBRANCH  17  20
ENDBRANCH   6  17
TORSDOF 7
ENDMDL
MODEL 7
REMARK VINA RESULT:       2.9     15.820     18.371
REMARK  Name = 45360796
REMARK  9 active torsions:
REMARK  status: ('A' for Active; 'I' for Inactive)
REMARK    1  A    between atoms: O_3  and  C_29
REMARK    2  A    between atoms: O_3  and  C_33
REMARK    3  A    between atoms: N_5  and  C_18
REMARK    4  A    between atoms: N_6  and  C_17
REMARK    5  A    between atoms: C_12  and  C_16
REMARK    6  A    between atoms: C_16  and  C_19
REMARK    7  A    between atoms: C_17  and  C_20
REMARK    8  A    between atoms: C_19  and  C_21
REMARK    9  A    between atoms: C_22  and  C_29
REMARK                            x       y       z     vdW  Elec       q    Type
REMARK                         _______ _______ _______ _____ _____    ______ ____
ROOT
ATOM      1  O   UNL     1      -7.321  -9.374  13.604  0.00  0.00    -0.274 OA
ATOM      5  N   UNL     1      -8.489  -8.270  10.081  0.00  0.00    -0.296 NA
ATOM      6  N   UNL     1      -9.846  -8.425  13.476  0.00  0.00    -0.286 NA
ATOM      7  N   UNL     1      -7.419 -10.476  11.600  0.00  0.00    -0.312 N 
ATOM      9  C   UNL     1      -9.593  -8.355  11.063  0.00  0.00    +0.084 C 
ATOM     10  C   UNL     1      -9.391  -9.236  12.331  0.00  0.00    +0.161 C 
ATOM     11  C   UNL     1      -9.990  -6.998  11.674  0.00  0.00    +0.036 C 
ATOM     12  C   UNL     1      -8.153  -9.562   9.419  0.00  0.00    +0.074 C 
ATOM     13  C   UNL     1     -10.719  -7.384  12.945  0.00  0.00    +0.087 C 
ATOM     14  C   UNL     1      -8.106 -10.780  10.361  0.00  0.00    +0.123 C 
ATOM     15  C   UNL     1      -7.953  -9.673  12.591  0.00  0.00    +0.232 C 
ATOM     18  C   UNL     1      -8.767  -7.236   9.070  0.00  0.00    +0.105 C 
ATOM     34  H   UNL     1      -6.493 -10.866  11.750  0.00  0.00    +0.149 HD
ENDROOT
BRANCH  12  16
ATOM     16  C   UNL     1      -6.783  -9.467   8.714  0.00  0.00    +0.029 C 
BRANCH  16  19
ATOM     19  C   UNL     1      -5.962 -10.728   8.898  0.00  0.00    +0.097 C 
BRANCH  19  21
ATOM      2  O   UNL     1      -3.723 -10.667   8.124  0.00  0.00    -0.276 OA
ATOM      8  N   UNL     1      -4.107  -9.827  10.257  0.00  0.00    -0.301 N 
ATOM     21  C   UNL     1      -4.498 -10.408   9.050  0.00  0.00    +0.216 C 
ATOM     22  C   UNL     1      -3.043  -9.749  12.945  0.00  0.00    +0.101 C 
ATOM     23  C   UNL     1      -2.708  -9.448  10.464  0.00  0.00    +0.108 C 
ATOM     24  C   UNL     1      -5.004  -9.506  11.374  0.00  0.00    +0.108 C 
ATOM     25  C   UNL     1      -2.156 -10.077  11.741  0.00  0.00    +0.033 C 
ATOM     26  C   UNL     1      -4.499 -10.137  12.670  0.00  0.00    +0.033 C 
BRANCH  22  29
ATOM      4  O   UNL     1      -1.358 -10.758  14.337  0.00  0.00    -0.251 OA
ATOM     29  C   UNL     1      -2.535 -10.479  14.150  0.00  0.00    +0.310 C 
BRANCH  29   3
ATOM      3  O   UNL     1      -3.578 -10.771  14.978  0.00  0.00    -0.468 OA
ATOM     33  C   UNL     1      -3.332 -10.564  16.373  0.00  0.00    +0.280 C 
ENDBRANCH  29   3
ENDBRANCH  22  29
ENDBRANCH  19  21
ENDBRANCH  16  19
ENDBRANCH  12  16
BRANCH   6  17
ATOM     17  C   UNL     1     -10.498  -9.209  14.516  0.00  0.00    +0.120 C 
BRANCH  17  20
ATOM     20  C   UNL     1      -9.655  -9.303  15.760  0.00  0.00    -0.033 A 
ATOM     27  C   UNL     1      -8.997 -10.494  16.068  0.00  0.00    +0.005 A 
ATOM     28  C   UNL     1      -9.532  -8.200  16.604  0.00  0.00    +0.005 A 
ATOM     30  C   UNL     1      -8.215 -10.582  17.220  0.00  0.00    +0.000 A 
ATOM     31  C   UNL     1      -8.751  -8.288  17.757  0.00  0.00    +0.000 A 
ATOM     32  C   UNL     1      -8.093  -9.479  18.065  0.00  0.00    +0.000 A 
ENDBRANCH  17  20
ENDBRANCH   6  17
TORSDOF 7
ENDMDL
MODEL 8
REMARK VINA RESULT:       3.4      1.917      5.786
REMARK  Name = 45360796
REMARK  9 active torsions:
REMARK  status: ('A' for Active; 'I' for Inactive)
REMARK    1  A    between atoms: O_3  and  C_29
REMARK    2  A    between atoms: O_3  and  C_33
REMARK    3  A    between atoms: N_5  and  C_18
REMARK    4  A    between atoms: N_6  and  C_17
REMARK    5  A    between atoms: C_12  and  C_16
REMARK    6  A    between atoms: C_16  and  C_19
REMARK    7  A    between atoms: C_17  and  C_20
REMARK    8  A    between atoms: C_19  and  C_21
REMARK    9  A    between atoms: C_22  and  C_29
REMARK                            x       y       z     vdW  Elec       q    Type
REMARK                         _______ _______ _______ _____ _____    ______ ____
ROOT
ATOM      1  O   UNL     1      -3.589   3.332  22.342  0.00  0.00    -0.274 OA
ATOM      5  N   UNL     1      -5.442   0.924  24.742  0.00  0.00    -0.296 NA
ATOM      6  N   UNL     1      -4.375   4.423  24.684  0.00  0.00    -0.286 NA
ATOM      7  N   UNL     1      -3.005   1.313  23.247  0.00  0.00    -0.312 N 
ATOM      9  C   UNL     1      -5.048   2.199  25.382  0.00  0.00    +0.084 C 
ATOM     10  C   UNL     1      -3.899   3.028  24.738  0.00  0.00    +0.161 C 
ATOM     11  C   UNL     1      -6.186   3.234  25.463  0.00  0.00    +0.036 C 
ATOM     12  C   UNL     1      -4.376  -0.117  24.735  0.00  0.00    +0.074 C 
ATOM     13  C   UNL     1      -5.455   4.546  25.657  0.00  0.00    +0.087 C 
ATOM     14  C   UNL     1      -2.970   0.398  24.371  0.00  0.00    +0.123 C 
ATOM     15  C   UNL     1      -3.506   2.599  23.327  0.00  0.00    +0.232 C 
ATOM     18  C   UNL     1      -6.672   0.390  25.352  0.00  0.00    +0.105 C 
ATOM     34  H   UNL     1      -2.652   0.994  22.350  0.00  0.00    +0.149 HD
ENDROOT
BRANCH  12  16
ATOM     16  C   UNL     1      -4.729  -1.244  23.742  0.00  0.00    +0.029 C 
BRANCH  16  19
ATOM     19  C   UNL     1      -4.120  -2.571  24.150  0.00  0.00    +0.097 C 
BRANCH  19  21
ATOM      2  O   UNL     1      -3.278  -2.309  26.349  0.00  0.00    -0.276 OA
ATOM      8  N   UNL     1      -1.714  -2.279  24.631  0.00  0.00    -0.301 N 
ATOM     21  C   UNL     1      -3.007  -2.376  25.147  0.00  0.00    +0.216 C 
ATOM     22  C   UNL     1       0.680  -0.953  23.696  0.00  0.00    +0.101 C 
ATOM     23  C   UNL     1      -0.575  -2.131  25.538  0.00  0.00    +0.108 C 
ATOM     24  C   UNL     1      -1.361  -2.356  23.207  0.00  0.00    +0.108 C 
ATOM     25  C   UNL     1       0.262  -0.909  25.169  0.00  0.00    +0.033 C 
ATOM     26  C   UNL     1      -0.540  -1.138  22.789  0.00  0.00    +0.033 C 
BRANCH  22  29
ATOM      4  O   UNL     1       1.089   1.418  23.776  0.00  0.00    -0.251 OA
ATOM     29  C   UNL     1       1.396   0.315  23.344  0.00  0.00    +0.310 C 
BRANCH  29   3
ATOM      3  O   UNL     1       2.416   0.037  22.484  0.00  0.00    -0.468 OA
ATOM     33  C   UNL     1       3.633   0.753  22.724  0.00  0.00    +0.280 C 
ENDBRANCH  29   3
ENDBRANCH  22  29
ENDBRANCH  19  21
ENDBRANCH  16  19
ENDBRANCH  12  16
BRANCH   6  17
ATOM     17  C   UNL     1      -3.319   5.402  24.911  0.00  0.00    +0.120 C 
BRANCH  17  20
ATOM     20  C   UNL     1      -1.994   4.744  25.189  0.00  0.00    -0.033 A 
ATOM     27  C   UNL     1      -1.900   3.747  26.159  0.00  0.00    +0.005 A 
ATOM     28  C   UNL     1      -0.859   5.131  24.475  0.00  0.00    +0.005 A 
ATOM     30  C   UNL     1      -0.672   3.136  26.416  0.00  0.00    +0.000 A 
ATOM     31  C   UNL     1       0.369   4.522  24.733  0.00  0.00    +0.000 A 
ATOM     32  C   UNL     1       0.462   3.524  25.703  0.00  0.00    +0.000 A 
ENDBRANCH  17  20
ENDBRANCH   6  17
TORSDOF 7
ENDMDL
MODEL 9
REMARK VINA RESULT:       3.6      2.103      4.211
REMARK  Name = 45360796
REMARK  9 active torsions:
REMARK  status: ('A' for Active; 'I' for Inactive)
REMARK    1  A    between atoms: O_3  and  C_29
REMARK    2  A    between atoms: O_3  and  C_33
REMARK    3  A    between atoms: N_5  and  C_18
REMARK    4  A    between atoms: N_6  and  C_17
REMARK    5  A    between atoms: C_12  and  C_16
REMARK    6  A    between atoms: C_16  and  C_19
REMARK    7  A    between atoms: C_17  and  C_20
REMARK    8  A    between atoms: C_19  and  C_21
REMARK    9  A    between atoms: C_22  and  C_29
REMARK                            x       y       z     vdW  Elec       q    Type
REMARK                         _______ _______ _______ _____ _____    ______ ____
ROOT
ATOM      1  O   UNL     1      -1.510   1.354  26.455  0.00  0.00    -0.274 OA
ATOM      5  N   UNL     1      -3.537   3.194  23.716  0.00  0.00    -0.296 NA
ATOM      6  N   UNL     1      -0.286   1.549  24.055  0.00  0.00    -0.286 NA
ATOM      7  N   UNL     1      -2.443   3.443  26.374  0.00  0.00    -0.312 N 
ATOM      9  C   UNL     1      -2.123   2.966  23.343  0.00  0.00    +0.084 C 
ATOM     10  C   UNL     1      -1.089   2.712  24.478  0.00  0.00    +0.161 C 
ATOM     11  C   UNL     1      -1.908   1.742  22.432  0.00  0.00    +0.036 C 
ATOM     12  C   UNL     1      -3.770   4.422  24.526  0.00  0.00    +0.074 C 
ATOM     13  C   UNL     1      -0.438   1.426  22.609  0.00  0.00    +0.087 C 
ATOM     14  C   UNL     1      -2.743   4.662  25.650  0.00  0.00    +0.123 C 
ATOM     15  C   UNL     1      -1.692   2.409  25.846  0.00  0.00    +0.232 C 
ATOM     18  C   UNL     1      -4.400   3.199  22.522  0.00  0.00    +0.105 C 
ATOM     34  H   UNL     1      -2.807   3.335  27.315  0.00  0.00    +0.149 HD
ENDROOT
BRANCH  12  16
ATOM     16  C   UNL     1      -5.169   4.383  25.176  0.00  0.00    +0.029 C 
BRANCH  16  19
ATOM     19  C   UNL     1      -5.860   3.051  24.955  0.00  0.00    +0.097 C 
BRANCH  19  21
ATOM      2  O   UNL     1      -5.384   2.422  27.189  0.00  0.00    -0.276 OA
ATOM      8  N   UNL     1      -5.227   0.748  25.585  0.00  0.00    -0.301 N 
ATOM     21  C   UNL     1      -5.471   2.053  26.015  0.00  0.00    +0.216 C 
ATOM     22  C   UNL     1      -3.639  -1.519  24.746  0.00  0.00    +0.101 C 
ATOM     23  C   UNL     1      -4.885  -0.289  26.560  0.00  0.00    +0.108 C 
ATOM     24  C   UNL     1      -5.324   0.279  24.197  0.00  0.00    +0.108 C 
ATOM     25  C   UNL     1      -3.582  -0.987  26.181  0.00  0.00    +0.033 C 
ATOM     26  C   UNL     1      -4.028  -0.406  23.768  0.00  0.00    +0.033 C 
BRANCH  22  29
ATOM      4  O   UNL     1      -2.152  -3.180  23.839  0.00  0.00    -0.251 OA
ATOM     29  C   UNL     1      -2.306  -2.089  24.372  0.00  0.00    +0.310 C 
BRANCH  29   3
ATOM      3  O   UNL     1      -1.323  -1.211  24.719  0.00  0.00    -0.468 OA
ATOM     33  C   UNL     1      -0.166  -1.794  25.328  0.00  0.00    +0.280 C 
ENDBRANCH  29   3
ENDBRANCH  22  29
ENDBRANCH  19  21
ENDBRANCH  16  19
ENDBRANCH  12  16
BRANCH   6  17
ATOM     17  C   UNL     1       1.113   1.636  24.454  0.00  0.00    +0.120 C 
BRANCH  17  20
ATOM     20  C   UNL     1       2.030   1.043  23.418  0.00  0.00    -0.033 A 
ATOM     27  C   UNL     1       3.347   1.489  23.315  0.00  0.00    +0.005 A 
ATOM     28  C   UNL     1       1.562   0.047  22.560  0.00  0.00    +0.005 A 
ATOM     30  C   UNL     1       4.198   0.940  22.355  0.00  0.00    +0.000 A 
ATOM     31  C   UNL     1       2.412  -0.501  21.599  0.00  0.00    +0.000 A 
ATOM     32  C   UNL     1       3.730  -0.055  21.497  0.00  0.00    +0.000 A 
ENDBRANCH  17  20
ENDBRANCH   6  17
TORSDOF 7
ENDMDL
MODEL 10
REMARK VINA RESULT:       3.8      2.135      3.704
REMARK  Name = 45360796
REMARK  9 active torsions:
REMARK  status: ('A' for Active; 'I' for Inactive)
REMARK    1  A    between atoms: O_3  and  C_29
REMARK    2  A    between atoms: O_3  and  C_33
REMARK    3  A    between atoms: N_5  and  C_18
REMARK    4  A    between atoms: N_6  and  C_17
REMARK    5  A    between atoms: C_12  and  C_16
REMARK    6  A    between atoms: C_16  and  C_19
REMARK    7  A    between atoms: C_17  and  C_20
REMARK    8  A    between atoms: C_19  and  C_21
REMARK    9  A    between atoms: C_22  and  C_29
REMARK                            x       y       z     vdW  Elec       q    Type
REMARK                         _______ _______ _______ _____ _____    ______ ____
ROOT
ATOM      1  O   UNL     1       1.942   2.264  24.270  0.00  0.00    -0.274 OA
ATOM      5  N   UNL     1      -1.775   1.758  25.229  0.00  0.00    -0.296 NA
ATOM      6  N   UNL     1       1.020  -0.261  24.005  0.00  0.00    -0.286 NA
ATOM      7  N   UNL     1       0.016   3.259  23.537  0.00  0.00    -0.312 N 
ATOM      9  C   UNL     1      -1.190   0.596  24.523  0.00  0.00    +0.084 C 
ATOM     10  C   UNL     1       0.081   0.820  23.653  0.00  0.00    +0.161 C 
ATOM     11  C   UNL     1      -0.742  -0.542  25.460  0.00  0.00    +0.036 C 
ATOM     12  C   UNL     1      -2.291   2.828  24.331  0.00  0.00    +0.074 C 
ATOM     13  C   UNL     1       0.236  -1.330  24.613  0.00  0.00    +0.087 C 
ATOM     14  C   UNL     1      -1.375   3.172  23.140  0.00  0.00    +0.123 C 
ATOM     15  C   UNL     1       0.783   2.158  23.869  0.00  0.00    +0.232 C 
ATOM     18  C   UNL     1      -2.828   1.326  26.165  0.00  0.00    +0.105 C 
ATOM     34  H   UNL     1       0.451   4.175  23.583  0.00  0.00    +0.149 HD
ENDROOT
BRANCH  12  16
ATOM     16  C   UNL     1      -2.529   4.130  25.125  0.00  0.00    +0.029 C 
BRANCH  16  19
ATOM     19  C   UNL     1      -3.930   4.672  24.919  0.00  0.00    +0.097 C 
BRANCH  19  21
ATOM      2  O   UNL     1      -5.511   3.985  26.545  0.00  0.00    -0.276 OA
ATOM      8  N   UNL     1      -5.244   2.591  24.705  0.00  0.00    -0.301 N 
ATOM     21  C   UNL     1      -4.966   3.726  25.469  0.00  0.00    +0.216 C 
ATOM     22  C   UNL     1      -5.058  -0.181  23.903  0.00  0.00    +0.101 C 
ATOM     23  C   UNL     1      -6.268   1.645  25.151  0.00  0.00    +0.108 C 
ATOM     24  C   UNL     1      -4.614   2.256  23.421  0.00  0.00    +0.108 C 
ATOM     25  C   UNL     1      -5.706   0.228  25.229  0.00  0.00    +0.033 C 
ATOM     26  C   UNL     1      -4.016   0.852  23.464  0.00  0.00    +0.033 C 
BRANCH  22  29
ATOM      4  O   UNL     1      -4.414  -2.387  23.188  0.00  0.00    -0.251 OA
ATOM     29  C   UNL     1      -4.417  -1.526  24.057  0.00  0.00    +0.310 C 
BRANCH  29   3
ATOM      3  O   UNL     1      -3.854  -1.623  25.294  0.00  0.00    -0.468 OA
ATOM     33  C   UNL     1      -3.215  -2.871  25.583  0.00  0.00    +0.280 C 
ENDBRANCH  29   3
ENDBRANCH  22  29
ENDBRANCH  19  21
ENDBRANCH  16  19
ENDBRANCH  12  16
BRANCH   6  17
ATOM     17  C   UNL     1       1.807  -0.734  22.872  0.00  0.00    +0.120 C 
BRANCH  17  20
ATOM     20  C   UNL     1       3.284  -0.564  23.105  0.00  0.00    -0.033 A 
ATOM     27  C   UNL     1       4.000  -1.545  23.790  0.00  0.00    +0.005 A 
ATOM     28  C   UNL     1       3.938   0.576  22.635  0.00  0.00    +0.005 A 
ATOM     30  C   UNL     1       5.369  -1.388  24.006  0.00  0.00    +0.000 A 
ATOM     31  C   UNL     1       5.307   0.734  22.851  0.00  0.00    +0.000 A 
ATOM     32  C   UNL     1       6.022  -0.249  23.537  0.00  0.00    +0.000 A 
ENDBRANCH  17  20
ENDBRANCH   6  17
TORSDOF 7
ENDMDL
