MODEL 1
REMARK VINA RESULT:      -3.0      0.000      0.000
REMARK  Name = 75368543
REMARK  4 active torsions:
REMARK  status: ('A' for Active; 'I' for Inactive)
REMARK    1  A    between atoms: O_2  and  C_20
REMARK    2  A    between atoms: N_5  and  C_13
REMARK    3  A    between atoms: C_13  and  C_14
REMARK    4  A    between atoms: C_19  and  C_20
REMARK                            x       y       z     vdW  Elec       q    Type
REMARK                         _______ _______ _______ _____ _____    ______ ____
ROOT
ATOM      1  O   UNL     1      -1.457  -3.643  23.326  0.00  0.00    -0.253 OA
ATOM      4  N   UNL     1      -2.743  -2.119  24.578  0.00  0.00    -0.279 N 
ATOM      5  N   UNL     1      -4.605  -0.089  25.139  0.00  0.00    -0.295 NA
ATOM      6  N   UNL     1      -0.552  -2.315  25.037  0.00  0.00    -0.297 N 
ATOM      7  C   UNL     1      -2.537  -1.280  25.739  0.00  0.00    +0.109 C 
ATOM      8  C   UNL     1      -3.191   0.086  25.531  0.00  0.00    +0.109 C 
ATOM      9  C   UNL     1      -4.072  -2.243  24.019  0.00  0.00    +0.125 C 
ATOM     10  C   UNL     1      -1.018  -1.248  25.894  0.00  0.00    +0.129 C 
ATOM     11  C   UNL     1      -4.713  -0.860  23.884  0.00  0.00    +0.104 C 
ATOM     12  C   UNL     1      -1.579  -2.799  24.205  0.00  0.00    +0.303 C 
ATOM     21  H   UNL     1       0.414  -2.621  24.978  0.00  0.00    +0.150 HD
ENDROOT
BRANCH   5  13
ATOM     13  C   UNL     1      -5.258   1.212  24.995  0.00  0.00    +0.119 C 
BRANCH  13  14
ATOM     14  C   UNL     1      -4.261   2.341  24.985  0.00  0.00    -0.033 A 
ATOM     15  C   UNL     1      -4.162   3.194  26.083  0.00  0.00    +0.006 A 
ATOM     16  C   UNL     1      -3.436   2.533  23.877  0.00  0.00    +0.006 A 
ATOM     17  C   UNL     1      -3.239   4.239  26.074  0.00  0.00    +0.015 A 
ATOM     18  C   UNL     1      -2.513   3.578  23.868  0.00  0.00    +0.015 A 
ATOM     19  C   UNL     1      -2.414   4.431  24.967  0.00  0.00    +0.059 A 
BRANCH  19  20
ATOM      3  O   UNL     1      -1.704   6.702  25.220  0.00  0.00    -0.245 OA
ATOM     20  C   UNL     1      -1.451   5.521  24.956  0.00  0.00    +0.337 C 
BRANCH  20   2
ATOM      2  O   UNL     1      -0.199   5.107  24.620  0.00  0.00    -0.477 OA
ATOM     22  H   UNL     1      -0.187   4.167  24.344  0.00  0.00    +0.295 HD
ENDBRANCH  20   2
ENDBRANCH  19  20
ENDBRANCH  13  14
ENDBRANCH   5  13
TORSDOF 4
ENDMDL
MODEL 2
REMARK VINA RESULT:      -3.0      3.823      5.961
REMARK  Name = 75368543
REMARK  4 active torsions:
REMARK  status: ('A' for Active; 'I' for Inactive)
REMARK    1  A    between atoms: O_2  and  C_20
REMARK    2  A    between atoms: N_5  and  C_13
REMARK    3  A    between atoms: C_13  and  C_14
REMARK    4  A    between atoms: C_19  and  C_20
REMARK                            x       y       z     vdW  Elec       q    Type
REMARK                         _______ _______ _______ _____ _____    ______ ____
ROOT
ATOM      1  O   UNL     1      -6.228   3.886  25.955  0.00  0.00    -0.253 OA
ATOM      4  N   UNL     1      -4.331   2.894  24.977  0.00  0.00    -0.279 N 
ATOM      5  N   UNL     1      -2.523   0.891  24.188  0.00  0.00    -0.295 NA
ATOM      6  N   UNL     1      -4.063   4.761  26.198  0.00  0.00    -0.297 N 
ATOM      7  C   UNL     1      -2.932   3.232  24.825  0.00  0.00    +0.109 C 
ATOM      8  C   UNL     1      -2.059   1.998  25.050  0.00  0.00    +0.109 C 
ATOM      9  C   UNL     1      -4.859   1.734  24.291  0.00  0.00    +0.125 C 
ATOM     10  C   UNL     1      -2.724   4.359  25.833  0.00  0.00    +0.129 C 
ATOM     11  C   UNL     1      -3.925   0.538  24.491  0.00  0.00    +0.104 C 
ATOM     12  C   UNL     1      -5.026   3.847  25.730  0.00  0.00    +0.303 C 
ATOM     21  H   UNL     1      -4.282   5.555  26.792  0.00  0.00    +0.150 HD
ENDROOT
BRANCH   5  13
ATOM     13  C   UNL     1      -1.658  -0.278  24.351  0.00  0.00    +0.119 C 
BRANCH  13  14
ATOM     14  C   UNL     1      -0.249   0.001  23.899  0.00  0.00    -0.033 A 
ATOM     15  C   UNL     1       0.368   1.203  24.242  0.00  0.00    +0.006 A 
ATOM     16  C   UNL     1       0.440  -0.944  23.138  0.00  0.00    +0.006 A 
ATOM     17  C   UNL     1       1.673   1.462  23.824  0.00  0.00    +0.015 A 
ATOM     18  C   UNL     1       1.745  -0.685  22.720  0.00  0.00    +0.015 A 
ATOM     19  C   UNL     1       2.362   0.518  23.063  0.00  0.00    +0.059 A 
BRANCH  19  20
ATOM      3  O   UNL     1       4.689   0.980  23.372  0.00  0.00    -0.245 OA
ATOM     20  C   UNL     1       3.723   0.787  22.626  0.00  0.00    +0.337 C 
BRANCH  20   2
ATOM      2  O   UNL     1       3.841   0.805  21.271  0.00  0.00    -0.477 OA
ATOM     22  H   UNL     1       2.970   0.889  20.830  0.00  0.00    +0.295 HD
ENDBRANCH  20   2
ENDBRANCH  19  20
ENDBRANCH  13  14
ENDBRANCH   5  13
TORSDOF 4
ENDMDL
MODEL 3
REMARK VINA RESULT:      -2.5      2.621      3.717
REMARK  Name = 75368543
REMARK  4 active torsions:
REMARK  status: ('A' for Active; 'I' for Inactive)
REMARK    1  A    between atoms: O_2  and  C_20
REMARK    2  A    between atoms: N_5  and  C_13
REMARK    3  A    between atoms: C_13  and  C_14
REMARK    4  A    between atoms: C_19  and  C_20
REMARK                            x       y       z     vdW  Elec       q    Type
REMARK                         _______ _______ _______ _____ _____    ______ ____
ROOT
ATOM      1  O   UNL     1       0.591  -2.983  25.705  0.00  0.00    -0.253 OA
ATOM      4  N   UNL     1      -0.226  -1.210  24.390  0.00  0.00    -0.279 N 
ATOM      5  N   UNL     1      -0.573   1.409  23.429  0.00  0.00    -0.295 NA
ATOM      6  N   UNL     1      -1.685  -2.719  25.192  0.00  0.00    -0.297 N 
ATOM      7  C   UNL     1      -1.495  -0.842  23.799  0.00  0.00    +0.109 C 
ATOM      8  C   UNL     1      -1.735   0.660  23.949  0.00  0.00    +0.109 C 
ATOM      9  C   UNL     1       0.958  -0.445  24.063  0.00  0.00    +0.125 C 
ATOM     10  C   UNL     1      -2.502  -1.730  24.527  0.00  0.00    +0.129 C 
ATOM     11  C   UNL     1       0.657   1.052  24.167  0.00  0.00    +0.104 C 
ATOM     12  C   UNL     1      -0.320  -2.376  25.157  0.00  0.00    +0.303 C 
ATOM     21  H   UNL     1      -2.053  -3.519  25.697  0.00  0.00    +0.150 HD
ENDROOT
BRANCH   5  13
ATOM     13  C   UNL     1      -0.816   2.849  23.513  0.00  0.00    +0.119 C 
BRANCH  13  14
ATOM     14  C   UNL     1      -2.151   3.156  24.139  0.00  0.00    -0.033 A 
ATOM     15  C   UNL     1      -3.327   2.815  23.474  0.00  0.00    +0.006 A 
ATOM     16  C   UNL     1      -2.210   3.782  25.384  0.00  0.00    +0.006 A 
ATOM     17  C   UNL     1      -4.564   3.099  24.053  0.00  0.00    +0.015 A 
ATOM     18  C   UNL     1      -3.447   4.066  25.963  0.00  0.00    +0.015 A 
ATOM     19  C   UNL     1      -4.624   3.724  25.298  0.00  0.00    +0.059 A 
BRANCH  19  20
ATOM      3  O   UNL     1      -6.491   5.112  25.857  0.00  0.00    -0.245 OA
ATOM     20  C   UNL     1      -5.913   4.021  25.902  0.00  0.00    +0.337 C 
BRANCH  20   2
ATOM      2  O   UNL     1      -6.447   2.946  26.544  0.00  0.00    -0.477 OA
ATOM     22  H   UNL     1      -6.221   2.104  26.097  0.00  0.00    +0.295 HD
ENDBRANCH  20   2
ENDBRANCH  19  20
ENDBRANCH  13  14
ENDBRANCH   5  13
TORSDOF 4
ENDMDL
MODEL 4
REMARK VINA RESULT:      -2.5      3.712      6.039
REMARK  Name = 75368543
REMARK  4 active torsions:
REMARK  status: ('A' for Active; 'I' for Inactive)
REMARK    1  A    between atoms: O_2  and  C_20
REMARK    2  A    between atoms: N_5  and  C_13
REMARK    3  A    between atoms: C_13  and  C_14
REMARK    4  A    between atoms: C_19  and  C_20
REMARK                            x       y       z     vdW  Elec       q    Type
REMARK                         _______ _______ _______ _____ _____    ______ ____
ROOT
ATOM      1  O   UNL     1      -5.411   5.042  25.082  0.00  0.00    -0.253 OA
ATOM      4  N   UNL     1      -4.184   3.040  25.248  0.00  0.00    -0.279 N 
ATOM      5  N   UNL     1      -2.419   0.970  24.537  0.00  0.00    -0.295 NA
ATOM      6  N   UNL     1      -6.354   3.027  25.833  0.00  0.00    -0.297 N 
ATOM      7  C   UNL     1      -4.413   1.711  25.775  0.00  0.00    +0.109 C 
ATOM      8  C   UNL     1      -3.834   0.658  24.831  0.00  0.00    +0.109 C 
ATOM      9  C   UNL     1      -2.860   3.403  24.791  0.00  0.00    +0.125 C 
ATOM     10  C   UNL     1      -5.928   1.651  25.953  0.00  0.00    +0.129 C 
ATOM     11  C   UNL     1      -2.293   2.296  23.899  0.00  0.00    +0.104 C 
ATOM     12  C   UNL     1      -5.318   3.852  25.355  0.00  0.00    +0.303 C 
ATOM     21  H   UNL     1      -7.303   3.349  25.991  0.00  0.00    +0.150 HD
ENDROOT
BRANCH   5  13
ATOM     13  C   UNL     1      -1.837  -0.064  23.681  0.00  0.00    +0.119 C 
BRANCH  13  14
ATOM     14  C   UNL     1      -0.368   0.167  23.444  0.00  0.00    -0.033 A 
ATOM     15  C   UNL     1       0.297   1.182  24.129  0.00  0.00    +0.006 A 
ATOM     16  C   UNL     1       0.326  -0.635  22.538  0.00  0.00    +0.006 A 
ATOM     17  C   UNL     1       1.658   1.396  23.909  0.00  0.00    +0.015 A 
ATOM     18  C   UNL     1       1.687  -0.421  22.319  0.00  0.00    +0.015 A 
ATOM     19  C   UNL     1       2.353   0.595  23.004  0.00  0.00    +0.059 A 
BRANCH  19  20
ATOM      3  O   UNL     1       4.648   0.812  23.646  0.00  0.00    -0.245 OA
ATOM     20  C   UNL     1       3.772   0.818  22.775  0.00  0.00    +0.337 C 
BRANCH  20   2
ATOM      2  O   UNL     1       4.058   1.040  21.463  0.00  0.00    -0.477 OA
ATOM     22  H   UNL     1       4.718   0.400  21.120  0.00  0.00    +0.295 HD
ENDBRANCH  20   2
ENDBRANCH  19  20
ENDBRANCH  13  14
ENDBRANCH   5  13
TORSDOF 4
ENDMDL
MODEL 5
REMARK VINA RESULT:      -2.1      2.745      3.627
REMARK  Name = 75368543
REMARK  4 active torsions:
REMARK  status: ('A' for Active; 'I' for Inactive)
REMARK    1  A    between atoms: O_2  and  C_20
REMARK    2  A    between atoms: N_5  and  C_13
REMARK    3  A    between atoms: C_13  and  C_14
REMARK    4  A    between atoms: C_19  and  C_20
REMARK                            x       y       z     vdW  Elec       q    Type
REMARK                         _______ _______ _______ _____ _____    ______ ____
ROOT
ATOM      1  O   UNL     1       1.937  -0.335  22.440  0.00  0.00    -0.253 OA
ATOM      4  N   UNL     1       0.174  -0.322  24.000  0.00  0.00    -0.279 N 
ATOM      5  N   UNL     1      -2.395  -0.728  25.070  0.00  0.00    -0.295 NA
ATOM      6  N   UNL     1       1.432   1.526  23.778  0.00  0.00    -0.297 N 
ATOM      7  C   UNL     1      -0.305   0.572  25.033  0.00  0.00    +0.109 C 
ATOM      8  C   UNL     1      -1.832   0.638  25.013  0.00  0.00    +0.109 C 
ATOM      9  C   UNL     1      -0.416  -1.637  23.871  0.00  0.00    +0.125 C 
ATOM     10  C   UNL     1       0.399   1.890  24.721  0.00  0.00    +0.129 C 
ATOM     11  C   UNL     1      -1.942  -1.533  23.917  0.00  0.00    +0.104 C 
ATOM     12  C   UNL     1       1.262   0.213  23.303  0.00  0.00    +0.303 C 
ATOM     21  H   UNL     1       2.144   2.163  23.434  0.00  0.00    +0.150 HD
ENDROOT
BRANCH   5  13
ATOM     13  C   UNL     1      -3.856  -0.675  25.111  0.00  0.00    +0.119 C 
BRANCH  13  14
ATOM     14  C   UNL     1      -4.364   0.742  25.136  0.00  0.00    -0.033 A 
ATOM     15  C   UNL     1      -3.882   1.672  24.217  0.00  0.00    +0.006 A 
ATOM     16  C   UNL     1      -5.318   1.124  26.079  0.00  0.00    +0.006 A 
ATOM     17  C   UNL     1      -4.353   2.985  24.240  0.00  0.00    +0.015 A 
ATOM     18  C   UNL     1      -5.789   2.437  26.102  0.00  0.00    +0.015 A 
ATOM     19  C   UNL     1      -5.307   3.367  25.182  0.00  0.00    +0.059 A 
BRANCH  19  20
ATOM      3  O   UNL     1      -5.345   5.672  24.540  0.00  0.00    -0.245 OA
ATOM     20  C   UNL     1      -5.799   4.736  25.207  0.00  0.00    +0.337 C 
BRANCH  20   2
ATOM      2  O   UNL     1      -6.845   4.899  26.061  0.00  0.00    -0.477 OA
ATOM     22  H   UNL     1      -6.546   4.997  26.990  0.00  0.00    +0.295 HD
ENDBRANCH  20   2
ENDBRANCH  19  20
ENDBRANCH  13  14
ENDBRANCH   5  13
TORSDOF 4
ENDMDL
MODEL 6
REMARK VINA RESULT:      -2.1      3.960      4.830
REMARK  Name = 75368543
REMARK  4 active torsions:
REMARK  status: ('A' for Active; 'I' for Inactive)
REMARK    1  A    between atoms: O_2  and  C_20
REMARK    2  A    between atoms: N_5  and  C_13
REMARK    3  A    between atoms: C_13  and  C_14
REMARK    4  A    between atoms: C_19  and  C_20
REMARK                            x       y       z     vdW  Elec       q    Type
REMARK                         _______ _______ _______ _____ _____    ______ ____
ROOT
ATOM      1  O   UNL     1       1.373  -1.106  20.765  0.00  0.00    -0.253 OA
ATOM      4  N   UNL     1       1.105   0.076  22.783  0.00  0.00    -0.279 N 
ATOM      5  N   UNL     1      -0.101   1.687  24.747  0.00  0.00    -0.295 NA
ATOM      6  N   UNL     1       3.049   0.266  21.672  0.00  0.00    -0.297 N 
ATOM      7  C   UNL     1       1.947   0.870  23.653  0.00  0.00    +0.109 C 
ATOM      8  C   UNL     1       1.187   2.099  24.151  0.00  0.00    +0.109 C 
ATOM      9  C   UNL     1      -0.237  -0.261  23.208  0.00  0.00    +0.125 C 
ATOM     10  C   UNL     1       3.169   1.174  22.790  0.00  0.00    +0.129 C 
ATOM     11  C   UNL     1      -0.940   0.985  23.755  0.00  0.00    +0.104 C 
ATOM     12  C   UNL     1       1.785  -0.353  21.638  0.00  0.00    +0.303 C 
ATOM     21  H   UNL     1       3.754   0.149  20.951  0.00  0.00    +0.150 HD
ENDROOT
BRANCH   5  13
ATOM     13  C   UNL     1      -0.810   2.850  25.280  0.00  0.00    +0.119 C 
BRANCH  13  14
ATOM     14  C   UNL     1      -2.297   2.622  25.337  0.00  0.00    -0.033 A 
ATOM     15  C   UNL     1      -2.807   1.327  25.262  0.00  0.00    +0.006 A 
ATOM     16  C   UNL     1      -3.165   3.706  25.466  0.00  0.00    +0.006 A 
ATOM     17  C   UNL     1      -4.184   1.115  25.315  0.00  0.00    +0.015 A 
ATOM     18  C   UNL     1      -4.542   3.494  25.519  0.00  0.00    +0.015 A 
ATOM     19  C   UNL     1      -5.052   2.198  25.444  0.00  0.00    +0.059 A 
BRANCH  19  20
ATOM      3  O   UNL     1      -7.229   1.837  24.520  0.00  0.00    -0.245 OA
ATOM     20  C   UNL     1      -6.489   1.978  25.499  0.00  0.00    +0.337 C 
BRANCH  20   2
ATOM      2  O   UNL     1      -6.961   1.937  26.775  0.00  0.00    -0.477 OA
ATOM     22  H   UNL     1      -6.583   1.186  27.280  0.00  0.00    +0.295 HD
ENDBRANCH  20   2
ENDBRANCH  19  20
ENDBRANCH  13  14
ENDBRANCH   5  13
TORSDOF 4
ENDMDL
MODEL 7
REMARK VINA RESULT:      -1.7      3.872      5.081
REMARK  Name = 75368543
REMARK  4 active torsions:
REMARK  status: ('A' for Active; 'I' for Inactive)
REMARK    1  A    between atoms: O_2  and  C_20
REMARK    2  A    between atoms: N_5  and  C_13
REMARK    3  A    between atoms: C_13  and  C_14
REMARK    4  A    between atoms: C_19  and  C_20
REMARK                            x       y       z     vdW  Elec       q    Type
REMARK                         _______ _______ _______ _____ _____    ______ ____
ROOT
ATOM      1  O   UNL     1       4.342   1.563  23.528  0.00  0.00    -0.253 OA
ATOM      4  N   UNL     1       2.097   0.985  23.123  0.00  0.00    -0.279 N 
ATOM      5  N   UNL     1      -0.581   0.307  23.650  0.00  0.00    -0.295 NA
ATOM      6  N   UNL     1       3.707  -0.059  21.955  0.00  0.00    -0.297 N 
ATOM      7  C   UNL     1       1.382   0.160  22.172  0.00  0.00    +0.109 C 
ATOM      8  C   UNL     1       0.270  -0.619  22.874  0.00  0.00    +0.109 C 
ATOM      9  C   UNL     1       1.351   1.824  24.037  0.00  0.00    +0.125 C 
ATOM     10  C   UNL     1       2.477  -0.701  21.549  0.00  0.00    +0.129 C 
ATOM     11  C   UNL     1       0.212   1.021  24.672  0.00  0.00    +0.104 C 
ATOM     12  C   UNL     1       3.482   0.917  22.943  0.00  0.00    +0.303 C 
ATOM     21  H   UNL     1       4.630  -0.334  21.632  0.00  0.00    +0.150 HD
ENDROOT
BRANCH   5  13
ATOM     13  C   UNL     1      -1.683  -0.421  24.279  0.00  0.00    +0.119 C 
BRANCH  13  14
ATOM     14  C   UNL     1      -2.791   0.504  24.709  0.00  0.00    -0.033 A 
ATOM     15  C   UNL     1      -2.558   1.875  24.803  0.00  0.00    +0.006 A 
ATOM     16  C   UNL     1      -4.051  -0.011  25.014  0.00  0.00    +0.006 A 
ATOM     17  C   UNL     1      -3.583   2.731  25.202  0.00  0.00    +0.015 A 
ATOM     18  C   UNL     1      -5.077   0.845  25.413  0.00  0.00    +0.015 A 
ATOM     19  C   UNL     1      -4.843   2.217  25.507  0.00  0.00    +0.059 A 
BRANCH  19  20
ATOM      3  O   UNL     1      -6.056   4.279  25.550  0.00  0.00    -0.245 OA
ATOM     20  C   UNL     1      -5.913   3.110  25.923  0.00  0.00    +0.337 C 
BRANCH  20   2
ATOM      2  O   UNL     1      -6.778   2.517  26.791  0.00  0.00    -0.477 OA
ATOM     22  H   UNL     1      -7.649   2.343  26.376  0.00  0.00    +0.295 HD
ENDBRANCH  20   2
ENDBRANCH  19  20
ENDBRANCH  13  14
ENDBRANCH   5  13
TORSDOF 4
ENDMDL
MODEL 8
REMARK VINA RESULT:      -1.2      4.220      5.453
REMARK  Name = 75368543
REMARK  4 active torsions:
REMARK  status: ('A' for Active; 'I' for Inactive)
REMARK    1  A    between atoms: O_2  and  C_20
REMARK    2  A    between atoms: N_5  and  C_13
REMARK    3  A    between atoms: C_13  and  C_14
REMARK    4  A    between atoms: C_19  and  C_20
REMARK                            x       y       z     vdW  Elec       q    Type
REMARK                         _______ _______ _______ _____ _____    ______ ____
ROOT
ATOM      1  O   UNL     1       5.881   1.384  23.975  0.00  0.00    -0.253 OA
ATOM      4  N   UNL     1       3.919   0.274  23.296  0.00  0.00    -0.279 N 
ATOM      5  N   UNL     1       1.178  -0.256  22.966  0.00  0.00    -0.295 NA
ATOM      6  N   UNL     1       5.583  -0.934  24.202  0.00  0.00    -0.297 N 
ATOM      7  C   UNL     1       3.480  -1.100  23.176  0.00  0.00    +0.109 C 
ATOM      8  C   UNL     1       2.037  -1.241  23.657  0.00  0.00    +0.109 C 
ATOM      9  C   UNL     1       3.079   1.335  22.783  0.00  0.00    +0.125 C 
ATOM     10  C   UNL     1       4.509  -1.878  23.992  0.00  0.00    +0.129 C 
ATOM     11  C   UNL     1       1.633   1.123  23.237  0.00  0.00    +0.104 C 
ATOM     12  C   UNL     1       5.207   0.372  23.834  0.00  0.00    +0.303 C 
ATOM     21  H   UNL     1       6.470  -1.163  24.639  0.00  0.00    +0.150 HD
ENDROOT
BRANCH   5  13
ATOM     13  C   UNL     1      -0.217  -0.421  23.375  0.00  0.00    +0.119 C 
BRANCH  13  14
ATOM     14  C   UNL     1      -0.772   0.835  23.993  0.00  0.00    -0.033 A 
ATOM     15  C   UNL     1      -1.686   1.614  23.286  0.00  0.00    +0.006 A 
ATOM     16  C   UNL     1      -0.370   1.219  25.272  0.00  0.00    +0.006 A 
ATOM     17  C   UNL     1      -2.200   2.777  23.858  0.00  0.00    +0.015 A 
ATOM     18  C   UNL     1      -0.884   2.383  25.844  0.00  0.00    +0.015 A 
ATOM     19  C   UNL     1      -1.800   3.162  25.137  0.00  0.00    +0.059 A 
BRANCH  19  20
ATOM      3  O   UNL     1      -3.287   4.426  26.521  0.00  0.00    -0.245 OA
ATOM     20  C   UNL     1      -2.335   4.375  25.734  0.00  0.00    +0.337 C 
BRANCH  20   2
ATOM      2  O   UNL     1      -1.667   5.491  25.334  0.00  0.00    -0.477 OA
ATOM     22  H   UNL     1      -0.803   5.273  24.927  0.00  0.00    +0.295 HD
ENDBRANCH  20   2
ENDBRANCH  19  20
ENDBRANCH  13  14
ENDBRANCH   5  13
TORSDOF 4
ENDMDL
MODEL 9
REMARK VINA RESULT:      -1.2      3.496      5.123
REMARK  Name = 75368543
REMARK  4 active torsions:
REMARK  status: ('A' for Active; 'I' for Inactive)
REMARK    1  A    between atoms: O_2  and  C_20
REMARK    2  A    between atoms: N_5  and  C_13
REMARK    3  A    between atoms: C_13  and  C_14
REMARK    4  A    between atoms: C_19  and  C_20
REMARK                            x       y       z     vdW  Elec       q    Type
REMARK                         _______ _______ _______ _____ _____    ______ ____
ROOT
ATOM      1  O   UNL     1      -6.971   1.293  26.653  0.00  0.00    -0.253 OA
ATOM      4  N   UNL     1      -5.291   1.739  25.066  0.00  0.00    -0.279 N 
ATOM      5  N   UNL     1      -2.836   1.544  23.709  0.00  0.00    -0.295 NA
ATOM      6  N   UNL     1      -6.322   3.470  26.062  0.00  0.00    -0.297 N 
ATOM      7  C   UNL     1      -4.762   2.911  24.401  0.00  0.00    +0.109 C 
ATOM      8  C   UNL     1      -3.238   2.831  24.314  0.00  0.00    +0.109 C 
ATOM      9  C   UNL     1      -4.848   0.426  24.649  0.00  0.00    +0.125 C 
ATOM     10  C   UNL     1      -5.299   4.071  25.237  0.00  0.00    +0.129 C 
ATOM     11  C   UNL     1      -3.323   0.407  24.516  0.00  0.00    +0.104 C 
ATOM     12  C   UNL     1      -6.279   2.064  26.001  0.00  0.00    +0.303 C 
ATOM     21  H   UNL     1      -6.940   3.989  26.676  0.00  0.00    +0.150 HD
ENDROOT
BRANCH   5  13
ATOM     13  C   UNL     1      -1.382   1.481  23.566  0.00  0.00    +0.119 C 
BRANCH  13  14
ATOM     14  C   UNL     1      -0.679   1.762  24.868  0.00  0.00    -0.033 A 
ATOM     15  C   UNL     1      -0.022   2.977  25.058  0.00  0.00    +0.006 A 
ATOM     16  C   UNL     1      -0.685   0.806  25.884  0.00  0.00    +0.006 A 
ATOM     17  C   UNL     1       0.629   3.237  26.263  0.00  0.00    +0.015 A 
ATOM     18  C   UNL     1      -0.033   1.067  27.089  0.00  0.00    +0.015 A 
ATOM     19  C   UNL     1       0.623   2.283  27.279  0.00  0.00    +0.059 A 
BRANCH  19  20
ATOM      3  O   UNL     1       0.754   2.650  29.640  0.00  0.00    -0.245 OA
ATOM     20  C   UNL     1       1.302   2.553  28.537  0.00  0.00    +0.337 C 
BRANCH  20   2
ATOM      2  O   UNL     1       2.647   2.694  28.383  0.00  0.00    -0.477 OA
ATOM     22  H   UNL     1       3.125   1.861  28.578  0.00  0.00    +0.295 HD
ENDBRANCH  20   2
ENDBRANCH  19  20
ENDBRANCH  13  14
ENDBRANCH   5  13
TORSDOF 4
ENDMDL
MODEL 10
REMARK VINA RESULT:      -0.8      4.643      6.987
REMARK  Name = 75368543
REMARK  4 active torsions:
REMARK  status: ('A' for Active; 'I' for Inactive)
REMARK    1  A    between atoms: O_2  and  C_20
REMARK    2  A    between atoms: N_5  and  C_13
REMARK    3  A    between atoms: C_13  and  C_14
REMARK    4  A    between atoms: C_19  and  C_20
REMARK                            x       y       z     vdW  Elec       q    Type
REMARK                         _______ _______ _______ _____ _____    ______ ____
ROOT
ATOM      1  O   UNL     1      -2.838   5.003  25.539  0.00  0.00    -0.253 OA
ATOM      4  N   UNL     1      -2.030   2.823  25.175  0.00  0.00    -0.279 N 
ATOM      5  N   UNL     1      -0.493   0.735  24.087  0.00  0.00    -0.295 NA
ATOM      6  N   UNL     1      -4.251   3.143  25.300  0.00  0.00    -0.297 N 
ATOM      7  C   UNL     1      -2.595   1.491  25.118  0.00  0.00    +0.109 C 
ATOM      8  C   UNL     1      -1.966   0.695  23.976  0.00  0.00    +0.109 C 
ATOM      9  C   UNL     1      -0.593   2.986  25.139  0.00  0.00    +0.125 C 
ATOM     10  C   UNL     1      -4.094   1.743  24.976  0.00  0.00    +0.129 C 
ATOM     11  C   UNL     1       0.003   2.125  24.022  0.00  0.00    +0.104 C 
ATOM     12  C   UNL     1      -3.009   3.804  25.364  0.00  0.00    +0.303 C 
ATOM     21  H   UNL     1      -5.146   3.615  25.386  0.00  0.00    +0.150 HD
ENDROOT
BRANCH   5  13
ATOM     13  C   UNL     1       0.120  -0.073  23.032  0.00  0.00    +0.119 C 
BRANCH  13  14
ATOM     14  C   UNL     1       1.624  -0.037  23.101  0.00  0.00    -0.033 A 
ATOM     15  C   UNL     1       2.311   1.121  22.741  0.00  0.00    +0.006 A 
ATOM     16  C   UNL     1       2.329  -1.163  23.526  0.00  0.00    +0.006 A 
ATOM     17  C   UNL     1       3.703   1.154  22.805  0.00  0.00    +0.015 A 
ATOM     18  C   UNL     1       3.722  -1.130  23.590  0.00  0.00    +0.015 A 
ATOM     19  C   UNL     1       4.409   0.029  23.230  0.00  0.00    +0.059 A 
BRANCH  19  20
ATOM      3  O   UNL     1       6.628  -0.384  22.437  0.00  0.00    -0.245 OA
ATOM     20  C   UNL     1       5.862   0.063  23.297  0.00  0.00    +0.337 C 
BRANCH  20   2
ATOM      2  O   UNL     1       6.318   0.656  24.433  0.00  0.00    -0.477 OA
ATOM     22  H   UNL     1       5.675   0.577  25.169  0.00  0.00    +0.295 HD
ENDBRANCH  20   2
ENDBRANCH  19  20
ENDBRANCH  13  14
ENDBRANCH   5  13
TORSDOF 4
ENDMDL
