MODEL 1
REMARK VINA RESULT:      -5.0      0.000      0.000
REMARK  Name = 11886660
REMARK  5 active torsions:
REMARK  status: ('A' for Active; 'I' for Inactive)
REMARK    1  A    between atoms: O_3  and  C_12
REMARK    2  A    between atoms: O_4  and  C_17
REMARK    3  A    between atoms: O_4  and  C_18
REMARK    4  A    between atoms: N_6  and  C_11
REMARK    5  A    between atoms: C_16  and  C_17
REMARK                            x       y       z     vdW  Elec       q    Type
REMARK                         _______ _______ _______ _____ _____    ______ ____
ROOT
ATOM      1  O   UNL     1      -4.625   2.197  23.589  0.00  0.00    -0.369 OA
ATOM      2  O   UNL     1      -4.217   4.103  25.988  0.00  0.00    -0.369 OA
ATOM      9  C   UNL     1      -3.483   2.945  25.534  0.00  0.00    +0.176 C 
ATOM     10  C   UNL     1      -4.505   1.960  25.000  0.00  0.00    +0.180 C 
ATOM     11  C   UNL     1      -2.646   3.316  24.325  0.00  0.00    +0.166 C 
ATOM     12  C   UNL     1      -5.761   2.351  25.742  0.00  0.00    +0.171 C 
ATOM     13  C   UNL     1      -3.626   3.138  23.170  0.00  0.00    +0.190 C 
ATOM     14  C   UNL     1      -5.621   3.853  25.834  0.00  0.00    +0.194 C 
ENDROOT
BRANCH  11   6
ATOM      6  N   UNL     1      -1.415   2.527  24.231  0.00  0.00    -0.243 N 
ATOM      7  N   UNL     1      -0.284   2.964  24.802  0.00  0.00    -0.065 NA
ATOM      8  N   UNL     1       0.652   2.053  24.556  0.00  0.00    -0.123 NA
ATOM     15  C   UNL     1      -1.245   1.334  23.607  0.00  0.00    +0.145 A 
ATOM     16  C   UNL     1       0.080   1.048  23.825  0.00  0.00    +0.189 A 
BRANCH  16  17
ATOM      5  O   UNL     1       1.839  -0.065  22.696  0.00  0.00    -0.243 OA
ATOM     17  C   UNL     1       0.796  -0.104  23.380  0.00  0.00    +0.361 C 
BRANCH  17   4
ATOM      4  O   UNL     1       0.239  -1.310  23.768  0.00  0.00    -0.463 OA
ATOM     18  C   UNL     1      -0.423  -1.350  25.036  0.00  0.00    +0.280 C 
ENDBRANCH  17   4
ENDBRANCH  16  17
ENDBRANCH  11   6
BRANCH  12   3
ATOM      3  O   UNL     1      -6.947   1.968  25.083  0.00  0.00    -0.387 OA
ATOM     19  H   UNL     1      -6.832   2.162  24.137  0.00  0.00    +0.210 HD
ENDBRANCH  12   3
TORSDOF 4
ENDMDL
MODEL 2
REMARK VINA RESULT:      -4.8      2.079      2.994
REMARK  Name = 11886660
REMARK  5 active torsions:
REMARK  status: ('A' for Active; 'I' for Inactive)
REMARK    1  A    between atoms: O_3  and  C_12
REMARK    2  A    between atoms: O_4  and  C_17
REMARK    3  A    between atoms: O_4  and  C_18
REMARK    4  A    between atoms: N_6  and  C_11
REMARK    5  A    between atoms: C_16  and  C_17
REMARK                            x       y       z     vdW  Elec       q    Type
REMARK                         _______ _______ _______ _____ _____    ______ ____
ROOT
ATOM      1  O   UNL     1      -1.998   3.440  24.827  0.00  0.00    -0.369 OA
ATOM      2  O   UNL     1      -3.974   1.114  25.319  0.00  0.00    -0.369 OA
ATOM      9  C   UNL     1      -2.842   1.254  24.433  0.00  0.00    +0.176 C 
ATOM     10  C   UNL     1      -2.844   2.689  23.943  0.00  0.00    +0.180 C 
ATOM     11  C   UNL     1      -1.557   1.126  25.228  0.00  0.00    +0.166 C 
ATOM     12  C   UNL     1      -4.294   3.085  24.085  0.00  0.00    +0.171 C 
ATOM     13  C   UNL     1      -1.328   2.548  25.730  0.00  0.00    +0.190 C 
ATOM     14  C   UNL     1      -4.704   2.349  25.338  0.00  0.00    +0.194 C 
ENDROOT
BRANCH  11   6
ATOM      6  N   UNL     1      -0.463   0.556  24.437  0.00  0.00    -0.243 N 
ATOM      7  N   UNL     1      -0.405  -0.763  24.210  0.00  0.00    -0.065 NA
ATOM      8  N   UNL     1       0.679  -0.984  23.474  0.00  0.00    -0.123 NA
ATOM     15  C   UNL     1       0.571   1.219  23.860  0.00  0.00    +0.145 A 
ATOM     16  C   UNL     1       1.289   0.220  23.251  0.00  0.00    +0.189 A 
BRANCH  16  17
ATOM      5  O   UNL     1       2.652  -0.087  21.339  0.00  0.00    -0.243 OA
ATOM     17  C   UNL     1       2.490   0.363  22.492  0.00  0.00    +0.361 C 
BRANCH  17   4
ATOM      4  O   UNL     1       3.497   1.057  23.138  0.00  0.00    -0.463 OA
ATOM     18  C   UNL     1       4.791   0.448  23.183  0.00  0.00    +0.280 C 
ENDBRANCH  17   4
ENDBRANCH  16  17
ENDBRANCH  11   6
BRANCH  12   3
ATOM      3  O   UNL     1      -4.489   4.478  24.199  0.00  0.00    -0.387 OA
ATOM     19  H   UNL     1      -4.088   4.895  23.417  0.00  0.00    +0.210 HD
ENDBRANCH  12   3
TORSDOF 4
ENDMDL
MODEL 3
REMARK VINA RESULT:      -4.6     15.054     17.454
REMARK  Name = 11886660
REMARK  5 active torsions:
REMARK  status: ('A' for Active; 'I' for Inactive)
REMARK    1  A    between atoms: O_3  and  C_12
REMARK    2  A    between atoms: O_4  and  C_17
REMARK    3  A    between atoms: O_4  and  C_18
REMARK    4  A    between atoms: N_6  and  C_11
REMARK    5  A    between atoms: C_16  and  C_17
REMARK                            x       y       z     vdW  Elec       q    Type
REMARK                         _______ _______ _______ _____ _____    ______ ____
ROOT
ATOM      1  O   UNL     1      13.094   8.509  22.127  0.00  0.00    -0.369 OA
ATOM      2  O   UNL     1      10.755   6.727  21.173  0.00  0.00    -0.369 OA
ATOM      9  C   UNL     1      11.516   7.763  20.514  0.00  0.00    +0.176 C 
ATOM     10  C   UNL     1      11.812   8.821  21.560  0.00  0.00    +0.180 C 
ATOM     11  C   UNL     1      12.878   7.223  20.125  0.00  0.00    +0.166 C 
ATOM     12  C   UNL     1      10.695   8.622  22.557  0.00  0.00    +0.171 C 
ATOM     13  C   UNL     1      13.700   7.436  21.392  0.00  0.00    +0.190 C 
ATOM     14  C   UNL     1      10.507   7.123  22.529  0.00  0.00    +0.194 C 
ENDROOT
BRANCH  11   6
ATOM      6  N   UNL     1      13.410   7.860  18.917  0.00  0.00    -0.243 N 
ATOM      7  N   UNL     1      14.536   8.582  18.970  0.00  0.00    -0.065 NA
ATOM      8  N   UNL     1      14.770   9.029  17.740  0.00  0.00    -0.123 NA
ATOM     15  C   UNL     1      12.888   7.818  17.664  0.00  0.00    +0.145 A 
ATOM     16  C   UNL     1      13.770   8.570  16.929  0.00  0.00    +0.189 A 
BRANCH  16  17
ATOM      5  O   UNL     1      14.685   8.902  14.770  0.00  0.00    -0.243 OA
ATOM     17  C   UNL     1      13.698   8.858  15.532  0.00  0.00    +0.361 C 
BRANCH  17   4
ATOM      4  O   UNL     1      12.419   9.093  15.060  0.00  0.00    -0.463 OA
ATOM     18  C   UNL     1      11.353   9.084  16.016  0.00  0.00    +0.280 C 
ENDBRANCH  17   4
ENDBRANCH  16  17
ENDBRANCH  11   6
BRANCH  12   3
ATOM      3  O   UNL     1      11.004   9.094  23.850  0.00  0.00    -0.387 OA
ATOM     19  H   UNL     1      10.168   9.342  24.279  0.00  0.00    +0.210 HD
ENDBRANCH  12   3
TORSDOF 4
ENDMDL
MODEL 4
REMARK VINA RESULT:      -4.4      1.806      5.871
REMARK  Name = 11886660
REMARK  5 active torsions:
REMARK  status: ('A' for Active; 'I' for Inactive)
REMARK    1  A    between atoms: O_3  and  C_12
REMARK    2  A    between atoms: O_4  and  C_17
REMARK    3  A    between atoms: O_4  and  C_18
REMARK    4  A    between atoms: N_6  and  C_11
REMARK    5  A    between atoms: C_16  and  C_17
REMARK                            x       y       z     vdW  Elec       q    Type
REMARK                         _______ _______ _______ _____ _____    ______ ____
ROOT
ATOM      1  O   UNL     1      -0.277   0.752  26.225  0.00  0.00    -0.369 OA
ATOM      2  O   UNL     1      -0.258   0.740  23.133  0.00  0.00    -0.369 OA
ATOM      9  C   UNL     1      -1.278   1.090  24.095  0.00  0.00    +0.176 C 
ATOM     10  C   UNL     1      -1.133   0.126  25.256  0.00  0.00    +0.180 C 
ATOM     11  C   UNL     1      -0.967   2.450  24.691  0.00  0.00    +0.166 C 
ATOM     12  C   UNL     1      -0.470  -1.070  24.614  0.00  0.00    +0.171 C 
ATOM     13  C   UNL     1      -0.017   2.108  25.834  0.00  0.00    +0.190 C 
ATOM     14  C   UNL     1       0.444  -0.420  23.602  0.00  0.00    +0.194 C 
ENDROOT
BRANCH  11   6
ATOM      6  N   UNL     1      -2.176   3.182  25.077  0.00  0.00    -0.243 N 
ATOM      7  N   UNL     1      -2.104   4.471  25.434  0.00  0.00    -0.065 NA
ATOM      8  N   UNL     1      -3.340   4.863  25.726  0.00  0.00    -0.123 NA
ATOM     15  C   UNL     1      -3.448   2.708  25.126  0.00  0.00    +0.145 A 
ATOM     16  C   UNL     1      -4.175   3.795  25.542  0.00  0.00    +0.189 A 
BRANCH  16  17
ATOM      5  O   UNL     1      -6.271   4.890  25.662  0.00  0.00    -0.243 OA
ATOM     17  C   UNL     1      -5.585   3.853  25.763  0.00  0.00    +0.361 C 
BRANCH  17   4
ATOM      4  O   UNL     1      -6.160   2.644  26.110  0.00  0.00    -0.463 OA
ATOM     18  C   UNL     1      -6.461   1.731  25.050  0.00  0.00    +0.280 C 
ENDBRANCH  17   4
ENDBRANCH  16  17
ENDBRANCH  11   6
BRANCH  12   3
ATOM      3  O   UNL     1       0.238  -1.879  25.526  0.00  0.00    -0.387 OA
ATOM     19  H   UNL     1       1.163  -1.580  25.526  0.00  0.00    +0.210 HD
ENDBRANCH  12   3
TORSDOF 4
ENDMDL
MODEL 5
REMARK VINA RESULT:      -4.2      1.866      2.227
REMARK  Name = 11886660
REMARK  5 active torsions:
REMARK  status: ('A' for Active; 'I' for Inactive)
REMARK    1  A    between atoms: O_3  and  C_12
REMARK    2  A    between atoms: O_4  and  C_17
REMARK    3  A    between atoms: O_4  and  C_18
REMARK    4  A    between atoms: N_6  and  C_11
REMARK    5  A    between atoms: C_16  and  C_17
REMARK                            x       y       z     vdW  Elec       q    Type
REMARK                         _______ _______ _______ _____ _____    ______ ____
ROOT
ATOM      1  O   UNL     1      -4.383   2.573  23.917  0.00  0.00    -0.369 OA
ATOM      2  O   UNL     1      -2.513   4.345  25.626  0.00  0.00    -0.369 OA
ATOM      9  C   UNL     1      -2.599   2.914  25.450  0.00  0.00    +0.176 C 
ATOM     10  C   UNL     1      -4.072   2.576  25.319  0.00  0.00    +0.180 C 
ATOM     11  C   UNL     1      -2.002   2.531  24.110  0.00  0.00    +0.166 C 
ATOM     12  C   UNL     1      -4.740   3.725  26.037  0.00  0.00    +0.171 C 
ATOM     13  C   UNL     1      -3.176   2.711  23.153  0.00  0.00    +0.190 C 
ATOM     14  C   UNL     1      -3.840   4.886  25.686  0.00  0.00    +0.194 C 
ENDROOT
BRANCH  11   6
ATOM      6  N   UNL     1      -1.403   1.193  24.125  0.00  0.00    -0.243 N 
ATOM      7  N   UNL     1      -0.199   0.982  23.577  0.00  0.00    -0.065 NA
ATOM      8  N   UNL     1       0.081  -0.307  23.739  0.00  0.00    -0.123 NA
ATOM     15  C   UNL     1      -1.930   0.059  24.653  0.00  0.00    +0.145 A 
ATOM     16  C   UNL     1      -0.969  -0.887  24.396  0.00  0.00    +0.189 A 
BRANCH  16  17
ATOM      5  O   UNL     1      -0.200  -2.832  25.507  0.00  0.00    -0.243 OA
ATOM     17  C   UNL     1      -1.011  -2.272  24.741  0.00  0.00    +0.361 C 
BRANCH  17   4
ATOM      4  O   UNL     1      -2.044  -2.978  24.152  0.00  0.00    -0.463 OA
ATOM     18  C   UNL     1      -3.334  -2.892  24.766  0.00  0.00    +0.280 C 
ENDBRANCH  17   4
ENDBRANCH  16  17
ENDBRANCH  11   6
BRANCH  12   3
ATOM      3  O   UNL     1      -6.073   3.944  25.632  0.00  0.00    -0.387 OA
ATOM     19  H   UNL     1      -6.060   4.620  24.933  0.00  0.00    +0.210 HD
ENDBRANCH  12   3
TORSDOF 4
ENDMDL
MODEL 6
REMARK VINA RESULT:      -3.5      2.270      5.232
REMARK  Name = 11886660
REMARK  5 active torsions:
REMARK  status: ('A' for Active; 'I' for Inactive)
REMARK    1  A    between atoms: O_3  and  C_12
REMARK    2  A    between atoms: O_4  and  C_17
REMARK    3  A    between atoms: O_4  and  C_18
REMARK    4  A    between atoms: N_6  and  C_11
REMARK    5  A    between atoms: C_16  and  C_17
REMARK                            x       y       z     vdW  Elec       q    Type
REMARK                         _______ _______ _______ _____ _____    ______ ____
ROOT
ATOM      1  O   UNL     1      -2.574  -1.099  26.075  0.00  0.00    -0.369 OA
ATOM      2  O   UNL     1      -0.806  -2.016  23.710  0.00  0.00    -0.369 OA
ATOM      9  C   UNL     1      -1.442  -0.755  24.013  0.00  0.00    +0.176 C 
ATOM     10  C   UNL     1      -2.777  -1.080  24.653  0.00  0.00    +0.180 C 
ATOM     11  C   UNL     1      -0.663  -0.044  25.103  0.00  0.00    +0.166 C 
ATOM     12  C   UNL     1      -3.077  -2.459  24.113  0.00  0.00    +0.171 C 
ATOM     13  C   UNL     1      -1.250  -0.637  26.380  0.00  0.00    +0.190 C 
ATOM     14  C   UNL     1      -1.702  -3.083  24.055  0.00  0.00    +0.194 C 
ENDROOT
BRANCH  11   6
ATOM      6  N   UNL     1      -0.748   1.415  24.992  0.00  0.00    -0.243 N 
ATOM      7  N   UNL     1       0.169   2.097  24.293  0.00  0.00    -0.065 NA
ATOM      8  N   UNL     1      -0.162   3.382  24.367  0.00  0.00    -0.123 NA
ATOM     15  C   UNL     1      -1.689   2.230  25.531  0.00  0.00    +0.145 A 
ATOM     16  C   UNL     1      -1.298   3.481  25.122  0.00  0.00    +0.189 A 
BRANCH  16  17
ATOM      5  O   UNL     1      -1.499   5.840  25.081  0.00  0.00    -0.243 OA
ATOM     17  C   UNL     1      -1.942   4.722  25.412  0.00  0.00    +0.361 C 
BRANCH  17   4
ATOM      4  O   UNL     1      -3.131   4.600  26.108  0.00  0.00    -0.463 OA
ATOM     18  C   UNL     1      -4.272   4.126  25.385  0.00  0.00    +0.280 C 
ENDBRANCH  17   4
ENDBRANCH  16  17
ENDBRANCH  11   6
BRANCH  12   3
ATOM      3  O   UNL     1      -3.963  -3.201  24.921  0.00  0.00    -0.387 OA
ATOM     19  H   UNL     1      -4.619  -3.614  24.335  0.00  0.00    +0.210 HD
ENDBRANCH  12   3
TORSDOF 4
ENDMDL
MODEL 7
REMARK VINA RESULT:      -3.3      1.964      5.966
REMARK  Name = 11886660
REMARK  5 active torsions:
REMARK  status: ('A' for Active; 'I' for Inactive)
REMARK    1  A    between atoms: O_3  and  C_12
REMARK    2  A    between atoms: O_4  and  C_17
REMARK    3  A    between atoms: O_4  and  C_18
REMARK    4  A    between atoms: N_6  and  C_11
REMARK    5  A    between atoms: C_16  and  C_17
REMARK                            x       y       z     vdW  Elec       q    Type
REMARK                         _______ _______ _______ _____ _____    ______ ____
ROOT
ATOM      1  O   UNL     1      -0.201   0.256  24.666  0.00  0.00    -0.369 OA
ATOM      2  O   UNL     1      -2.386  -1.797  23.915  0.00  0.00    -0.369 OA
ATOM      9  C   UNL     1      -2.431  -0.567  24.670  0.00  0.00    +0.176 C 
ATOM     10  C   UNL     1      -1.138  -0.490  25.459  0.00  0.00    +0.180 C 
ATOM     11  C   UNL     1      -2.366   0.614  23.720  0.00  0.00    +0.166 C 
ATOM     12  C   UNL     1      -0.737  -1.941  25.580  0.00  0.00    +0.171 C 
ATOM     13  C   UNL     1      -0.866   0.802  23.517  0.00  0.00    +0.190 C 
ATOM     14  C   UNL     1      -1.186  -2.506  24.253  0.00  0.00    +0.194 C 
ENDROOT
BRANCH  11   6
ATOM      6  N   UNL     1      -3.083   1.785  24.232  0.00  0.00    -0.243 N 
ATOM      7  N   UNL     1      -2.567   3.013  24.087  0.00  0.00    -0.065 NA
ATOM      8  N   UNL     1      -3.426   3.863  24.640  0.00  0.00    -0.123 NA
ATOM     15  C   UNL     1      -4.278   1.806  24.876  0.00  0.00    +0.145 A 
ATOM     16  C   UNL     1      -4.479   3.140  25.128  0.00  0.00    +0.189 A 
BRANCH  16  17
ATOM      5  O   UNL     1      -6.068   4.852  25.516  0.00  0.00    -0.243 OA
ATOM     17  C   UNL     1      -5.597   3.730  25.792  0.00  0.00    +0.361 C 
BRANCH  17   4
ATOM      4  O   UNL     1      -6.142   2.952  26.797  0.00  0.00    -0.463 OA
ATOM     18  C   UNL     1      -6.588   1.638  26.443  0.00  0.00    +0.280 C 
ENDBRANCH  17   4
ENDBRANCH  16  17
ENDBRANCH  11   6
BRANCH  12   3
ATOM      3  O   UNL     1       0.644  -2.128  25.796  0.00  0.00    -0.387 OA
ATOM     19  H   UNL     1       1.089  -2.046  24.936  0.00  0.00    +0.210 HD
ENDBRANCH  12   3
TORSDOF 4
ENDMDL
MODEL 8
REMARK VINA RESULT:      -3.2      1.868      6.280
REMARK  Name = 11886660
REMARK  5 active torsions:
REMARK  status: ('A' for Active; 'I' for Inactive)
REMARK    1  A    between atoms: O_3  and  C_12
REMARK    2  A    between atoms: O_4  and  C_17
REMARK    3  A    between atoms: O_4  and  C_18
REMARK    4  A    between atoms: N_6  and  C_11
REMARK    5  A    between atoms: C_16  and  C_17
REMARK                            x       y       z     vdW  Elec       q    Type
REMARK                         _______ _______ _______ _____ _____    ______ ____
ROOT
ATOM      1  O   UNL     1      -0.181  -1.136  23.914  0.00  0.00    -0.369 OA
ATOM      2  O   UNL     1       0.784   1.743  24.501  0.00  0.00    -0.369 OA
ATOM      9  C   UNL     1      -0.503   1.210  24.117  0.00  0.00    +0.176 C 
ATOM     10  C   UNL     1      -0.237   0.076  23.146  0.00  0.00    +0.180 C 
ATOM     11  C   UNL     1      -1.152   0.540  25.314  0.00  0.00    +0.166 C 
ATOM     12  C   UNL     1       1.113   0.440  22.575  0.00  0.00    +0.171 C 
ATOM     13  C   UNL     1      -0.566  -0.867  25.270  0.00  0.00    +0.190 C 
ATOM     14  C   UNL     1       1.807   1.055  23.767  0.00  0.00    +0.194 C 
ENDROOT
BRANCH  11   6
ATOM      6  N   UNL     1      -2.615   0.613  25.272  0.00  0.00    -0.243 N 
ATOM      7  N   UNL     1      -3.350  -0.506  25.258  0.00  0.00    -0.065 NA
ATOM      8  N   UNL     1      -4.625  -0.134  25.221  0.00  0.00    -0.123 NA
ATOM     15  C   UNL     1      -3.385   1.731  25.246  0.00  0.00    +0.145 A 
ATOM     16  C   UNL     1      -4.664   1.234  25.213  0.00  0.00    +0.189 A 
BRANCH  16  17
ATOM      5  O   UNL     1      -6.872   1.683  24.485  0.00  0.00    -0.243 OA
ATOM     17  C   UNL     1      -5.878   1.985  25.176  0.00  0.00    +0.361 C 
BRANCH  17   4
ATOM      4  O   UNL     1      -5.881   3.108  25.983  0.00  0.00    -0.463 OA
ATOM     18  C   UNL     1      -5.313   4.306  25.444  0.00  0.00    +0.280 C 
ENDBRANCH  17   4
ENDBRANCH  16  17
ENDBRANCH  11   6
BRANCH  12   3
ATOM      3  O   UNL     1       1.822  -0.664  22.059  0.00  0.00    -0.387 OA
ATOM     19  H   UNL     1       2.756  -0.556  22.308  0.00  0.00    +0.210 HD
ENDBRANCH  12   3
TORSDOF 4
ENDMDL
MODEL 9
REMARK VINA RESULT:      -2.6      2.787      5.319
REMARK  Name = 11886660
REMARK  5 active torsions:
REMARK  status: ('A' for Active; 'I' for Inactive)
REMARK    1  A    between atoms: O_3  and  C_12
REMARK    2  A    between atoms: O_4  and  C_17
REMARK    3  A    between atoms: O_4  and  C_18
REMARK    4  A    between atoms: N_6  and  C_11
REMARK    5  A    between atoms: C_16  and  C_17
REMARK                            x       y       z     vdW  Elec       q    Type
REMARK                         _______ _______ _______ _____ _____    ______ ____
ROOT
ATOM      1  O   UNL     1      -1.775  -1.046  25.072  0.00  0.00    -0.369 OA
ATOM      2  O   UNL     1      -4.254  -1.660  23.330  0.00  0.00    -0.369 OA
ATOM      9  C   UNL     1      -3.937  -0.561  24.212  0.00  0.00    +0.176 C 
ATOM     10  C   UNL     1      -3.173  -1.147  25.384  0.00  0.00    +0.180 C 
ATOM     11  C   UNL     1      -2.943   0.363  23.535  0.00  0.00    +0.166 C 
ATOM     12  C   UNL     1      -3.641  -2.583  25.400  0.00  0.00    +0.171 C 
ATOM     13  C   UNL     1      -1.602  -0.282  23.870  0.00  0.00    +0.190 C 
ATOM     14  C   UNL     1      -3.798  -2.882  23.928  0.00  0.00    +0.194 C 
ENDROOT
BRANCH  11   6
ATOM      6  N   UNL     1      -3.094   1.757  23.961  0.00  0.00    -0.243 N 
ATOM      7  N   UNL     1      -3.922   2.581  23.306  0.00  0.00    -0.065 NA
ATOM      8  N   UNL     1      -3.853   3.763  23.910  0.00  0.00    -0.123 NA
ATOM     15  C   UNL     1      -2.472   2.375  24.998  0.00  0.00    +0.145 A 
ATOM     16  C   UNL     1      -2.969   3.653  24.948  0.00  0.00    +0.189 A 
BRANCH  16  17
ATOM      5  O   UNL     1      -3.213   4.956  26.911  0.00  0.00    -0.243 OA
ATOM     17  C   UNL     1      -2.646   4.736  25.821  0.00  0.00    +0.361 C 
BRANCH  17   4
ATOM      4  O   UNL     1      -1.629   5.555  25.366  0.00  0.00    -0.463 OA
ATOM     18  C   UNL     1      -0.539   4.931  24.679  0.00  0.00    +0.280 C 
ENDBRANCH  17   4
ENDBRANCH  16  17
ENDBRANCH  11   6
BRANCH  12   3
ATOM      3  O   UNL     1      -2.735  -3.463  26.027  0.00  0.00    -0.387 OA
ATOM     19  H   UNL     1      -3.080  -3.656  26.915  0.00  0.00    +0.210 HD
ENDBRANCH  12   3
TORSDOF 4
ENDMDL
MODEL 10
REMARK VINA RESULT:      -2.6      2.914      3.915
REMARK  Name = 11886660
REMARK  5 active torsions:
REMARK  status: ('A' for Active; 'I' for Inactive)
REMARK    1  A    between atoms: O_3  and  C_12
REMARK    2  A    between atoms: O_4  and  C_17
REMARK    3  A    between atoms: O_4  and  C_18
REMARK    4  A    between atoms: N_6  and  C_11
REMARK    5  A    between atoms: C_16  and  C_17
REMARK                            x       y       z     vdW  Elec       q    Type
REMARK                         _______ _______ _______ _____ _____    ______ ____
ROOT
ATOM      1  O   UNL     1      -2.853   0.502  23.503  0.00  0.00    -0.369 OA
ATOM      2  O   UNL     1      -2.064  -0.790  26.199  0.00  0.00    -0.369 OA
ATOM      9  C   UNL     1      -1.449  -0.821  24.892  0.00  0.00    +0.176 C 
ATOM     10  C   UNL     1      -2.576  -0.857  23.878  0.00  0.00    +0.180 C 
ATOM     11  C   UNL     1      -0.746   0.497  24.631  0.00  0.00    +0.166 C 
ATOM     12  C   UNL     1      -3.713  -1.461  24.668  0.00  0.00    +0.171 C 
ATOM     13  C   UNL     1      -1.864   1.371  24.075  0.00  0.00    +0.190 C 
ATOM     14  C   UNL     1      -3.488  -0.881  26.044  0.00  0.00    +0.194 C 
ENDROOT
BRANCH  11   6
ATOM      6  N   UNL     1       0.424   0.345  23.762  0.00  0.00    -0.243 N 
ATOM      7  N   UNL     1       0.359  -0.418  22.663  0.00  0.00    -0.065 NA
ATOM      8  N   UNL     1       1.553  -0.366  22.082  0.00  0.00    -0.123 NA
ATOM     15  C   UNL     1       1.649   0.908  23.921  0.00  0.00    +0.145 A 
ATOM     16  C   UNL     1       2.355   0.442  22.840  0.00  0.00    +0.189 A 
BRANCH  16  17
ATOM      5  O   UNL     1       4.155   0.822  21.350  0.00  0.00    -0.243 OA
ATOM     17  C   UNL     1       3.716   0.727  22.513  0.00  0.00    +0.361 C 
BRANCH  17   4
ATOM      4  O   UNL     1       4.544   0.896  23.608  0.00  0.00    -0.463 OA
ATOM     18  C   UNL     1       5.339  -0.224  24.011  0.00  0.00    +0.280 C 
ENDBRANCH  17   4
ENDBRANCH  16  17
ENDBRANCH  11   6
BRANCH  12   3
ATOM      3  O   UNL     1      -4.988  -1.138  24.158  0.00  0.00    -0.387 OA
ATOM     19  H   UNL     1      -5.147  -0.196  24.341  0.00  0.00    +0.210 HD
ENDBRANCH  12   3
TORSDOF 4
ENDMDL
