MODEL 1
REMARK VINA RESULT:       3.9      0.000      0.000
REMARK  Name = 7128130
REMARK  13 active torsions:
REMARK  status: ('A' for Active; 'I' for Inactive)
REMARK    1  A    between atoms: O_4  and  C_23
REMARK    2  A    between atoms: O_4  and  C_32
REMARK    3  A    between atoms: O_6  and  C_33
REMARK    4  A    between atoms: O_6  and  C_36
REMARK    5  A    between atoms: N_8  and  C_13
REMARK    6  A    between atoms: N_9  and  C_19
REMARK    7  A    between atoms: N_10  and  C_27
REMARK    8  A    between atoms: C_14  and  C_17
REMARK    9  A    between atoms: C_18  and  C_22
REMARK   10  A    between atoms: C_19  and  C_20
REMARK   11  A    between atoms: C_19  and  C_23
REMARK   12  A    between atoms: C_20  and  C_24
REMARK   13  A    between atoms: C_20  and  C_25
REMARK                            x       y       z     vdW  Elec       q    Type
REMARK                         _______ _______ _______ _____ _____    ______ ____
ROOT
ATOM      2  O   UNL     1      -1.924  -0.240  26.485  0.00  0.00    -0.268 OA
ATOM      7  N   UNL     1      -2.067   0.891  24.454  0.00  0.00    -0.283 N 
ATOM     13  C   UNL     1      -1.069   2.870  23.611  0.00  0.00    +0.105 C 
ATOM     14  C   UNL     1      -1.426   2.125  24.898  0.00  0.00    +0.182 C 
ATOM     15  C   UNL     1      -2.119   2.380  22.613  0.00  0.00    +0.043 C 
ATOM     16  C   UNL     1      -2.364   0.933  23.022  0.00  0.00    +0.111 C 
ATOM     18  C   UNL     1      -2.176  -0.218  25.283  0.00  0.00    +0.267 C 
ENDROOT
BRANCH  13   8
ATOM      3  O   UNL     1       0.570   0.728  24.573  0.00  0.00    -0.252 OA
ATOM      8  N   UNL     1       0.263   2.537  23.166  0.00  0.00    -0.294 N 
ATOM     10  N   UNL     1       2.249   1.389  23.070  0.00  0.00    -0.269 N 
ATOM     21  C   UNL     1       0.998   1.468  23.691  0.00  0.00    +0.304 C 
ATOM     37  H   UNL     1       0.660   3.059  22.393  0.00  0.00    +0.151 HD
ATOM     39  H   UNL     1       2.448   2.084  22.356  0.00  0.00    +0.156 HD
BRANCH  10  27
ATOM     27  C   UNL     1       3.281   0.454  23.315  0.00  0.00    +0.038 A 
ATOM     29  C   UNL     1       4.612   0.870  23.315  0.00  0.00    +0.069 A 
ATOM     31  C   UNL     1       2.968  -0.884  23.554  0.00  0.00    +0.023 A 
ATOM     33  C   UNL     1       5.631  -0.052  23.556  0.00  0.00    +0.122 A 
ATOM     34  C   UNL     1       3.987  -1.806  23.796  0.00  0.00    +0.005 A 
ATOM     35  C   UNL     1       5.318  -1.390  23.797  0.00  0.00    +0.046 A 
BRANCH  33   6
ATOM      6  O   UNL     1       6.931   0.353  23.558  0.00  0.00    -0.495 OA
ATOM     36  C   UNL     1       7.878  -0.499  22.918  0.00  0.00    +0.277 C 
ENDBRANCH  33   6
ENDBRANCH  10  27
ENDBRANCH  13   8
BRANCH  18  22
ATOM     11  N   UNL     1      -3.953  -1.604  24.463  0.00  0.00    -0.247 NA
ATOM     12  N   UNL     1      -2.134  -3.618  23.752  0.00  0.00    -0.259 NA
ATOM     22  C   UNL     1      -2.627  -1.473  24.667  0.00  0.00    +0.144 A 
ATOM     26  C   UNL     1      -1.734  -2.462  24.317  0.00  0.00    +0.143 A 
ATOM     28  C   UNL     1      -4.353  -2.760  23.897  0.00  0.00    +0.131 A 
ATOM     30  C   UNL     1      -3.461  -3.749  23.548  0.00  0.00    +0.130 A 
ENDBRANCH  18  22
BRANCH  14  17
ATOM      1  O   UNL     1      -2.132   3.632  26.609  0.00  0.00    -0.274 OA
ATOM      9  N   UNL     1      -3.746   2.560  25.318  0.00  0.00    -0.301 N 
ATOM     17  C   UNL     1      -2.450   2.866  25.704  0.00  0.00    +0.236 C 
ATOM     38  H   UNL     1      -3.882   1.952  24.516  0.00  0.00    +0.150 HD
BRANCH   9  19
ATOM     19  C   UNL     1      -4.913   3.122  25.951  0.00  0.00    +0.184 C 
BRANCH  19  20
ATOM     20  C   UNL     1      -6.145   2.197  25.845  0.00  0.00    +0.014 C 
ATOM     24  C   UNL     1      -5.962   1.153  24.740  0.00  0.00    +0.009 C 
ATOM     25  C   UNL     1      -6.498   1.504  27.165  0.00  0.00    +0.009 C 
ENDBRANCH  19  20
BRANCH  19  23
ATOM      5  O   UNL     1      -6.238   5.134  25.730  0.00  0.00    -0.249 OA
ATOM     23  C   UNL     1      -5.222   4.518  25.422  0.00  0.00    +0.328 C 
BRANCH  23   4
ATOM      4  O   UNL     1      -4.250   4.980  24.587  0.00  0.00    -0.467 OA
ATOM     32  C   UNL     1      -4.308   4.500  23.240  0.00  0.00    +0.280 C 
ENDBRANCH  23   4
ENDBRANCH  19  23
ENDBRANCH   9  19
ENDBRANCH  14  17
TORSDOF 9
ENDMDL
MODEL 2
REMARK VINA RESULT:       6.3      1.203      2.055
REMARK  Name = 7128130
REMARK  13 active torsions:
REMARK  status: ('A' for Active; 'I' for Inactive)
REMARK    1  A    between atoms: O_4  and  C_23
REMARK    2  A    between atoms: O_4  and  C_32
REMARK    3  A    between atoms: O_6  and  C_33
REMARK    4  A    between atoms: O_6  and  C_36
REMARK    5  A    between atoms: N_8  and  C_13
REMARK    6  A    between atoms: N_9  and  C_19
REMARK    7  A    between atoms: N_10  and  C_27
REMARK    8  A    between atoms: C_14  and  C_17
REMARK    9  A    between atoms: C_18  and  C_22
REMARK   10  A    between atoms: C_19  and  C_20
REMARK   11  A    between atoms: C_19  and  C_23
REMARK   12  A    between atoms: C_20  and  C_24
REMARK   13  A    between atoms: C_20  and  C_25
REMARK                            x       y       z     vdW  Elec       q    Type
REMARK                         _______ _______ _______ _____ _____    ______ ____
ROOT
ATOM      2  O   UNL     1      -2.123  -0.278  26.259  0.00  0.00    -0.268 OA
ATOM      7  N   UNL     1      -2.210   0.634  24.118  0.00  0.00    -0.283 N 
ATOM     13  C   UNL     1      -0.921   2.270  22.984  0.00  0.00    +0.105 C 
ATOM     14  C   UNL     1      -1.309   1.754  24.370  0.00  0.00    +0.182 C 
ATOM     15  C   UNL     1      -2.124   1.897  22.116  0.00  0.00    +0.043 C 
ATOM     16  C   UNL     1      -2.609   0.581  22.712  0.00  0.00    +0.111 C 
ATOM     18  C   UNL     1      -2.464  -0.335  25.080  0.00  0.00    +0.267 C 
ENDROOT
BRANCH  13   8
ATOM      3  O   UNL     1       1.171   1.141  24.583  0.00  0.00    -0.252 OA
ATOM      8  N   UNL     1       0.280   1.629  22.505  0.00  0.00    -0.294 N 
ATOM     10  N   UNL     1       2.302   0.546  22.613  0.00  0.00    -0.269 N 
ATOM     21  C   UNL     1       1.257   1.101  23.358  0.00  0.00    +0.304 C 
ATOM     37  H   UNL     1       0.393   1.496  21.506  0.00  0.00    +0.151 HD
ATOM     39  H   UNL     1       2.219   0.598  21.601  0.00  0.00    +0.156 HD
BRANCH  10  27
ATOM     27  C   UNL     1       3.472  -0.083  23.097  0.00  0.00    +0.038 A 
ATOM     29  C   UNL     1       4.689   0.599  23.078  0.00  0.00    +0.069 A 
ATOM     31  C   UNL     1       3.411  -1.386  23.592  0.00  0.00    +0.023 A 
ATOM     33  C   UNL     1       5.844  -0.022  23.554  0.00  0.00    +0.122 A 
ATOM     34  C   UNL     1       4.566  -2.006  24.069  0.00  0.00    +0.005 A 
ATOM     35  C   UNL     1       5.783  -1.324  24.050  0.00  0.00    +0.046 A 
BRANCH  33   6
ATOM      6  O   UNL     1       7.031   0.644  23.536  0.00  0.00    -0.495 OA
ATOM     36  C   UNL     1       8.189  -0.103  23.167  0.00  0.00    +0.277 C 
ENDBRANCH  33   6
ENDBRANCH  10  27
ENDBRANCH  13   8
BRANCH  18  22
ATOM     11  N   UNL     1      -2.648  -2.723  24.958  0.00  0.00    -0.247 NA
ATOM     12  N   UNL     1      -5.070  -2.524  23.558  0.00  0.00    -0.259 NA
ATOM     22  C   UNL     1      -3.197  -1.532  24.648  0.00  0.00    +0.144 A 
ATOM     26  C   UNL     1      -4.387  -1.434  23.961  0.00  0.00    +0.143 A 
ATOM     28  C   UNL     1      -3.331  -3.812  24.556  0.00  0.00    +0.131 A 
ATOM     30  C   UNL     1      -4.520  -3.716  23.868  0.00  0.00    +0.130 A 
ENDBRANCH  18  22
BRANCH  14  17
ATOM      1  O   UNL     1      -1.870   3.012  26.320  0.00  0.00    -0.274 OA
ATOM      9  N   UNL     1      -3.101   3.346  24.372  0.00  0.00    -0.301 N 
ATOM     17  C   UNL     1      -2.101   2.768  25.139  0.00  0.00    +0.236 C 
ATOM     38  H   UNL     1      -3.159   3.103  23.388  0.00  0.00    +0.150 HD
BRANCH   9  19
ATOM     19  C   UNL     1      -4.018   4.335  24.884  0.00  0.00    +0.184 C 
BRANCH  19  20
ATOM     20  C   UNL     1      -3.336   5.329  25.849  0.00  0.00    +0.014 C 
ATOM     24  C   UNL     1      -3.237   4.751  27.263  0.00  0.00    +0.009 C 
ATOM     25  C   UNL     1      -1.952   5.783  25.372  0.00  0.00    +0.009 C 
ENDBRANCH  19  20
BRANCH  19  23
ATOM      5  O   UNL     1      -6.227   4.332  25.869  0.00  0.00    -0.249 OA
ATOM     23  C   UNL     1      -5.239   3.688  25.527  0.00  0.00    +0.328 C 
BRANCH  23   4
ATOM      4  O   UNL     1      -5.095   2.341  25.671  0.00  0.00    -0.467 OA
ATOM     32  C   UNL     1      -6.158   1.541  25.144  0.00  0.00    +0.280 C 
ENDBRANCH  23   4
ENDBRANCH  19  23
ENDBRANCH   9  19
ENDBRANCH  14  17
TORSDOF 9
ENDMDL
