MODEL 1
REMARK VINA RESULT:      -3.1      0.000      0.000
REMARK  Name = 38029190
REMARK  14 active torsions:
REMARK  status: ('A' for Active; 'I' for Inactive)
REMARK    1  A    between atoms: N_4  and  C_15
REMARK    2  A    between atoms: N_5  and  C_22
REMARK    3  A    between atoms: N_5  and  C_23
REMARK    4  A    between atoms: N_6  and  C_25
REMARK    5  A    between atoms: C_8  and  C_12
REMARK    6  A    between atoms: C_9  and  C_15
REMARK    7  A    between atoms: C_11  and  C_16
REMARK    8  A    between atoms: C_12  and  C_17
REMARK    9  A    between atoms: C_12  and  C_18
REMARK   10  A    between atoms: C_13  and  C_19
REMARK   11  A    between atoms: C_16  and  C_20
REMARK   12  A    between atoms: C_22  and  C_24
REMARK   13  A    between atoms: C_34  and  C_35
REMARK   14  A    between atoms: C_35  and  C_36
REMARK                            x       y       z     vdW  Elec       q    Type
REMARK                         _______ _______ _______ _____ _____    ______ ____
ROOT
ATOM      8  C   UNL     1      14.400  -6.144  31.339  0.00  0.00    +0.000 C 
ATOM      9  C   UNL     1      15.445  -6.304  32.472  0.00  0.00    +0.032 C 
ATOM     10  C   UNL     1      13.317  -7.227  31.451  0.00  0.00    +0.012 C 
ATOM     11  C   UNL     1      13.904  -8.649  31.376  0.00  0.00    +0.023 C 
ATOM     13  C   UNL     1      15.114  -8.807  32.274  0.00  0.00    -0.073 C 
ATOM     14  C   UNL     1      15.782  -7.748  32.766  0.00  0.00    -0.022 C 
ATOM     19  C   UNL     1      15.512 -10.211  32.633  0.00  0.00    +0.039 C 
ENDROOT
BRANCH   8  12
ATOM     12  C   UNL     1      13.751  -4.756  31.356  0.00  0.00    -0.013 C 
ATOM     17  C   UNL     1      14.347  -3.904  32.472  0.00  0.00    +0.007 C 
ATOM     18  C   UNL     1      12.239  -4.879  31.518  0.00  0.00    +0.007 C 
ENDBRANCH   8  12
BRANCH   9  15
ATOM     15  C   UNL     1      16.732  -5.534  32.151  0.00  0.00    +0.113 C 
BRANCH  15   4
ATOM      2  O   UNL     1      16.414  -3.567  30.093  0.00  0.00    -0.253 OA
ATOM      4  N   UNL     1      17.078  -5.678  30.772  0.00  0.00    -0.299 N 
ATOM      6  N   UNL     1      17.322  -5.088  28.552  0.00  0.00    -0.269 N 
ATOM     21  C   UNL     1      16.892  -4.664  29.813  0.00  0.00    +0.304 C 
ATOM     37  H   UNL     1      17.543  -6.530  30.475  0.00  0.00    +0.150 HD
ATOM     38  H   UNL     1      17.693  -6.033  28.491  0.00  0.00    +0.156 HD
BRANCH   6  25
ATOM     25  C   UNL     1      17.301  -4.363  27.339  0.00  0.00    +0.035 A 
ATOM     28  C   UNL     1      17.253  -5.041  26.121  0.00  0.00    +0.024 A 
ATOM     29  C   UNL     1      17.329  -2.967  27.359  0.00  0.00    +0.024 A 
ATOM     31  C   UNL     1      17.233  -4.325  24.924  0.00  0.00    +0.013 A 
ATOM     32  C   UNL     1      17.310  -2.252  26.162  0.00  0.00    +0.013 A 
ATOM     34  C   UNL     1      17.261  -2.931  24.944  0.00  0.00    +0.017 A 
BRANCH  34  35
ATOM      3  O   UNL     1      17.405  -0.949  23.673  0.00  0.00    -0.292 OA
ATOM     35  C   UNL     1      17.241  -2.186  23.696  0.00  0.00    +0.160 C 
ATOM     36  C   UNL     1      17.017  -2.910  22.372  0.00  0.00    +0.091 C 
ENDBRANCH  34  35
ENDBRANCH   6  25
ENDBRANCH  15   4
ENDBRANCH   9  15
BRANCH  11  16
ATOM     16  C   UNL     1      14.240  -9.031  29.931  0.00  0.00    +0.103 C 
BRANCH  16  20
ATOM      1  O   UNL     1      15.684 -10.761  30.748  0.00  0.00    -0.276 OA
ATOM      5  N   UNL     1      16.221  -9.834  28.691  0.00  0.00    -0.300 N 
ATOM     20  C   UNL     1      15.438  -9.957  29.844  0.00  0.00    +0.216 C 
ATOM     23  C   UNL     1      17.405 -10.650  28.457  0.00  0.00    +0.132 C 
BRANCH   5  22
ATOM     22  C   UNL     1      15.909  -8.874  27.633  0.00  0.00    +0.144 C 
BRANCH  22  24
ATOM      7  N   UNL     1      15.807 -10.623  24.281  0.00  0.00    -0.263 NA
ATOM     24  C   UNL     1      15.373  -9.549  26.404  0.00  0.00    -0.012 A 
ATOM     26  C   UNL     1      14.006  -9.730  26.223  0.00  0.00    +0.008 A 
ATOM     27  C   UNL     1      16.224 -10.010  25.412  0.00  0.00    +0.115 A 
ATOM     30  C   UNL     1      13.539 -10.357  25.074  0.00  0.00    +0.020 A 
ATOM     33  C   UNL     1      14.472 -10.781  24.141  0.00  0.00    +0.111 A 
ENDBRANCH  22  24
ENDBRANCH   5  22
ENDBRANCH  16  20
ENDBRANCH  11  16
TORSDOF 9
ENDMDL
