MODEL 1
REMARK VINA RESULT:      -1.9      0.000      0.000
REMARK  Name = 75536283
REMARK  11 active torsions:
REMARK  status: ('A' for Active; 'I' for Inactive)
REMARK    1  A    between atoms: O_2  and  C_12
REMARK    2  A    between atoms: O_5  and  C_21
REMARK    3  A    between atoms: O_5  and  C_27
REMARK    4  A    between atoms: O_6  and  C_23
REMARK    5  A    between atoms: O_6  and  C_29
REMARK    6  A    between atoms: N_7  and  C_16
REMARK    7  A    between atoms: N_9  and  C_22
REMARK    8  A    between atoms: C_10  and  C_15
REMARK    9  A    between atoms: C_11  and  C_16
REMARK   10  A    between atoms: C_15  and  C_17
REMARK   11  A    between atoms: C_20  and  C_21
REMARK                            x       y       z     vdW  Elec       q    Type
REMARK                         _______ _______ _______ _____ _____    ______ ____
ROOT
ATOM      1  O   UNL     1      -0.769  -1.384  23.565  0.00  0.00    -0.369 OA
ATOM     10  C   UNL     1      -1.028  -0.066  24.059  0.00  0.00    +0.125 C 
ATOM     11  C   UNL     1      -1.260  -2.450  24.388  0.00  0.00    +0.164 C 
ATOM     12  C   UNL     1      -0.723  -2.343  25.821  0.00  0.00    +0.145 C 
ATOM     13  C   UNL     1      -0.405   0.123  25.442  0.00  0.00    +0.034 C 
ATOM     14  C   UNL     1      -0.907  -0.946  26.408  0.00  0.00    +0.036 C 
ENDROOT
BRANCH  12   2
ATOM      2  O   UNL     1       0.678  -2.630  25.810  0.00  0.00    -0.389 OA
ATOM     30  H   UNL     1       1.091  -2.049  25.150  0.00  0.00    +0.210 HD
ENDBRANCH  12   2
BRANCH  10  15
ATOM     15  C   UNL     1      -0.439   0.922  23.059  0.00  0.00    +0.090 C 
BRANCH  15  17
ATOM      3  O   UNL     1       2.752  -0.299  21.912  0.00  0.00    -0.357 OA
ATOM      8  N   UNL     1       1.363  -0.307  21.919  0.00  0.00    -0.083 NA
ATOM     17  C   UNL     1       1.016   0.643  22.792  0.00  0.00    +0.086 A 
ATOM     18  C   UNL     1       2.134   1.278  23.362  0.00  0.00    +0.073 A 
ATOM     20  C   UNL     1       3.200   0.648  22.775  0.00  0.00    +0.163 A 
BRANCH  20  21
ATOM     21  C   UNL     1       4.656   0.794  22.893  0.00  0.00    +0.236 C 
BRANCH  21   5
ATOM      5  O   UNL     1       5.079   0.485  24.223  0.00  0.00    -0.375 OA
ATOM     27  C   UNL     1       5.496  -0.867  24.328  0.00  0.00    +0.194 C 
ENDBRANCH  21   5
ENDBRANCH  20  21
ENDBRANCH  15  17
ENDBRANCH  10  15
BRANCH  11  16
ATOM     16  C   UNL     1      -2.785  -2.535  24.327  0.00  0.00    +0.140 C 
BRANCH  16   7
ATOM      4  O   UNL     1      -3.755  -0.452  26.037  0.00  0.00    -0.253 OA
ATOM      7  N   UNL     1      -3.351  -1.287  23.916  0.00  0.00    -0.297 N 
ATOM      9  N   UNL     1      -4.310   0.801  24.130  0.00  0.00    -0.266 N 
ATOM     19  C   UNL     1      -3.808  -0.308  24.817  0.00  0.00    +0.304 C 
ATOM     31  H   UNL     1      -3.471  -1.118  22.923  0.00  0.00    +0.150 HD
ATOM     32  H   UNL     1      -4.275   0.763  23.115  0.00  0.00    +0.156 HD
BRANCH   9  22
ATOM     22  C   UNL     1      -4.858   1.986  24.677  0.00  0.00    +0.077 A 
ATOM     23  C   UNL     1      -4.114   3.165  24.705  0.00  0.00    +0.141 A 
ATOM     24  C   UNL     1      -6.153   1.964  25.192  0.00  0.00    +0.027 A 
ATOM     25  C   UNL     1      -4.667   4.325  25.248  0.00  0.00    +0.047 A 
ATOM     26  C   UNL     1      -6.706   3.124  25.736  0.00  0.00    +0.002 A 
ATOM     28  C   UNL     1      -5.963   4.304  25.764  0.00  0.00    +0.004 A 
BRANCH  23   6
ATOM      6  O   UNL     1      -2.846   3.206  24.206  0.00  0.00    -0.493 OA
ATOM     29  C   UNL     1      -1.848   3.811  25.027  0.00  0.00    +0.277 C 
ENDBRANCH  23   6
ENDBRANCH   9  22
ENDBRANCH  16   7
ENDBRANCH  11  16
TORSDOF 9
ENDMDL
MODEL 2
REMARK VINA RESULT:      -1.8      1.933      2.696
REMARK  Name = 75536283
REMARK  11 active torsions:
REMARK  status: ('A' for Active; 'I' for Inactive)
REMARK    1  A    between atoms: O_2  and  C_12
REMARK    2  A    between atoms: O_5  and  C_21
REMARK    3  A    between atoms: O_5  and  C_27
REMARK    4  A    between atoms: O_6  and  C_23
REMARK    5  A    between atoms: O_6  and  C_29
REMARK    6  A    between atoms: N_7  and  C_16
REMARK    7  A    between atoms: N_9  and  C_22
REMARK    8  A    between atoms: C_10  and  C_15
REMARK    9  A    between atoms: C_11  and  C_16
REMARK   10  A    between atoms: C_15  and  C_17
REMARK   11  A    between atoms: C_20  and  C_21
REMARK                            x       y       z     vdW  Elec       q    Type
REMARK                         _______ _______ _______ _____ _____    ______ ____
ROOT
ATOM      1  O   UNL     1      -2.442  -2.338  23.680  0.00  0.00    -0.369 OA
ATOM     10  C   UNL     1      -1.451  -1.344  23.953  0.00  0.00    +0.125 C 
ATOM     11  C   UNL     1      -3.688  -2.162  24.367  0.00  0.00    +0.164 C 
ATOM     12  C   UNL     1      -3.482  -2.071  25.884  0.00  0.00    +0.145 C 
ATOM     13  C   UNL     1      -1.128  -1.300  25.446  0.00  0.00    +0.034 C 
ATOM     14  C   UNL     1      -2.395  -1.068  26.264  0.00  0.00    +0.036 C 
ENDROOT
BRANCH  12   2
ATOM      2  O   UNL     1      -3.081  -3.354  26.373  0.00  0.00    -0.389 OA
ATOM     30  H   UNL     1      -3.162  -3.337  27.341  0.00  0.00    +0.210 HD
ENDBRANCH  12   2
BRANCH  10  15
ATOM     15  C   UNL     1      -0.212  -1.696  23.139  0.00  0.00    +0.090 C 
BRANCH  15  17
ATOM      3  O   UNL     1       1.613   1.388  23.519  0.00  0.00    -0.357 OA
ATOM      8  N   UNL     1       0.466   0.615  23.644  0.00  0.00    -0.083 NA
ATOM     17  C   UNL     1       0.803  -0.585  23.160  0.00  0.00    +0.086 A 
ATOM     18  C   UNL     1       2.137  -0.626  22.718  0.00  0.00    +0.073 A 
ATOM     20  C   UNL     1       2.601   0.639  22.966  0.00  0.00    +0.163 A 
BRANCH  20  21
ATOM     21  C   UNL     1       3.893   1.305  22.760  0.00  0.00    +0.236 C 
BRANCH  21   5
ATOM      5  O   UNL     1       4.944   0.338  22.690  0.00  0.00    -0.375 OA
ATOM     27  C   UNL     1       5.472   0.062  23.977  0.00  0.00    +0.194 C 
ENDBRANCH  21   5
ENDBRANCH  20  21
ENDBRANCH  15  17
ENDBRANCH  10  15
BRANCH  11  16
ATOM     16  C   UNL     1      -4.467  -0.977  23.798  0.00  0.00    +0.140 C 
BRANCH  16   7
ATOM      4  O   UNL     1      -2.852   1.262  23.034  0.00  0.00    -0.253 OA
ATOM      7  N   UNL     1      -4.230   0.207  24.565  0.00  0.00    -0.297 N 
ATOM      9  N   UNL     1      -3.373   2.287  25.081  0.00  0.00    -0.266 N 
ATOM     19  C   UNL     1      -3.422   1.269  24.123  0.00  0.00    +0.304 C 
ATOM     31  H   UNL     1      -4.630   0.263  25.497  0.00  0.00    +0.150 HD
ATOM     32  H   UNL     1      -3.910   2.138  25.932  0.00  0.00    +0.156 HD
BRANCH   9  22
ATOM     22  C   UNL     1      -2.672   3.513  25.010  0.00  0.00    +0.077 A 
ATOM     23  C   UNL     1      -1.301   3.563  25.264  0.00  0.00    +0.141 A 
ATOM     24  C   UNL     1      -3.365   4.679  24.686  0.00  0.00    +0.027 A 
ATOM     25  C   UNL     1      -0.623   4.780  25.192  0.00  0.00    +0.047 A 
ATOM     26  C   UNL     1      -2.687   5.896  24.614  0.00  0.00    +0.002 A 
ATOM     28  C   UNL     1      -1.316   5.947  24.867  0.00  0.00    +0.004 A 
BRANCH  23   6
ATOM      6  O   UNL     1      -0.606   2.435  25.584  0.00  0.00    -0.493 OA
ATOM     29  C   UNL     1       0.270   2.511  26.707  0.00  0.00    +0.277 C 
ENDBRANCH  23   6
ENDBRANCH   9  22
ENDBRANCH  16   7
ENDBRANCH  11  16
TORSDOF 9
ENDMDL
MODEL 3
REMARK VINA RESULT:      -1.7      1.703      4.953
REMARK  Name = 75536283
REMARK  11 active torsions:
REMARK  status: ('A' for Active; 'I' for Inactive)
REMARK    1  A    between atoms: O_2  and  C_12
REMARK    2  A    between atoms: O_5  and  C_21
REMARK    3  A    between atoms: O_5  and  C_27
REMARK    4  A    between atoms: O_6  and  C_23
REMARK    5  A    between atoms: O_6  and  C_29
REMARK    6  A    between atoms: N_7  and  C_16
REMARK    7  A    between atoms: N_9  and  C_22
REMARK    8  A    between atoms: C_10  and  C_15
REMARK    9  A    between atoms: C_11  and  C_16
REMARK   10  A    between atoms: C_15  and  C_17
REMARK   11  A    between atoms: C_20  and  C_21
REMARK                            x       y       z     vdW  Elec       q    Type
REMARK                         _______ _______ _______ _____ _____    ______ ____
ROOT
ATOM      1  O   UNL     1      -1.798   3.570  26.073  0.00  0.00    -0.369 OA
ATOM     10  C   UNL     1      -1.212   2.927  24.938  0.00  0.00    +0.125 C 
ATOM     11  C   UNL     1      -2.805   4.544  25.770  0.00  0.00    +0.164 C 
ATOM     12  C   UNL     1      -2.272   5.617  24.811  0.00  0.00    +0.145 C 
ATOM     13  C   UNL     1      -0.563   3.954  24.011  0.00  0.00    +0.034 C 
ATOM     14  C   UNL     1      -1.577   5.016  23.593  0.00  0.00    +0.036 C 
ENDROOT
BRANCH  12   2
ATOM      2  O   UNL     1      -1.316   6.422  25.507  0.00  0.00    -0.389 OA
ATOM     30  H   UNL     1      -1.239   7.264  25.028  0.00  0.00    +0.210 HD
ENDBRANCH  12   2
BRANCH  10  15
ATOM     15  C   UNL     1      -0.177   1.935  25.457  0.00  0.00    +0.090 C 
BRANCH  15  17
ATOM      3  O   UNL     1       0.773  -0.088  22.630  0.00  0.00    -0.357 OA
ATOM      8  N   UNL     1      -0.158   0.384  23.547  0.00  0.00    -0.083 NA
ATOM     17  C   UNL     1       0.525   1.223  24.332  0.00  0.00    +0.086 A 
ATOM     18  C   UNL     1       1.878   1.319  23.961  0.00  0.00    +0.073 A 
ATOM     20  C   UNL     1       1.981   0.476  22.887  0.00  0.00    +0.163 A 
BRANCH  20  21
ATOM     21  C   UNL     1       3.089   0.084  22.006  0.00  0.00    +0.236 C 
BRANCH  21   5
ATOM      5  O   UNL     1       4.266   0.828  22.328  0.00  0.00    -0.375 OA
ATOM     27  C   UNL     1       5.091   0.114  23.235  0.00  0.00    +0.194 C 
ENDBRANCH  21   5
ENDBRANCH  20  21
ENDBRANCH  15  17
ENDBRANCH  10  15
BRANCH  11  16
ATOM     16  C   UNL     1      -4.083   3.875  25.266  0.00  0.00    +0.140 C 
BRANCH  16   7
ATOM      4  O   UNL     1      -3.504   1.644  23.565  0.00  0.00    -0.253 OA
ATOM      7  N   UNL     1      -4.115   2.492  25.630  0.00  0.00    -0.297 N 
ATOM      9  N   UNL     1      -3.933   0.206  25.371  0.00  0.00    -0.266 N 
ATOM     19  C   UNL     1      -3.818   1.447  24.738  0.00  0.00    +0.304 C 
ATOM     31  H   UNL     1      -4.413   2.250  26.570  0.00  0.00    +0.150 HD
ATOM     32  H   UNL     1      -4.197   0.218  26.353  0.00  0.00    +0.156 HD
BRANCH   9  22
ATOM     22  C   UNL     1      -3.716  -1.076  24.815  0.00  0.00    +0.077 A 
ATOM     23  C   UNL     1      -2.538  -1.775  25.077  0.00  0.00    +0.141 A 
ATOM     24  C   UNL     1      -4.694  -1.639  23.995  0.00  0.00    +0.027 A 
ATOM     25  C   UNL     1      -2.338  -3.038  24.520  0.00  0.00    +0.047 A 
ATOM     26  C   UNL     1      -4.494  -2.902  23.438  0.00  0.00    +0.002 A 
ATOM     28  C   UNL     1      -3.316  -3.602  23.700  0.00  0.00    +0.004 A 
BRANCH  23   6
ATOM      6  O   UNL     1      -1.570  -1.242  25.875  0.00  0.00    -0.493 OA
ATOM     29  C   UNL     1      -0.274  -1.834  25.803  0.00  0.00    +0.277 C 
ENDBRANCH  23   6
ENDBRANCH   9  22
ENDBRANCH  16   7
ENDBRANCH  11  16
TORSDOF 9
ENDMDL
MODEL 4
REMARK VINA RESULT:      -1.4      2.170      5.930
REMARK  Name = 75536283
REMARK  11 active torsions:
REMARK  status: ('A' for Active; 'I' for Inactive)
REMARK    1  A    between atoms: O_2  and  C_12
REMARK    2  A    between atoms: O_5  and  C_21
REMARK    3  A    between atoms: O_5  and  C_27
REMARK    4  A    between atoms: O_6  and  C_23
REMARK    5  A    between atoms: O_6  and  C_29
REMARK    6  A    between atoms: N_7  and  C_16
REMARK    7  A    between atoms: N_9  and  C_22
REMARK    8  A    between atoms: C_10  and  C_15
REMARK    9  A    between atoms: C_11  and  C_16
REMARK   10  A    between atoms: C_15  and  C_17
REMARK   11  A    between atoms: C_20  and  C_21
REMARK                            x       y       z     vdW  Elec       q    Type
REMARK                         _______ _______ _______ _____ _____    ______ ____
ROOT
ATOM      1  O   UNL     1      -4.647   3.425  26.548  0.00  0.00    -0.369 OA
ATOM     10  C   UNL     1      -3.533   3.544  25.659  0.00  0.00    +0.125 C 
ATOM     11  C   UNL     1      -5.933   3.404  25.915  0.00  0.00    +0.164 C 
ATOM     12  C   UNL     1      -6.137   4.639  25.027  0.00  0.00    +0.145 C 
ATOM     13  C   UNL     1      -3.637   4.827  24.834  0.00  0.00    +0.034 C 
ATOM     14  C   UNL     1      -4.963   4.876  24.081  0.00  0.00    +0.036 C 
ENDROOT
BRANCH  12   2
ATOM      2  O   UNL     1      -6.264   5.792  25.864  0.00  0.00    -0.389 OA
ATOM     30  H   UNL     1      -5.414   5.919  26.318  0.00  0.00    +0.210 HD
ENDBRANCH  12   2
BRANCH  10  15
ATOM     15  C   UNL     1      -2.267   3.546  26.508  0.00  0.00    +0.090 C 
BRANCH  15  17
ATOM      3  O   UNL     1       0.854   2.036  25.525  0.00  0.00    -0.357 OA
ATOM      8  N   UNL     1       0.038   2.687  26.442  0.00  0.00    -0.083 NA
ATOM     17  C   UNL     1      -1.125   2.863  25.806  0.00  0.00    +0.086 A 
ATOM     18  C   UNL     1      -1.100   2.349  24.498  0.00  0.00    +0.073 A 
ATOM     20  C   UNL     1       0.166   1.841  24.372  0.00  0.00    +0.163 A 
BRANCH  20  21
ATOM     21  C   UNL     1       0.884   1.161  23.286  0.00  0.00    +0.236 C 
BRANCH  21   5
ATOM      5  O   UNL     1       2.295   1.337  23.439  0.00  0.00    -0.375 OA
ATOM     27  C   UNL     1       3.016   0.410  22.644  0.00  0.00    +0.194 C 
ENDBRANCH  21   5
ENDBRANCH  20  21
ENDBRANCH  15  17
ENDBRANCH  10  15
BRANCH  11  16
ATOM     16  C   UNL     1      -6.159   2.089  25.171  0.00  0.00    +0.140 C 
BRANCH  16   7
ATOM      4  O   UNL     1      -3.933   0.828  23.884  0.00  0.00    -0.253 OA
ATOM      7  N   UNL     1      -5.338   1.048  25.709  0.00  0.00    -0.297 N 
ATOM      9  N   UNL     1      -3.644  -0.516  25.787  0.00  0.00    -0.266 N 
ATOM     19  C   UNL     1      -4.258   0.475  25.016  0.00  0.00    +0.304 C 
ATOM     31  H   UNL     1      -5.577   0.673  26.622  0.00  0.00    +0.150 HD
ATOM     32  H   UNL     1      -4.034  -0.682  26.712  0.00  0.00    +0.156 HD
BRANCH   9  22
ATOM     22  C   UNL     1      -2.530  -1.318  25.444  0.00  0.00    +0.077 A 
ATOM     23  C   UNL     1      -2.707  -2.533  24.783  0.00  0.00    +0.141 A 
ATOM     24  C   UNL     1      -1.247  -0.884  25.776  0.00  0.00    +0.027 A 
ATOM     25  C   UNL     1      -1.600  -3.314  24.452  0.00  0.00    +0.047 A 
ATOM     26  C   UNL     1      -0.140  -1.665  25.446  0.00  0.00    +0.002 A 
ATOM     28  C   UNL     1      -0.315  -2.881  24.784  0.00  0.00    +0.004 A 
BRANCH  23   6
ATOM      6  O   UNL     1      -3.953  -2.976  24.450  0.00  0.00    -0.493 OA
ATOM     29  C   UNL     1      -4.468  -2.565  23.185  0.00  0.00    +0.277 C 
ENDBRANCH  23   6
ENDBRANCH   9  22
ENDBRANCH  16   7
ENDBRANCH  11  16
TORSDOF 9
ENDMDL
MODEL 5
REMARK VINA RESULT:      -0.5      1.885      6.786
REMARK  Name = 75536283
REMARK  11 active torsions:
REMARK  status: ('A' for Active; 'I' for Inactive)
REMARK    1  A    between atoms: O_2  and  C_12
REMARK    2  A    between atoms: O_5  and  C_21
REMARK    3  A    between atoms: O_5  and  C_27
REMARK    4  A    between atoms: O_6  and  C_23
REMARK    5  A    between atoms: O_6  and  C_29
REMARK    6  A    between atoms: N_7  and  C_16
REMARK    7  A    between atoms: N_9  and  C_22
REMARK    8  A    between atoms: C_10  and  C_15
REMARK    9  A    between atoms: C_11  and  C_16
REMARK   10  A    between atoms: C_15  and  C_17
REMARK   11  A    between atoms: C_20  and  C_21
REMARK                            x       y       z     vdW  Elec       q    Type
REMARK                         _______ _______ _______ _____ _____    ______ ____
ROOT
ATOM      1  O   UNL     1      -3.619   2.241  24.433  0.00  0.00    -0.369 OA
ATOM     10  C   UNL     1      -4.679   1.863  25.315  0.00  0.00    +0.125 C 
ATOM     11  C   UNL     1      -2.893   3.414  24.821  0.00  0.00    +0.164 C 
ATOM     12  C   UNL     1      -3.831   4.614  25.013  0.00  0.00    +0.145 C 
ATOM     13  C   UNL     1      -5.703   2.990  25.442  0.00  0.00    +0.034 C 
ATOM     14  C   UNL     1      -5.028   4.280  25.899  0.00  0.00    +0.036 C 
ENDROOT
BRANCH  12   2
ATOM      2  O   UNL     1      -4.332   5.014  23.734  0.00  0.00    -0.389 OA
ATOM     30  H   UNL     1      -3.975   4.398  23.073  0.00  0.00    +0.210 HD
ENDBRANCH  12   2
BRANCH  10  15
ATOM     15  C   UNL     1      -5.325   0.606  24.742  0.00  0.00    +0.090 C 
BRANCH  15  17
ATOM      3  O   UNL     1      -3.501  -2.401  23.958  0.00  0.00    -0.357 OA
ATOM      8  N   UNL     1      -4.591  -1.551  23.814  0.00  0.00    -0.083 NA
ATOM     17  C   UNL     1      -4.341  -0.527  24.637  0.00  0.00    +0.086 A 
ATOM     18  C   UNL     1      -3.121  -0.676  25.319  0.00  0.00    +0.073 A 
ATOM     20  C   UNL     1      -2.633  -1.870  24.856  0.00  0.00    +0.163 A 
BRANCH  20  21
ATOM     21  C   UNL     1      -1.416  -2.644  25.130  0.00  0.00    +0.236 C 
BRANCH  21   5
ATOM      5  O   UNL     1      -0.329  -1.767  25.437  0.00  0.00    -0.375 OA
ATOM     27  C   UNL     1       0.907  -2.464  25.440  0.00  0.00    +0.194 C 
ENDBRANCH  21   5
ENDBRANCH  20  21
ENDBRANCH  15  17
ENDBRANCH  10  15
BRANCH  11  16
ATOM     16  C   UNL     1      -2.017   3.141  26.043  0.00  0.00    +0.140 C 
BRANCH  16   7
ATOM      4  O   UNL     1      -0.293   3.096  23.756  0.00  0.00    -0.253 OA
ATOM      7  N   UNL     1      -1.015   2.163  25.746  0.00  0.00    -0.297 N 
ATOM      9  N   UNL     1       0.679   1.123  24.576  0.00  0.00    -0.266 N 
ATOM     19  C   UNL     1      -0.204   2.206  24.599  0.00  0.00    +0.304 C 
ATOM     31  H   UNL     1      -0.917   1.372  26.375  0.00  0.00    +0.150 HD
ATOM     32  H   UNL     1       0.629   0.476  25.359  0.00  0.00    +0.156 HD
BRANCH   9  22
ATOM     22  C   UNL     1       1.650   0.815  23.594  0.00  0.00    +0.077 A 
ATOM     23  C   UNL     1       1.358  -0.076  22.561  0.00  0.00    +0.141 A 
ATOM     24  C   UNL     1       2.909   1.410  23.667  0.00  0.00    +0.027 A 
ATOM     25  C   UNL     1       2.326  -0.371  21.601  0.00  0.00    +0.047 A 
ATOM     26  C   UNL     1       3.877   1.115  22.707  0.00  0.00    +0.002 A 
ATOM     28  C   UNL     1       3.586   0.224  21.674  0.00  0.00    +0.004 A 
BRANCH  23   6
ATOM      6  O   UNL     1       0.134  -0.669  22.471  0.00  0.00    -0.493 OA
ATOM     29  C   UNL     1      -0.998   0.195  22.379  0.00  0.00    +0.277 C 
ENDBRANCH  23   6
ENDBRANCH   9  22
ENDBRANCH  16   7
ENDBRANCH  11  16
TORSDOF 9
ENDMDL
MODEL 6
REMARK VINA RESULT:      -0.1      1.993      7.232
REMARK  Name = 75536283
REMARK  11 active torsions:
REMARK  status: ('A' for Active; 'I' for Inactive)
REMARK    1  A    between atoms: O_2  and  C_12
REMARK    2  A    between atoms: O_5  and  C_21
REMARK    3  A    between atoms: O_5  and  C_27
REMARK    4  A    between atoms: O_6  and  C_23
REMARK    5  A    between atoms: O_6  and  C_29
REMARK    6  A    between atoms: N_7  and  C_16
REMARK    7  A    between atoms: N_9  and  C_22
REMARK    8  A    between atoms: C_10  and  C_15
REMARK    9  A    between atoms: C_11  and  C_16
REMARK   10  A    between atoms: C_15  and  C_17
REMARK   11  A    between atoms: C_20  and  C_21
REMARK                            x       y       z     vdW  Elec       q    Type
REMARK                         _______ _______ _______ _____ _____    ______ ____
ROOT
ATOM      1  O   UNL     1      -3.068   0.302  25.104  0.00  0.00    -0.369 OA
ATOM     10  C   UNL     1      -4.275   0.440  24.349  0.00  0.00    +0.125 C 
ATOM     11  C   UNL     1      -2.150  -0.682  24.611  0.00  0.00    +0.164 C 
ATOM     12  C   UNL     1      -2.819  -2.058  24.488  0.00  0.00    +0.145 C 
ATOM     13  C   UNL     1      -5.036  -0.885  24.301  0.00  0.00    +0.034 C 
ATOM     14  C   UNL     1      -4.149  -1.994  23.742  0.00  0.00    +0.036 C 
ENDROOT
BRANCH  12   2
ATOM      2  O   UNL     1      -3.079  -2.562  25.802  0.00  0.00    -0.389 OA
ATOM     30  H   UNL     1      -2.717  -1.922  26.437  0.00  0.00    +0.210 HD
ENDBRANCH  12   2
BRANCH  10  15
ATOM     15  C   UNL     1      -5.113   1.522  25.019  0.00  0.00    +0.090 C 
BRANCH  15  17
ATOM      3  O   UNL     1      -3.666   4.510  26.422  0.00  0.00    -0.357 OA
ATOM      8  N   UNL     1      -4.611   3.492  26.406  0.00  0.00    -0.083 NA
ATOM     17  C   UNL     1      -4.291   2.739  25.349  0.00  0.00    +0.086 A 
ATOM     18  C   UNL     1      -3.165   3.230  24.666  0.00  0.00    +0.073 A 
ATOM     20  C   UNL     1      -2.811   4.344  25.380  0.00  0.00    +0.163 A 
BRANCH  20  21
ATOM     21  C   UNL     1      -1.741   5.340  25.245  0.00  0.00    +0.236 C 
BRANCH  21   5
ATOM      5  O   UNL     1      -0.569   4.737  24.688  0.00  0.00    -0.375 OA
ATOM     27  C   UNL     1      -0.144   3.629  25.465  0.00  0.00    +0.194 C 
ENDBRANCH  21   5
ENDBRANCH  20  21
ENDBRANCH  15  17
ENDBRANCH  10  15
BRANCH  11  16
ATOM     16  C   UNL     1      -1.493  -0.220  23.311  0.00  0.00    +0.140 C 
BRANCH  16   7
ATOM      4  O   UNL     1       1.048   0.914  23.988  0.00  0.00    -0.253 OA
ATOM      7  N   UNL     1      -0.211  -0.832  23.139  0.00  0.00    -0.297 N 
ATOM      9  N   UNL     1       2.085  -1.045  23.212  0.00  0.00    -0.266 N 
ATOM     19  C   UNL     1       0.999  -0.212  23.496  0.00  0.00    +0.304 C 
ATOM     31  H   UNL     1      -0.171  -1.743  22.694  0.00  0.00    +0.150 HD
ATOM     32  H   UNL     1       1.870  -1.954  22.810  0.00  0.00    +0.156 HD
BRANCH   9  22
ATOM     22  C   UNL     1       3.459  -0.783  23.426  0.00  0.00    +0.077 A 
ATOM     23  C   UNL     1       4.023   0.426  23.020  0.00  0.00    +0.141 A 
ATOM     24  C   UNL     1       4.250  -1.751  24.045  0.00  0.00    +0.027 A 
ATOM     25  C   UNL     1       5.379   0.669  23.236  0.00  0.00    +0.047 A 
ATOM     26  C   UNL     1       5.607  -1.508  24.261  0.00  0.00    +0.002 A 
ATOM     28  C   UNL     1       6.172  -0.298  23.856  0.00  0.00    +0.004 A 
BRANCH  23   6
ATOM      6  O   UNL     1       3.267   1.384  22.413  0.00  0.00    -0.493 OA
ATOM     29  C   UNL     1       3.880   2.654  22.201  0.00  0.00    +0.277 C 
ENDBRANCH  23   6
ENDBRANCH   9  22
ENDBRANCH  16   7
ENDBRANCH  11  16
TORSDOF 9
ENDMDL
MODEL 7
REMARK VINA RESULT:       0.6      1.773      7.058
REMARK  Name = 75536283
REMARK  11 active torsions:
REMARK  status: ('A' for Active; 'I' for Inactive)
REMARK    1  A    between atoms: O_2  and  C_12
REMARK    2  A    between atoms: O_5  and  C_21
REMARK    3  A    between atoms: O_5  and  C_27
REMARK    4  A    between atoms: O_6  and  C_23
REMARK    5  A    between atoms: O_6  and  C_29
REMARK    6  A    between atoms: N_7  and  C_16
REMARK    7  A    between atoms: N_9  and  C_22
REMARK    8  A    between atoms: C_10  and  C_15
REMARK    9  A    between atoms: C_11  and  C_16
REMARK   10  A    between atoms: C_15  and  C_17
REMARK   11  A    between atoms: C_20  and  C_21
REMARK                            x       y       z     vdW  Elec       q    Type
REMARK                         _______ _______ _______ _____ _____    ______ ____
ROOT
ATOM      1  O   UNL     1      -3.008   2.716  24.860  0.00  0.00    -0.369 OA
ATOM     10  C   UNL     1      -4.082   2.585  25.795  0.00  0.00    +0.125 C 
ATOM     11  C   UNL     1      -1.968   3.623  25.249  0.00  0.00    +0.164 C 
ATOM     12  C   UNL     1      -2.529   5.017  25.559  0.00  0.00    +0.145 C 
ATOM     13  C   UNL     1      -4.749   3.937  26.044  0.00  0.00    +0.034 C 
ATOM     14  C   UNL     1      -3.722   4.965  26.510  0.00  0.00    +0.036 C 
ENDROOT
BRANCH  12   2
ATOM      2  O   UNL     1      -2.971   5.617  24.338  0.00  0.00    -0.389 OA
ATOM     30  H   UNL     1      -2.191   5.994  23.898  0.00  0.00    +0.210 HD
ENDBRANCH  12   2
BRANCH  10  15
ATOM     15  C   UNL     1      -5.078   1.589  25.212  0.00  0.00    +0.090 C 
BRANCH  15  17
ATOM      3  O   UNL     1      -3.697  -1.295  23.550  0.00  0.00    -0.357 OA
ATOM      8  N   UNL     1      -4.372  -0.081  23.548  0.00  0.00    -0.083 NA
ATOM     17  C   UNL     1      -4.412   0.294  24.831  0.00  0.00    +0.086 A 
ATOM     18  C   UNL     1      -3.784  -0.635  25.678  0.00  0.00    +0.073 A 
ATOM     20  C   UNL     1      -3.352  -1.615  24.823  0.00  0.00    +0.163 A 
BRANCH  20  21
ATOM     21  C   UNL     1      -2.626  -2.878  25.009  0.00  0.00    +0.236 C 
BRANCH  21   5
ATOM      5  O   UNL     1      -1.275  -2.744  24.559  0.00  0.00    -0.375 OA
ATOM     27  C   UNL     1      -0.586  -1.747  25.295  0.00  0.00    +0.194 C 
ENDBRANCH  21   5
ENDBRANCH  20  21
ENDBRANCH  15  17
ENDBRANCH  10  15
BRANCH  11  16
ATOM     16  C   UNL     1      -1.136   3.047  26.394  0.00  0.00    +0.140 C 
BRANCH  16   7
ATOM      4  O   UNL     1      -0.788   2.021  23.742  0.00  0.00    -0.253 OA
ATOM      7  N   UNL     1       0.003   2.339  25.894  0.00  0.00    -0.297 N 
ATOM      9  N   UNL     1       1.324   1.213  24.374  0.00  0.00    -0.266 N 
ATOM     19  C   UNL     1       0.103   1.863  24.574  0.00  0.00    +0.304 C 
ATOM     31  H   UNL     1       0.759   2.131  26.538  0.00  0.00    +0.150 HD
ATOM     32  H   UNL     1       1.957   1.176  25.169  0.00  0.00    +0.156 HD
BRANCH   9  22
ATOM     22  C   UNL     1       1.798   0.602  23.189  0.00  0.00    +0.077 A 
ATOM     23  C   UNL     1       3.149   0.666  22.848  0.00  0.00    +0.141 A 
ATOM     24  C   UNL     1       0.899  -0.067  22.359  0.00  0.00    +0.027 A 
ATOM     25  C   UNL     1       3.602   0.060  21.676  0.00  0.00    +0.047 A 
ATOM     26  C   UNL     1       1.352  -0.673  21.187  0.00  0.00    +0.002 A 
ATOM     28  C   UNL     1       2.703  -0.610  20.845  0.00  0.00    +0.004 A 
BRANCH  23   6
ATOM      6  O   UNL     1       4.043   1.316  23.646  0.00  0.00    -0.493 OA
ATOM     29  C   UNL     1       5.287   0.661  23.891  0.00  0.00    +0.277 C 
ENDBRANCH  23   6
ENDBRANCH   9  22
ENDBRANCH  16   7
ENDBRANCH  11  16
TORSDOF 9
ENDMDL
MODEL 8
REMARK VINA RESULT:       0.9      1.669      2.669
REMARK  Name = 75536283
REMARK  11 active torsions:
REMARK  status: ('A' for Active; 'I' for Inactive)
REMARK    1  A    between atoms: O_2  and  C_12
REMARK    2  A    between atoms: O_5  and  C_21
REMARK    3  A    between atoms: O_5  and  C_27
REMARK    4  A    between atoms: O_6  and  C_23
REMARK    5  A    between atoms: O_6  and  C_29
REMARK    6  A    between atoms: N_7  and  C_16
REMARK    7  A    between atoms: N_9  and  C_22
REMARK    8  A    between atoms: C_10  and  C_15
REMARK    9  A    between atoms: C_11  and  C_16
REMARK   10  A    between atoms: C_15  and  C_17
REMARK   11  A    between atoms: C_20  and  C_21
REMARK                            x       y       z     vdW  Elec       q    Type
REMARK                         _______ _______ _______ _____ _____    ______ ____
ROOT
ATOM      1  O   UNL     1      -2.391  -1.140  23.452  0.00  0.00    -0.369 OA
ATOM     10  C   UNL     1      -1.241  -0.500  24.013  0.00  0.00    +0.125 C 
ATOM     11  C   UNL     1      -3.003  -2.133  24.285  0.00  0.00    +0.164 C 
ATOM     12  C   UNL     1      -1.993  -3.209  24.706  0.00  0.00    +0.145 C 
ATOM     13  C   UNL     1      -0.158  -1.528  24.340  0.00  0.00    +0.034 C 
ATOM     14  C   UNL     1      -0.705  -2.610  25.266  0.00  0.00    +0.036 C 
ENDROOT
BRANCH  12   2
ATOM      2  O   UNL     1      -1.647  -3.991  23.559  0.00  0.00    -0.389 OA
ATOM     30  H   UNL     1      -1.475  -3.375  22.827  0.00  0.00    +0.210 HD
ENDBRANCH  12   2
BRANCH  10  15
ATOM     15  C   UNL     1      -0.737   0.513  22.993  0.00  0.00    +0.090 C 
BRANCH  15  17
ATOM      3  O   UNL     1       2.699   1.522  23.394  0.00  0.00    -0.357 OA
ATOM      8  N   UNL     1       1.332   1.739  23.513  0.00  0.00    -0.083 NA
ATOM     17  C   UNL     1       0.763   0.634  23.022  0.00  0.00    +0.086 A 
ATOM     18  C   UNL     1       1.712  -0.305  22.582  0.00  0.00    +0.073 A 
ATOM     20  C   UNL     1       2.913   0.302  22.839  0.00  0.00    +0.163 A 
BRANCH  20  21
ATOM     21  C   UNL     1       4.313  -0.091  22.639  0.00  0.00    +0.236 C 
BRANCH  21   5
ATOM      5  O   UNL     1       4.718  -1.017  23.651  0.00  0.00    -0.375 OA
ATOM     27  C   UNL     1       5.623  -0.416  24.563  0.00  0.00    +0.194 C 
ENDBRANCH  21   5
ENDBRANCH  20  21
ENDBRANCH  15  17
ENDBRANCH  10  15
BRANCH  11  16
ATOM     16  C   UNL     1      -3.720  -1.491  25.472  0.00  0.00    +0.140 C 
BRANCH  16   7
ATOM      4  O   UNL     1      -3.743   1.119  24.292  0.00  0.00    -0.253 OA
ATOM      7  N   UNL     1      -3.011  -0.337  25.935  0.00  0.00    -0.297 N 
ATOM      9  N   UNL     1      -2.278   1.850  25.974  0.00  0.00    -0.266 N 
ATOM     19  C   UNL     1      -3.071   0.916  25.301  0.00  0.00    +0.304 C 
ATOM     31  H   UNL     1      -2.397  -0.441  26.736  0.00  0.00    +0.150 HD
ATOM     32  H   UNL     1      -1.788   1.520  26.802  0.00  0.00    +0.156 HD
BRANCH   9  22
ATOM     22  C   UNL     1      -2.076   3.212  25.650  0.00  0.00    +0.077 A 
ATOM     23  C   UNL     1      -3.073   4.156  25.897  0.00  0.00    +0.141 A 
ATOM     24  C   UNL     1      -0.868   3.607  25.076  0.00  0.00    +0.027 A 
ATOM     25  C   UNL     1      -2.861   5.496  25.571  0.00  0.00    +0.047 A 
ATOM     26  C   UNL     1      -0.656   4.946  24.750  0.00  0.00    +0.002 A 
ATOM     28  C   UNL     1      -1.652   5.891  24.997  0.00  0.00    +0.004 A 
BRANCH  23   6
ATOM      6  O   UNL     1      -4.261   3.791  26.457  0.00  0.00    -0.493 OA
ATOM     29  C   UNL     1      -5.341   3.524  25.565  0.00  0.00    +0.277 C 
ENDBRANCH  23   6
ENDBRANCH   9  22
ENDBRANCH  16   7
ENDBRANCH  11  16
TORSDOF 9
ENDMDL
MODEL 9
REMARK VINA RESULT:       1.3      1.736      7.425
REMARK  Name = 75536283
REMARK  11 active torsions:
REMARK  status: ('A' for Active; 'I' for Inactive)
REMARK    1  A    between atoms: O_2  and  C_12
REMARK    2  A    between atoms: O_5  and  C_21
REMARK    3  A    between atoms: O_5  and  C_27
REMARK    4  A    between atoms: O_6  and  C_23
REMARK    5  A    between atoms: O_6  and  C_29
REMARK    6  A    between atoms: N_7  and  C_16
REMARK    7  A    between atoms: N_9  and  C_22
REMARK    8  A    between atoms: C_10  and  C_15
REMARK    9  A    between atoms: C_11  and  C_16
REMARK   10  A    between atoms: C_15  and  C_17
REMARK   11  A    between atoms: C_20  and  C_21
REMARK                            x       y       z     vdW  Elec       q    Type
REMARK                         _______ _______ _______ _____ _____    ______ ____
ROOT
ATOM      1  O   UNL     1      -1.847  -0.046  25.006  0.00  0.00    -0.369 OA
ATOM     10  C   UNL     1      -2.290   0.441  23.736  0.00  0.00    +0.125 C 
ATOM     11  C   UNL     1      -2.234  -1.392  25.312  0.00  0.00    +0.164 C 
ATOM     12  C   UNL     1      -3.756  -1.570  25.216  0.00  0.00    +0.145 C 
ATOM     13  C   UNL     1      -3.815   0.391  23.642  0.00  0.00    +0.034 C 
ATOM     14  C   UNL     1      -4.324  -1.023  23.910  0.00  0.00    +0.036 C 
ENDROOT
BRANCH  12   2
ATOM      2  O   UNL     1      -4.371  -0.857  26.293  0.00  0.00    -0.389 OA
ATOM     30  H   UNL     1      -4.124  -1.304  27.119  0.00  0.00    +0.210 HD
ENDBRANCH  12   2
BRANCH  10  15
ATOM     15  C   UNL     1      -1.784   1.871  23.592  0.00  0.00    +0.090 C 
BRANCH  15  17
ATOM      3  O   UNL     1      -3.020   4.255  25.995  0.00  0.00    -0.357 OA
ATOM      8  N   UNL     1      -2.018   3.455  25.460  0.00  0.00    -0.083 NA
ATOM     17  C   UNL     1      -2.589   2.833  24.424  0.00  0.00    +0.086 A 
ATOM     18  C   UNL     1      -3.936   3.198  24.259  0.00  0.00    +0.073 A 
ATOM     20  C   UNL     1      -4.157   4.093  25.272  0.00  0.00    +0.163 A 
BRANCH  20  21
ATOM     21  C   UNL     1      -5.326   4.870  25.704  0.00  0.00    +0.236 C 
BRANCH  21   5
ATOM      5  O   UNL     1      -6.470   4.021  25.824  0.00  0.00    -0.375 OA
ATOM     27  C   UNL     1      -6.093   2.700  26.178  0.00  0.00    +0.194 C 
ENDBRANCH  21   5
ENDBRANCH  20  21
ENDBRANCH  15  17
ENDBRANCH  10  15
BRANCH  11  16
ATOM     16  C   UNL     1      -1.461  -2.395  24.458  0.00  0.00    +0.140 C 
BRANCH  16   7
ATOM      4  O   UNL     1       1.253  -2.073  25.317  0.00  0.00    -0.253 OA
ATOM      7  N   UNL     1      -0.407  -1.750  23.737  0.00  0.00    -0.297 N 
ATOM      9  N   UNL     1       1.715  -0.952  23.307  0.00  0.00    -0.266 N 
ATOM     19  C   UNL     1       0.906  -1.628  24.224  0.00  0.00    +0.304 C 
ATOM     31  H   UNL     1      -0.631  -1.316  22.847  0.00  0.00    +0.150 HD
ATOM     32  H   UNL     1       1.271  -0.654  22.441  0.00  0.00    +0.156 HD
BRANCH   9  22
ATOM     22  C   UNL     1       3.088  -0.634  23.428  0.00  0.00    +0.077 A 
ATOM     23  C   UNL     1       3.536   0.670  23.215  0.00  0.00    +0.141 A 
ATOM     24  C   UNL     1       3.995  -1.639  23.762  0.00  0.00    +0.027 A 
ATOM     25  C   UNL     1       4.894   0.968  23.337  0.00  0.00    +0.047 A 
ATOM     26  C   UNL     1       5.352  -1.341  23.884  0.00  0.00    +0.002 A 
ATOM     28  C   UNL     1       5.802  -0.038  23.671  0.00  0.00    +0.004 A 
BRANCH  23   6
ATOM      6  O   UNL     1       2.666   1.666  22.888  0.00  0.00    -0.493 OA
ATOM     29  C   UNL     1       1.487   1.782  23.682  0.00  0.00    +0.277 C 
ENDBRANCH  23   6
ENDBRANCH   9  22
ENDBRANCH  16   7
ENDBRANCH  11  16
TORSDOF 9
ENDMDL
MODEL 10
REMARK VINA RESULT:       1.4      2.997      5.804
REMARK  Name = 75536283
REMARK  11 active torsions:
REMARK  status: ('A' for Active; 'I' for Inactive)
REMARK    1  A    between atoms: O_2  and  C_12
REMARK    2  A    between atoms: O_5  and  C_21
REMARK    3  A    between atoms: O_5  and  C_27
REMARK    4  A    between atoms: O_6  and  C_23
REMARK    5  A    between atoms: O_6  and  C_29
REMARK    6  A    between atoms: N_7  and  C_16
REMARK    7  A    between atoms: N_9  and  C_22
REMARK    8  A    between atoms: C_10  and  C_15
REMARK    9  A    between atoms: C_11  and  C_16
REMARK   10  A    between atoms: C_15  and  C_17
REMARK   11  A    between atoms: C_20  and  C_21
REMARK                            x       y       z     vdW  Elec       q    Type
REMARK                         _______ _______ _______ _____ _____    ______ ____
ROOT
ATOM      1  O   UNL     1      -3.186  -1.662  26.102  0.00  0.00    -0.369 OA
ATOM     10  C   UNL     1      -3.706  -0.758  25.124  0.00  0.00    +0.125 C 
ATOM     11  C   UNL     1      -2.287  -2.657  25.595  0.00  0.00    +0.164 C 
ATOM     12  C   UNL     1      -2.930  -3.467  24.462  0.00  0.00    +0.145 C 
ATOM     13  C   UNL     1      -4.461  -1.517  24.033  0.00  0.00    +0.034 C 
ATOM     14  C   UNL     1      -3.564  -2.576  23.397  0.00  0.00    +0.036 C 
ENDROOT
BRANCH  12   2
ATOM      2  O   UNL     1      -3.963  -4.289  25.013  0.00  0.00    -0.389 OA
ATOM     30  H   UNL     1      -4.057  -4.052  25.951  0.00  0.00    +0.210 HD
ENDBRANCH  12   2
BRANCH  10  15
ATOM     15  C   UNL     1      -4.631   0.215  25.846  0.00  0.00    +0.090 C 
BRANCH  15  17
ATOM      3  O   UNL     1      -5.243   3.611  24.804  0.00  0.00    -0.357 OA
ATOM      8  N   UNL     1      -5.408   2.544  25.679  0.00  0.00    -0.083 NA
ATOM     17  C   UNL     1      -4.688   1.549  25.151  0.00  0.00    +0.086 A 
ATOM     18  C   UNL     1      -4.053   1.926  23.955  0.00  0.00    +0.073 A 
ATOM     20  C   UNL     1      -4.435   3.231  23.781  0.00  0.00    +0.163 A 
BRANCH  20  21
ATOM     21  C   UNL     1      -4.152   4.244  22.757  0.00  0.00    +0.236 C 
BRANCH  21   5
ATOM      5  O   UNL     1      -3.786   3.615  21.526  0.00  0.00    -0.375 OA
ATOM     27  C   UNL     1      -4.574   4.099  20.450  0.00  0.00    +0.194 C 
ENDBRANCH  21   5
ENDBRANCH  20  21
ENDBRANCH  15  17
ENDBRANCH  10  15
BRANCH  11  16
ATOM     16  C   UNL     1      -0.948  -2.037  25.199  0.00  0.00    +0.140 C 
BRANCH  16   7
ATOM      4  O   UNL     1      -1.073   0.396  23.691  0.00  0.00    -0.253 OA
ATOM      7  N   UNL     1      -0.828  -0.706  25.712  0.00  0.00    -0.297 N 
ATOM      9  N   UNL     1      -0.748   1.600  25.681  0.00  0.00    -0.266 N 
ATOM     19  C   UNL     1      -0.900   0.445  24.908  0.00  0.00    +0.304 C 
ATOM     31  H   UNL     1      -0.635  -0.589  26.702  0.00  0.00    +0.150 HD
ATOM     32  H   UNL     1      -0.619   1.466  26.680  0.00  0.00    +0.156 HD
BRANCH   9  22
ATOM     22  C   UNL     1      -0.761   2.945  25.243  0.00  0.00    +0.077 A 
ATOM     23  C   UNL     1      -1.667   3.859  25.783  0.00  0.00    +0.141 A 
ATOM     24  C   UNL     1       0.141   3.353  24.262  0.00  0.00    +0.027 A 
ATOM     25  C   UNL     1      -1.669   5.181  25.341  0.00  0.00    +0.047 A 
ATOM     26  C   UNL     1       0.139   4.676  23.819  0.00  0.00    +0.002 A 
ATOM     28  C   UNL     1      -0.766   5.591  24.359  0.00  0.00    +0.004 A 
BRANCH  23   6
ATOM      6  O   UNL     1      -2.557   3.479  26.743  0.00  0.00    -0.493 OA
ATOM     29  C   UNL     1      -3.327   4.513  27.355  0.00  0.00    +0.277 C 
ENDBRANCH  23   6
ENDBRANCH   9  22
ENDBRANCH  16   7
ENDBRANCH  11  16
TORSDOF 9
ENDMDL
