MODEL 1
REMARK VINA RESULT:      -1.4      0.000      0.000
REMARK  Name = 26763465
REMARK  9 active torsions:
REMARK  status: ('A' for Active; 'I' for Inactive)
REMARK    1  A    between atoms: S_1  and  N_6
REMARK    2  A    between atoms: S_1  and  C_18
REMARK    3  A    between atoms: N_6  and  C_13
REMARK    4  A    between atoms: N_7  and  C_14
REMARK    5  A    between atoms: N_10  and  C_33
REMARK    6  A    between atoms: N_10  and  C_34
REMARK    7  A    between atoms: N_10  and  C_35
REMARK    8  A    between atoms: C_21  and  C_27
REMARK    9  A    between atoms: C_26  and  C_28
REMARK                            x       y       z     vdW  Elec       q    Type
REMARK                         _______ _______ _______ _____ _____    ______ ____
ROOT
ATOM      2  O   UNL     1      14.688  -8.743  27.776  0.00  0.00    -0.370 OA
ATOM      3  O   UNL     1      16.491  -9.865  30.068  0.00  0.00    -0.370 OA
ATOM     11  C   UNL     1      15.151  -9.347  30.030  0.00  0.00    +0.170 C 
ATOM     12  C   UNL     1      15.137  -8.207  29.032  0.00  0.00    +0.171 C 
ATOM     13  C   UNL     1      14.213 -10.370  29.437  0.00  0.00    +0.133 C 
ATOM     14  C   UNL     1      16.583  -7.782  28.933  0.00  0.00    +0.130 C 
ATOM     15  C   UNL     1      14.353 -10.128  27.947  0.00  0.00    +0.183 C 
ATOM     16  C   UNL     1      17.329  -9.074  29.212  0.00  0.00    +0.185 C 
ENDROOT
BRANCH  14   7
ATOM      7  N   UNL     1      16.882  -6.802  29.954  0.00  0.00    -0.306 N 
ATOM      8  N   UNL     1      16.839  -5.054  28.423  0.00  0.00    -0.214 NA
ATOM      9  N   UNL     1      17.291  -4.661  30.758  0.00  0.00    -0.223 NA
ATOM     17  C   UNL     1      17.010  -5.446  29.700  0.00  0.00    +0.216 A 
ATOM     21  C   UNL     1      16.968  -3.727  28.214  0.00  0.00    +0.076 A 
ATOM     22  C   UNL     1      17.405  -3.347  30.477  0.00  0.00    +0.116 A 
ATOM     25  C   UNL     1      17.253  -2.817  29.212  0.00  0.00    +0.048 A 
ATOM     37  H   UNL     1      16.956  -7.096  30.920  0.00  0.00    +0.149 HD
BRANCH  21  27
ATOM     27  C   UNL     1      16.785  -3.302  26.847  0.00  0.00    +0.001 A 
ATOM     29  C   UNL     1      16.582  -1.952  26.559  0.00  0.00    +0.012 A 
ATOM     30  C   UNL     1      16.812  -4.240  25.815  0.00  0.00    +0.012 A 
ATOM     31  C   UNL     1      16.405  -1.540  25.239  0.00  0.00    +0.024 A 
ATOM     32  C   UNL     1      16.636  -3.827  24.494  0.00  0.00    +0.024 A 
ATOM     33  C   UNL     1      16.432  -2.477  24.205  0.00  0.00    +0.029 A 
BRANCH  33  10
ATOM     10  N   UNL     1      16.256  -2.061  22.870  0.00  0.00    -0.336 N 
ATOM     34  C   UNL     1      15.124  -2.533  22.097  0.00  0.00    +0.129 C 
ATOM     35  C   UNL     1      17.199  -1.148  22.254  0.00  0.00    +0.129 C 
ENDBRANCH  33  10
ENDBRANCH  21  27
ENDBRANCH  14   7
BRANCH  13   6
ATOM      6  N   UNL     1      12.822 -10.075  29.860  0.00  0.00    -0.182 NA
ATOM     36  H   UNL     1      12.093 -10.077  29.137  0.00  0.00    +0.148 HD
BRANCH   6   1
ATOM      1  S   UNL     1      12.531  -9.375  31.379  0.00  0.00    +0.059 S 
ATOM      4  O   UNL     1      12.854  -7.961  31.330  0.00  0.00    -0.153 OA
ATOM      5  O   UNL     1      13.115 -10.220  32.403  0.00  0.00    -0.153 OA
BRANCH   1  18
ATOM     18  C   UNL     1      10.776  -9.529  31.521  0.00  0.00    +0.105 A 
ATOM     19  C   UNL     1      10.133 -10.659  31.018  0.00  0.00    +0.029 A 
ATOM     20  C   UNL     1      10.035  -8.520  32.138  0.00  0.00    +0.029 A 
ATOM     23  C   UNL     1       8.748 -10.781  31.129  0.00  0.00    +0.005 A 
ATOM     24  C   UNL     1       8.650  -8.643  32.249  0.00  0.00    +0.005 A 
ATOM     26  C   UNL     1       8.006  -9.772  31.745  0.00  0.00    -0.050 A 
ATOM     28  C   UNL     1       6.525  -9.903  31.864  0.00  0.00    +0.044 C 
ENDBRANCH   1  18
ENDBRANCH   6   1
ENDBRANCH  13   6
TORSDOF 6
ENDMDL
MODEL 2
REMARK VINA RESULT:      -1.4      1.406      2.035
REMARK  Name = 26763465
REMARK  9 active torsions:
REMARK  status: ('A' for Active; 'I' for Inactive)
REMARK    1  A    between atoms: S_1  and  N_6
REMARK    2  A    between atoms: S_1  and  C_18
REMARK    3  A    between atoms: N_6  and  C_13
REMARK    4  A    between atoms: N_7  and  C_14
REMARK    5  A    between atoms: N_10  and  C_33
REMARK    6  A    between atoms: N_10  and  C_34
REMARK    7  A    between atoms: N_10  and  C_35
REMARK    8  A    between atoms: C_21  and  C_27
REMARK    9  A    between atoms: C_26  and  C_28
REMARK                            x       y       z     vdW  Elec       q    Type
REMARK                         _______ _______ _______ _____ _____    ______ ____
ROOT
ATOM      2  O   UNL     1      13.826  -9.223  29.033  0.00  0.00    -0.370 OA
ATOM      3  O   UNL     1      15.371 -10.529  31.415  0.00  0.00    -0.370 OA
ATOM     11  C   UNL     1      14.118  -9.834  31.314  0.00  0.00    +0.170 C 
ATOM     12  C   UNL     1      14.298  -8.725  30.297  0.00  0.00    +0.171 C 
ATOM     13  C   UNL     1      13.070 -10.731  30.702  0.00  0.00    +0.133 C 
ATOM     14  C   UNL     1      15.791  -8.505  30.249  0.00  0.00    +0.130 C 
ATOM     15  C   UNL     1      13.298 -10.545  29.215  0.00  0.00    +0.183 C 
ATOM     16  C   UNL     1      16.341  -9.880  30.580  0.00  0.00    +0.185 C 
ENDROOT
BRANCH  14   7
ATOM      7  N   UNL     1      16.184  -7.551  31.263  0.00  0.00    -0.306 N 
ATOM      8  N   UNL     1      16.629  -5.907  29.682  0.00  0.00    -0.214 NA
ATOM      9  N   UNL     1      16.934  -5.494  32.037  0.00  0.00    -0.223 NA
ATOM     17  C   UNL     1      16.601  -6.261  30.981  0.00  0.00    +0.216 A 
ATOM     21  C   UNL     1      17.037  -4.643  29.445  0.00  0.00    +0.076 A 
ATOM     22  C   UNL     1      17.332  -4.242  31.728  0.00  0.00    +0.116 A 
ATOM     25  C   UNL     1      17.404  -3.757  30.438  0.00  0.00    +0.048 A 
ATOM     37  H   UNL     1      16.110  -7.806  32.241  0.00  0.00    +0.149 HD
BRANCH  21  27
ATOM     27  C   UNL     1      17.067  -4.259  28.055  0.00  0.00    +0.001 A 
ATOM     29  C   UNL     1      16.813  -5.208  27.064  0.00  0.00    +0.012 A 
ATOM     30  C   UNL     1      17.348  -2.939  27.701  0.00  0.00    +0.012 A 
ATOM     31  C   UNL     1      16.842  -4.838  25.720  0.00  0.00    +0.024 A 
ATOM     32  C   UNL     1      17.376  -2.569  26.357  0.00  0.00    +0.024 A 
ATOM     33  C   UNL     1      17.123  -3.518  25.365  0.00  0.00    +0.029 A 
BRANCH  33  10
ATOM     10  N   UNL     1      17.150  -3.143  24.007  0.00  0.00    -0.336 N 
ATOM     34  C   UNL     1      17.097  -4.151  22.966  0.00  0.00    +0.129 C 
ATOM     35  C   UNL     1      17.222  -1.744  23.632  0.00  0.00    +0.129 C 
ENDBRANCH  33  10
ENDBRANCH  21  27
ENDBRANCH  14   7
BRANCH  13   6
ATOM      6  N   UNL     1      11.719 -10.240  31.064  0.00  0.00    -0.182 NA
ATOM     36  H   UNL     1      10.911 -10.794  30.755  0.00  0.00    +0.148 HD
BRANCH   6   1
ATOM      1  S   UNL     1      11.516  -8.642  31.600  0.00  0.00    +0.059 S 
ATOM      4  O   UNL     1      11.782  -7.727  30.507  0.00  0.00    -0.153 OA
ATOM      5  O   UNL     1      12.204  -8.483  32.867  0.00  0.00    -0.153 OA
BRANCH   1  18
ATOM     18  C   UNL     1       9.783  -8.590  31.944  0.00  0.00    +0.105 A 
ATOM     19  C   UNL     1       9.231  -7.477  32.577  0.00  0.00    +0.029 A 
ATOM     20  C   UNL     1       8.967  -9.663  31.583  0.00  0.00    +0.029 A 
ATOM     23  C   UNL     1       7.864  -7.435  32.850  0.00  0.00    +0.005 A 
ATOM     24  C   UNL     1       7.600  -9.621  31.855  0.00  0.00    +0.005 A 
ATOM     26  C   UNL     1       7.048  -8.508  32.489  0.00  0.00    -0.050 A 
ATOM     28  C   UNL     1       5.586  -8.464  32.780  0.00  0.00    +0.044 C 
ENDBRANCH   1  18
ENDBRANCH   6   1
ENDBRANCH  13   6
TORSDOF 6
ENDMDL
MODEL 3
REMARK VINA RESULT:       0.7      1.525      2.219
REMARK  Name = 26763465
REMARK  9 active torsions:
REMARK  status: ('A' for Active; 'I' for Inactive)
REMARK    1  A    between atoms: S_1  and  N_6
REMARK    2  A    between atoms: S_1  and  C_18
REMARK    3  A    between atoms: N_6  and  C_13
REMARK    4  A    between atoms: N_7  and  C_14
REMARK    5  A    between atoms: N_10  and  C_33
REMARK    6  A    between atoms: N_10  and  C_34
REMARK    7  A    between atoms: N_10  and  C_35
REMARK    8  A    between atoms: C_21  and  C_27
REMARK    9  A    between atoms: C_26  and  C_28
REMARK                            x       y       z     vdW  Elec       q    Type
REMARK                         _______ _______ _______ _____ _____    ______ ____
ROOT
ATOM      2  O   UNL     1      14.181  -8.420  27.759  0.00  0.00    -0.370 OA
ATOM      3  O   UNL     1      16.077  -9.674  29.904  0.00  0.00    -0.370 OA
ATOM     11  C   UNL     1      14.726  -9.185  29.946  0.00  0.00    +0.170 C 
ATOM     12  C   UNL     1      14.658  -7.972  29.039  0.00  0.00    +0.171 C 
ATOM     13  C   UNL     1      13.790 -10.180  29.302  0.00  0.00    +0.133 C 
ATOM     14  C   UNL     1      16.091  -7.509  28.932  0.00  0.00    +0.130 C 
ATOM     15  C   UNL     1      13.880  -9.822  27.833  0.00  0.00    +0.183 C 
ATOM     16  C   UNL     1      16.871  -8.801  29.088  0.00  0.00    +0.185 C 
ENDROOT
BRANCH  14   7
ATOM      7  N   UNL     1      16.401  -6.602  30.015  0.00  0.00    -0.306 N 
ATOM      8  N   UNL     1      16.781  -4.834  28.557  0.00  0.00    -0.214 NA
ATOM      9  N   UNL     1      17.006  -4.560  30.941  0.00  0.00    -0.223 NA
ATOM     17  C   UNL     1      16.745  -5.274  29.829  0.00  0.00    +0.216 A 
ATOM     21  C   UNL     1      17.116  -3.535  28.413  0.00  0.00    +0.076 A 
ATOM     22  C   UNL     1      17.334  -3.269  30.724  0.00  0.00    +0.116 A 
ATOM     25  C   UNL     1      17.405  -2.696  29.470  0.00  0.00    +0.048 A 
ATOM     37  H   UNL     1      16.320  -6.925  30.972  0.00  0.00    +0.149 HD
BRANCH  21  27
ATOM     27  C   UNL     1      17.155  -3.059  27.051  0.00  0.00    +0.001 A 
ATOM     29  C   UNL     1      17.024  -1.696  26.786  0.00  0.00    +0.012 A 
ATOM     30  C   UNL     1      17.326  -3.961  26.001  0.00  0.00    +0.012 A 
ATOM     31  C   UNL     1      17.061  -1.235  25.471  0.00  0.00    +0.024 A 
ATOM     32  C   UNL     1      17.365  -3.500  24.685  0.00  0.00    +0.024 A 
ATOM     33  C   UNL     1      17.232  -2.136  24.419  0.00  0.00    +0.029 A 
BRANCH  33  10
ATOM     10  N   UNL     1      17.273  -1.670  23.089  0.00  0.00    -0.336 N 
ATOM     34  C   UNL     1      17.331  -2.607  21.985  0.00  0.00    +0.129 C 
ATOM     35  C   UNL     1      17.249  -0.248  22.809  0.00  0.00    +0.129 C 
ENDBRANCH  33  10
ENDBRANCH  21  27
ENDBRANCH  14   7
BRANCH  13   6
ATOM      6  N   UNL     1      12.408  -9.950  29.788  0.00  0.00    -0.182 NA
ATOM     36  H   UNL     1      11.746  -9.498  29.146  0.00  0.00    +0.148 HD
BRANCH   6   1
ATOM      1  S   UNL     1      12.066 -10.056  31.447  0.00  0.00    +0.059 S 
ATOM      4  O   UNL     1      13.255 -10.480  32.161  0.00  0.00    -0.153 OA
ATOM      5  O   UNL     1      10.816 -10.772  31.622  0.00  0.00    -0.153 OA
BRANCH   1  18
ATOM     18  C   UNL     1      11.754  -8.366  31.864  0.00  0.00    +0.105 A 
ATOM     19  C   UNL     1      12.677  -7.381  31.515  0.00  0.00    +0.029 A 
ATOM     20  C   UNL     1      10.585  -8.019  32.541  0.00  0.00    +0.029 A 
ATOM     23  C   UNL     1      12.433  -6.048  31.844  0.00  0.00    +0.005 A 
ATOM     24  C   UNL     1      10.341  -6.686  32.870  0.00  0.00    +0.005 A 
ATOM     26  C   UNL     1      11.264  -5.700  32.522  0.00  0.00    -0.050 A 
ATOM     28  C   UNL     1      11.002  -4.274  32.873  0.00  0.00    +0.044 C 
ENDBRANCH   1  18
ENDBRANCH   6   1
ENDBRANCH  13   6
TORSDOF 6
ENDMDL
