MODEL 1
REMARK VINA RESULT:      -4.8      0.000      0.000
REMARK  Name = 45784212
REMARK  3 active torsions:
REMARK  status: ('A' for Active; 'I' for Inactive)
REMARK    1  A    between atoms: N_1  and  C_4
REMARK    2  A    between atoms: C_7  and  C_12
REMARK    3  A    between atoms: C_17  and  C_19
REMARK                            x       y       z     vdW  Elec       q    Type
REMARK                         _______ _______ _______ _____ _____    ______ ____
ROOT
ATOM      2  N   UNL     1      -7.413 -10.781  14.886  0.00  0.00    -0.342 N 
ATOM      3  N   UNL     1      -5.317 -10.559  14.180  0.00  0.00    -0.232 NA
ATOM     12  C   UNL     1      -6.572 -10.702  13.812  0.00  0.00    +0.113 A 
ATOM     13  C   UNL     1      -6.653 -10.683  16.023  0.00  0.00    +0.066 A 
ATOM     14  C   UNL     1      -5.348 -10.544  15.555  0.00  0.00    +0.089 A 
ATOM     15  C   UNL     1      -6.983 -10.701  17.379  0.00  0.00    +0.031 A 
ATOM     16  C   UNL     1      -4.300 -10.416  16.481  0.00  0.00    +0.030 A 
ATOM     17  C   UNL     1      -5.927 -10.572  18.286  0.00  0.00    -0.048 A 
ATOM     18  C   UNL     1      -4.608 -10.432  17.848  0.00  0.00    +0.005 A 
ATOM     19  C   UNL     1      -6.216 -10.585  19.751  0.00  0.00    +0.044 C 
ATOM     20  H   UNL     1      -8.419 -10.893  14.853  0.00  0.00    +0.167 HD
ENDROOT
BRANCH  12   7
ATOM      1  N   UNL     1      -6.655 -10.088  10.199  0.00  0.00    -0.299 NA
ATOM      7  C   UNL     1      -7.095 -10.779  12.396  0.00  0.00    +0.070 C 
ATOM      8  C   UNL     1      -5.981 -10.712  11.342  0.00  0.00    +0.096 C 
ATOM     10  C   UNL     1      -7.449  -9.003  10.778  0.00  0.00    +0.085 C 
ATOM     11  C   UNL     1      -8.070  -9.656  12.006  0.00  0.00    +0.028 C 
BRANCH   1   4
ATOM      4  C   UNL     1      -5.676  -9.563   9.241  0.00  0.00    +0.057 C 
ATOM      5  C   UNL     1      -4.956  -8.342   9.851  0.00  0.00    +0.019 C 
ATOM      6  C   UNL     1      -4.344 -10.327   9.391  0.00  0.00    +0.019 C 
ATOM      9  C   UNL     1      -3.640  -8.955   9.331  0.00  0.00    +0.003 C 
ENDBRANCH   1   4
ENDBRANCH  12   7
TORSDOF 2
ENDMDL
MODEL 2
REMARK VINA RESULT:      -4.6      2.713      6.372
REMARK  Name = 45784212
REMARK  3 active torsions:
REMARK  status: ('A' for Active; 'I' for Inactive)
REMARK    1  A    between atoms: N_1  and  C_4
REMARK    2  A    between atoms: C_7  and  C_12
REMARK    3  A    between atoms: C_17  and  C_19
REMARK                            x       y       z     vdW  Elec       q    Type
REMARK                         _______ _______ _______ _____ _____    ______ ____
ROOT
ATOM      2  N   UNL     1      -4.680 -10.693  14.728  0.00  0.00    -0.342 N 
ATOM      3  N   UNL     1      -6.318 -10.165  13.322  0.00  0.00    -0.232 NA
ATOM     12  C   UNL     1      -6.026 -10.537  14.549  0.00  0.00    +0.113 A 
ATOM     13  C   UNL     1      -4.062 -10.404  13.538  0.00  0.00    +0.066 A 
ATOM     14  C   UNL     1      -5.106 -10.077  12.677  0.00  0.00    +0.089 A 
ATOM     15  C   UNL     1      -2.721 -10.399  13.154  0.00  0.00    +0.031 A 
ATOM     16  C   UNL     1      -4.812  -9.723  11.350  0.00  0.00    +0.030 A 
ATOM     17  C   UNL     1      -2.447 -10.045  11.829  0.00  0.00    -0.048 A 
ATOM     18  C   UNL     1      -3.473  -9.712  10.941  0.00  0.00    +0.005 A 
ATOM     19  C   UNL     1      -1.031 -10.022  11.356  0.00  0.00    +0.044 C 
ATOM     20  H   UNL     1      -4.218 -10.973  15.584  0.00  0.00    +0.167 HD
ENDROOT
BRANCH  12   7
ATOM      1  N   UNL     1      -8.972  -9.966  16.654  0.00  0.00    -0.299 NA
ATOM      7  C   UNL     1      -7.003 -10.781  15.676  0.00  0.00    +0.070 C 
ATOM      8  C   UNL     1      -8.430 -10.325  15.340  0.00  0.00    +0.096 C 
ATOM     10  C   UNL     1      -7.896  -9.226  17.315  0.00  0.00    +0.085 C 
ATOM     11  C   UNL     1      -6.664 -10.061  16.993  0.00  0.00    +0.028 C 
BRANCH   1   4
ATOM      4  C   UNL     1     -10.169  -9.129  16.512  0.00  0.00    +0.057 C 
ATOM      5  C   UNL     1     -10.022  -7.864  17.382  0.00  0.00    +0.019 C 
ATOM      6  C   UNL     1     -10.015  -8.209  15.283  0.00  0.00    +0.019 C 
ATOM      9  C   UNL     1     -10.544  -7.063  16.171  0.00  0.00    +0.003 C 
ENDBRANCH   1   4
ENDBRANCH  12   7
TORSDOF 2
ENDMDL
MODEL 3
REMARK VINA RESULT:      -4.5      1.924      2.486
REMARK  Name = 45784212
REMARK  3 active torsions:
REMARK  status: ('A' for Active; 'I' for Inactive)
REMARK    1  A    between atoms: N_1  and  C_4
REMARK    2  A    between atoms: C_7  and  C_12
REMARK    3  A    between atoms: C_17  and  C_19
REMARK                            x       y       z     vdW  Elec       q    Type
REMARK                         _______ _______ _______ _____ _____    ______ ____
ROOT
ATOM      2  N   UNL     1      -8.478  -9.819  13.559  0.00  0.00    -0.342 N 
ATOM      3  N   UNL     1      -6.369 -10.029  14.229  0.00  0.00    -0.232 NA
ATOM     12  C   UNL     1      -7.177 -10.018  13.191  0.00  0.00    +0.113 A 
ATOM     13  C   UNL     1      -8.513  -9.693  14.925  0.00  0.00    +0.066 A 
ATOM     14  C   UNL     1      -7.184  -9.827  15.318  0.00  0.00    +0.089 A 
ATOM     15  C   UNL     1      -9.561  -9.478  15.821  0.00  0.00    +0.031 A 
ATOM     16  C   UNL     1      -6.864  -9.745  16.684  0.00  0.00    +0.030 A 
ATOM     17  C   UNL     1      -9.223  -9.400  17.176  0.00  0.00    -0.048 A 
ATOM     18  C   UNL     1      -7.900  -9.531  17.602  0.00  0.00    +0.005 A 
ATOM     19  C   UNL     1     -10.300  -9.173  18.185  0.00  0.00    +0.044 C 
ATOM     20  H   UNL     1      -9.276  -9.773  12.938  0.00  0.00    +0.167 HD
ENDROOT
BRANCH  12   7
ATOM      1  N   UNL     1      -4.951 -10.214  10.286  0.00  0.00    -0.299 NA
ATOM      7  C   UNL     1      -6.789 -10.198  11.742  0.00  0.00    +0.070 C 
ATOM      8  C   UNL     1      -5.379 -10.781  11.568  0.00  0.00    +0.096 C 
ATOM     10  C   UNL     1      -5.373  -8.813  10.335  0.00  0.00    +0.085 C 
ATOM     11  C   UNL     1      -6.780  -8.904  10.909  0.00  0.00    +0.028 C 
BRANCH   1   4
ATOM      4  C   UNL     1      -3.495 -10.314  10.133  0.00  0.00    +0.057 C 
ATOM      5  C   UNL     1      -2.854  -8.930  10.363  0.00  0.00    +0.019 C 
ATOM      6  C   UNL     1      -2.862 -10.745  11.472  0.00  0.00    +0.019 C 
ATOM      9  C   UNL     1      -1.804  -9.646  11.237  0.00  0.00    +0.003 C 
ENDBRANCH   1   4
ENDBRANCH  12   7
TORSDOF 2
ENDMDL
MODEL 4
REMARK VINA RESULT:      -4.3      2.945      4.101
REMARK  Name = 45784212
REMARK  3 active torsions:
REMARK  status: ('A' for Active; 'I' for Inactive)
REMARK    1  A    between atoms: N_1  and  C_4
REMARK    2  A    between atoms: C_7  and  C_12
REMARK    3  A    between atoms: C_17  and  C_19
REMARK                            x       y       z     vdW  Elec       q    Type
REMARK                         _______ _______ _______ _____ _____    ______ ____
ROOT
ATOM      2  N   UNL     1      -5.880 -10.737  12.651  0.00  0.00    -0.342 N 
ATOM      3  N   UNL     1      -4.847 -10.588  10.688  0.00  0.00    -0.232 NA
ATOM     12  C   UNL     1      -6.011 -10.699  11.291  0.00  0.00    +0.113 A 
ATOM     13  C   UNL     1      -4.543 -10.647  12.946  0.00  0.00    +0.066 A 
ATOM     14  C   UNL     1      -3.921 -10.554  11.704  0.00  0.00    +0.089 A 
ATOM     15  C   UNL     1      -3.848 -10.637  14.155  0.00  0.00    +0.031 A 
ATOM     16  C   UNL     1      -2.521 -10.445  11.647  0.00  0.00    +0.030 A 
ATOM     17  C   UNL     1      -2.455 -10.529  14.080  0.00  0.00    -0.048 A 
ATOM     18  C   UNL     1      -1.802 -10.434  12.849  0.00  0.00    +0.005 A 
ATOM     19  C   UNL     1      -1.654 -10.514  15.340  0.00  0.00    +0.044 C 
ATOM     20  H   UNL     1      -6.632 -10.819  13.323  0.00  0.00    +0.167 HD
ENDROOT
BRANCH  12   7
ATOM      1  N   UNL     1      -8.843  -9.599   9.240  0.00  0.00    -0.299 NA
ATOM      7  C   UNL     1      -7.367 -10.778  10.629  0.00  0.00    +0.070 C 
ATOM      8  C   UNL     1      -7.435 -10.001   9.307  0.00  0.00    +0.096 C 
ATOM     10  C   UNL     1      -9.172  -9.152  10.595  0.00  0.00    +0.085 C 
ATOM     11  C   UNL     1      -8.530 -10.222  11.469  0.00  0.00    +0.028 C 
BRANCH   1   4
ATOM      4  C   UNL     1      -9.029  -8.511   8.273  0.00  0.00    +0.057 C 
ATOM      5  C   UNL     1      -9.794  -7.350   8.941  0.00  0.00    +0.019 C 
ATOM      6  C   UNL     1      -7.788  -7.595   8.280  0.00  0.00    +0.019 C 
ATOM      9  C   UNL     1      -8.765  -6.401   8.295  0.00  0.00    +0.003 C 
ENDBRANCH   1   4
ENDBRANCH  12   7
TORSDOF 2
ENDMDL
MODEL 5
REMARK VINA RESULT:      -3.4     15.455     17.836
REMARK  Name = 45784212
REMARK  3 active torsions:
REMARK  status: ('A' for Active; 'I' for Inactive)
REMARK    1  A    between atoms: N_1  and  C_4
REMARK    2  A    between atoms: C_7  and  C_12
REMARK    3  A    between atoms: C_17  and  C_19
REMARK                            x       y       z     vdW  Elec       q    Type
REMARK                         _______ _______ _______ _____ _____    ______ ____
ROOT
ATOM      2  N   UNL     1       0.703   2.369  24.778  0.00  0.00    -0.342 N 
ATOM      3  N   UNL     1      -0.894   0.986  24.088  0.00  0.00    -0.232 NA
ATOM     12  C   UNL     1      -0.617   2.021  24.849  0.00  0.00    +0.113 A 
ATOM     13  C   UNL     1       1.319   1.499  23.914  0.00  0.00    +0.066 A 
ATOM     14  C   UNL     1       0.300   0.647  23.496  0.00  0.00    +0.089 A 
ATOM     15  C   UNL     1       2.639   1.391  23.474  0.00  0.00    +0.031 A 
ATOM     16  C   UNL     1       0.599  -0.381  22.587  0.00  0.00    +0.030 A 
ATOM     17  C   UNL     1       2.918   0.361  22.569  0.00  0.00    -0.048 A 
ATOM     18  C   UNL     1       1.917  -0.510  22.132  0.00  0.00    +0.005 A 
ATOM     19  C   UNL     1       4.312   0.191  22.061  0.00  0.00    +0.044 C 
ATOM     20  H   UNL     1       1.151   3.129  25.273  0.00  0.00    +0.167 HD
ENDROOT
BRANCH  12   7
ATOM      1  N   UNL     1      -3.816   3.489  25.873  0.00  0.00    -0.299 NA
ATOM      7  C   UNL     1      -1.584   2.786  25.724  0.00  0.00    +0.070 C 
ATOM      8  C   UNL     1      -3.029   2.283  25.598  0.00  0.00    +0.096 C 
ATOM     10  C   UNL     1      -3.139   4.556  25.133  0.00  0.00    +0.085 C 
ATOM     11  C   UNL     1      -1.668   4.293  25.430  0.00  0.00    +0.028 C 
BRANCH   1   4
ATOM      4  C   UNL     1      -5.197   3.327  25.406  0.00  0.00    +0.057 C 
ATOM      5  C   UNL     1      -5.242   2.278  24.276  0.00  0.00    +0.019 C 
ATOM      6  C   UNL     1      -5.925   2.293  26.291  0.00  0.00    +0.019 C 
ATOM      9  C   UNL     1      -6.473   1.678  24.986  0.00  0.00    +0.003 C 
ENDBRANCH   1   4
ENDBRANCH  12   7
TORSDOF 2
ENDMDL
MODEL 6
REMARK VINA RESULT:      -3.3     14.879     17.112
REMARK  Name = 45784212
REMARK  3 active torsions:
REMARK  status: ('A' for Active; 'I' for Inactive)
REMARK    1  A    between atoms: N_1  and  C_4
REMARK    2  A    between atoms: C_7  and  C_12
REMARK    3  A    between atoms: C_17  and  C_19
REMARK                            x       y       z     vdW  Elec       q    Type
REMARK                         _______ _______ _______ _____ _____    ______ ____
ROOT
ATOM      2  N   UNL     1      -1.906   0.664  24.004  0.00  0.00    -0.342 N 
ATOM      3  N   UNL     1      -0.192   1.939  24.619  0.00  0.00    -0.232 NA
ATOM     12  C   UNL     1      -0.547   0.801  24.065  0.00  0.00    +0.113 A 
ATOM     13  C   UNL     1      -2.466   1.789  24.556  0.00  0.00    +0.066 A 
ATOM     14  C   UNL     1      -1.375   2.569  24.931  0.00  0.00    +0.089 A 
ATOM     15  C   UNL     1      -3.791   2.178  24.751  0.00  0.00    +0.031 A 
ATOM     16  C   UNL     1      -1.602   3.815  25.539  0.00  0.00    +0.030 A 
ATOM     17  C   UNL     1      -3.998   3.421  25.359  0.00  0.00    -0.048 A 
ATOM     18  C   UNL     1      -2.925   4.227  25.746  0.00  0.00    +0.005 A 
ATOM     19  C   UNL     1      -5.394   3.895  25.596  0.00  0.00    +0.044 C 
ATOM     20  H   UNL     1      -2.413  -0.124  23.622  0.00  0.00    +0.167 HD
ENDROOT
BRANCH  12   7
ATOM      1  N   UNL     1       2.510  -0.630  22.637  0.00  0.00    -0.299 NA
ATOM      7  C   UNL     1       0.375  -0.274  23.537  0.00  0.00    +0.070 C 
ATOM      8  C   UNL     1       1.859   0.047  23.762  0.00  0.00    +0.096 C 
ATOM     10  C   UNL     1       1.665  -0.334  21.479  0.00  0.00    +0.085 C 
ATOM     11  C   UNL     1       0.258  -0.541  22.026  0.00  0.00    +0.028 C 
BRANCH   1   4
ATOM      4  C   UNL     1       3.869  -0.114  22.435  0.00  0.00    +0.057 C 
ATOM      5  C   UNL     1       4.014   1.252  23.137  0.00  0.00    +0.019 C 
ATOM      6  C   UNL     1       4.806  -0.684  23.519  0.00  0.00    +0.019 C 
ATOM      9  C   UNL     1       5.366   0.745  23.678  0.00  0.00    +0.003 C 
ENDBRANCH   1   4
ENDBRANCH  12   7
TORSDOF 2
ENDMDL
MODEL 7
REMARK VINA RESULT:      -2.9     15.020     16.906
REMARK  Name = 45784212
REMARK  3 active torsions:
REMARK  status: ('A' for Active; 'I' for Inactive)
REMARK    1  A    between atoms: N_1  and  C_4
REMARK    2  A    between atoms: C_7  and  C_12
REMARK    3  A    between atoms: C_17  and  C_19
REMARK                            x       y       z     vdW  Elec       q    Type
REMARK                         _______ _______ _______ _____ _____    ______ ____
ROOT
ATOM      2  N   UNL     1      -2.162   2.065  25.296  0.00  0.00    -0.342 N 
ATOM      3  N   UNL     1      -3.361   0.210  25.045  0.00  0.00    -0.232 NA
ATOM     12  C   UNL     1      -2.147   0.708  25.135  0.00  0.00    +0.113 A 
ATOM     13  C   UNL     1      -3.472   2.471  25.310  0.00  0.00    +0.066 A 
ATOM     14  C   UNL     1      -4.200   1.295  25.152  0.00  0.00    +0.089 A 
ATOM     15  C   UNL     1      -4.065   3.727  25.445  0.00  0.00    +0.031 A 
ATOM     16  C   UNL     1      -5.604   1.357  25.124  0.00  0.00    +0.030 A 
ATOM     17  C   UNL     1      -5.463   3.770  25.414  0.00  0.00    -0.048 A 
ATOM     18  C   UNL     1      -6.220   2.608  25.257  0.00  0.00    +0.005 A 
ATOM     19  C   UNL     1      -6.156   5.085  25.552  0.00  0.00    +0.044 C 
ATOM     20  H   UNL     1      -1.354   2.667  25.388  0.00  0.00    +0.167 HD
ENDROOT
BRANCH  12   7
ATOM      1  N   UNL     1       1.063  -0.409  23.762  0.00  0.00    -0.299 NA
ATOM      7  C   UNL     1      -0.848  -0.062  25.077  0.00  0.00    +0.070 C 
ATOM      8  C   UNL     1       0.255   0.684  24.312  0.00  0.00    +0.096 C 
ATOM     10  C   UNL     1       0.089  -1.383  23.266  0.00  0.00    +0.085 C 
ATOM     11  C   UNL     1      -0.940  -1.434  24.388  0.00  0.00    +0.028 C 
BRANCH   1   4
ATOM      4  C   UNL     1       1.919   0.074  22.672  0.00  0.00    +0.057 C 
ATOM      5  C   UNL     1       2.567   1.414  23.077  0.00  0.00    +0.019 C 
ATOM      6  C   UNL     1       3.322  -0.555  22.799  0.00  0.00    +0.019 C 
ATOM      9  C   UNL     1       3.892   0.853  22.524  0.00  0.00    +0.003 C 
ENDBRANCH   1   4
ENDBRANCH  12   7
TORSDOF 2
ENDMDL
MODEL 8
REMARK VINA RESULT:      -2.5      2.803      3.820
REMARK  Name = 45784212
REMARK  3 active torsions:
REMARK  status: ('A' for Active; 'I' for Inactive)
REMARK    1  A    between atoms: N_1  and  C_4
REMARK    2  A    between atoms: C_7  and  C_12
REMARK    3  A    between atoms: C_17  and  C_19
REMARK                            x       y       z     vdW  Elec       q    Type
REMARK                         _______ _______ _______ _____ _____    ______ ____
ROOT
ATOM      2  N   UNL     1      -6.046 -10.330  12.936  0.00  0.00    -0.342 N 
ATOM      3  N   UNL     1      -4.569 -10.363  14.597  0.00  0.00    -0.232 NA
ATOM     12  C   UNL     1      -4.738 -10.491  13.299  0.00  0.00    +0.113 A 
ATOM     13  C   UNL     1      -6.770 -10.082  14.074  0.00  0.00    +0.066 A 
ATOM     14  C   UNL     1      -5.825 -10.108  15.097  0.00  0.00    +0.089 A 
ATOM     15  C   UNL     1      -8.128  -9.843  14.290  0.00  0.00    +0.031 A 
ATOM     16  C   UNL     1      -6.243  -9.885  16.420  0.00  0.00    +0.030 A 
ATOM     17  C   UNL     1      -8.525  -9.624  15.613  0.00  0.00    -0.048 A 
ATOM     18  C   UNL     1      -7.602  -9.644  16.660  0.00  0.00    +0.005 A 
ATOM     19  C   UNL     1      -9.966  -9.364  15.909  0.00  0.00    +0.044 C 
ATOM     20  H   UNL     1      -6.418 -10.384  11.996  0.00  0.00    +0.167 HD
ENDROOT
BRANCH  12   7
ATOM      1  N   UNL     1      -1.928  -9.789  11.053  0.00  0.00    -0.299 NA
ATOM      7  C   UNL     1      -3.667 -10.781  12.273  0.00  0.00    +0.070 C 
ATOM      8  C   UNL     1      -2.432  -9.882  12.426  0.00  0.00    +0.096 C 
ATOM     10  C   UNL     1      -3.120  -9.590  10.227  0.00  0.00    +0.085 C 
ATOM     11  C   UNL     1      -4.106 -10.594  10.810  0.00  0.00    +0.028 C 
BRANCH   1   4
ATOM      4  C   UNL     1      -1.004  -8.658  10.914  0.00  0.00    +0.057 C 
ATOM      5  C   UNL     1      -0.583  -8.158  12.312  0.00  0.00    +0.019 C 
ATOM      6  C   UNL     1       0.438  -9.183  10.752  0.00  0.00    +0.019 C 
ATOM      9  C   UNL     1       0.862  -8.108  11.775  0.00  0.00    +0.003 C 
ENDBRANCH   1   4
ENDBRANCH  12   7
TORSDOF 2
ENDMDL
MODEL 9
REMARK VINA RESULT:      -2.3      3.130      7.077
REMARK  Name = 45784212
REMARK  3 active torsions:
REMARK  status: ('A' for Active; 'I' for Inactive)
REMARK    1  A    between atoms: N_1  and  C_4
REMARK    2  A    between atoms: C_7  and  C_12
REMARK    3  A    between atoms: C_17  and  C_19
REMARK                            x       y       z     vdW  Elec       q    Type
REMARK                         _______ _______ _______ _____ _____    ______ ____
ROOT
ATOM      2  N   UNL     1      -4.170  -8.576   9.845  0.00  0.00    -0.342 N 
ATOM      3  N   UNL     1      -5.052 -10.257  11.001  0.00  0.00    -0.232 NA
ATOM     12  C   UNL     1      -3.937  -9.646  10.663  0.00  0.00    +0.113 A 
ATOM     13  C   UNL     1      -5.523  -8.491   9.640  0.00  0.00    +0.066 A 
ATOM     14  C   UNL     1      -6.051  -9.551  10.373  0.00  0.00    +0.089 A 
ATOM     15  C   UNL     1      -6.307  -7.604   8.901  0.00  0.00    +0.031 A 
ATOM     16  C   UNL     1      -7.441  -9.753  10.379  0.00  0.00    +0.030 A 
ATOM     17  C   UNL     1      -7.689  -7.821   8.918  0.00  0.00    -0.048 A 
ATOM     18  C   UNL     1      -8.248  -8.875   9.643  0.00  0.00    +0.005 A 
ATOM     19  C   UNL     1      -8.582  -6.906   8.146  0.00  0.00    +0.044 C 
ATOM     20  H   UNL     1      -3.471  -7.955   9.457  0.00  0.00    +0.167 HD
ENDROOT
BRANCH  12   7
ATOM      1  N   UNL     1      -1.191 -10.406  12.968  0.00  0.00    -0.299 NA
ATOM      7  C   UNL     1      -2.536 -10.021  11.087  0.00  0.00    +0.070 C 
ATOM      8  C   UNL     1      -2.498 -10.781  12.420  0.00  0.00    +0.096 C 
ATOM     10  C   UNL     1      -1.078  -8.968  12.720  0.00  0.00    +0.085 C 
ATOM     11  C   UNL     1      -1.581  -8.832  11.288  0.00  0.00    +0.028 C 
BRANCH   1   4
ATOM      4  C   UNL     1      -1.128 -10.692  14.406  0.00  0.00    +0.057 C 
ATOM      5  C   UNL     1      -0.785  -9.400  15.177  0.00  0.00    +0.019 C 
ATOM      6  C   UNL     1      -2.541 -10.590  15.017  0.00  0.00    +0.019 C 
ATOM      9  C   UNL     1      -1.901  -9.786  16.168  0.00  0.00    +0.003 C 
ENDBRANCH   1   4
ENDBRANCH  12   7
TORSDOF 2
ENDMDL
MODEL 10
REMARK VINA RESULT:      -1.8     15.188     16.898
REMARK  Name = 45784212
REMARK  3 active torsions:
REMARK  status: ('A' for Active; 'I' for Inactive)
REMARK    1  A    between atoms: N_1  and  C_4
REMARK    2  A    between atoms: C_7  and  C_12
REMARK    3  A    between atoms: C_17  and  C_19
REMARK                            x       y       z     vdW  Elec       q    Type
REMARK                         _______ _______ _______ _____ _____    ______ ____
ROOT
ATOM      2  N   UNL     1       1.339  -1.216  23.813  0.00  0.00    -0.342 N 
ATOM      3  N   UNL     1       0.950   0.834  23.047  0.00  0.00    -0.232 NA
ATOM     12  C   UNL     1       0.401  -0.279  23.481  0.00  0.00    +0.113 A 
ATOM     13  C   UNL     1       2.576  -0.672  23.577  0.00  0.00    +0.066 A 
ATOM     14  C   UNL     1       2.305   0.607  23.100  0.00  0.00    +0.089 A 
ATOM     15  C   UNL     1       3.868  -1.174  23.737  0.00  0.00    +0.031 A 
ATOM     16  C   UNL     1       3.376   1.450  22.756  0.00  0.00    +0.030 A 
ATOM     17  C   UNL     1       4.921  -0.322  23.389  0.00  0.00    -0.048 A 
ATOM     18  C   UNL     1       4.682   0.967  22.907  0.00  0.00    +0.005 A 
ATOM     19  C   UNL     1       6.328  -0.801  23.537  0.00  0.00    +0.044 C 
ATOM     20  H   UNL     1       1.158  -2.146  24.169  0.00  0.00    +0.167 HD
ENDROOT
BRANCH  12   7
ATOM      1  N   UNL     1      -3.043   0.220  24.633  0.00  0.00    -0.299 NA
ATOM      7  C   UNL     1      -1.077  -0.563  23.623  0.00  0.00    +0.070 C 
ATOM      8  C   UNL     1      -1.912   0.707  23.839  0.00  0.00    +0.096 C 
ATOM     10  C   UNL     1      -2.447  -0.675  25.627  0.00  0.00    +0.085 C 
ATOM     11  C   UNL     1      -1.449  -1.479  24.802  0.00  0.00    +0.028 C 
BRANCH   1   4
ATOM      4  C   UNL     1      -3.738   1.334  25.288  0.00  0.00    +0.057 C 
ATOM      5  C   UNL     1      -4.019   2.447  24.256  0.00  0.00    +0.019 C 
ATOM      6  C   UNL     1      -5.257   1.064  25.296  0.00  0.00    +0.019 C 
ATOM      9  C   UNL     1      -5.442   2.529  24.846  0.00  0.00    +0.003 C 
ENDBRANCH   1   4
ENDBRANCH  12   7
TORSDOF 2
ENDMDL
