MODEL 1
REMARK VINA RESULT:      -6.6      0.000      0.000
REMARK  Name = 75536509
REMARK  7 active torsions:
REMARK  status: ('A' for Active; 'I' for Inactive)
REMARK    1  A    between atoms: O_2  and  C_9
REMARK    2  A    between atoms: N_4  and  C_8
REMARK    3  A    between atoms: N_4  and  C_13
REMARK    4  A    between atoms: N_5  and  C_12
REMARK    5  A    between atoms: C_10  and  C_12
REMARK    6  A    between atoms: C_13  and  C_14
REMARK    7  A    between atoms: C_15  and  C_17
REMARK                            x       y       z     vdW  Elec       q    Type
REMARK                         _______ _______ _______ _____ _____    ______ ____
ROOT
ATOM      1  O   UNL     1      -4.096   3.621  26.119  0.00  0.00    -0.371 OA
ATOM      8  C   UNL     1      -2.216   3.738  24.673  0.00  0.00    +0.111 C 
ATOM      9  C   UNL     1      -2.997   2.473  24.367  0.00  0.00    +0.164 C 
ATOM     10  C   UNL     1      -4.358   2.820  24.954  0.00  0.00    +0.165 C 
ATOM     11  C   UNL     1      -2.737   4.087  26.057  0.00  0.00    +0.181 C 
ENDROOT
BRANCH   9   2
ATOM      2  O   UNL     1      -3.074   2.200  22.981  0.00  0.00    -0.388 OA
ATOM     20  H   UNL     1      -2.215   1.850  22.692  0.00  0.00    +0.210 HD
ENDBRANCH   9   2
BRANCH   8   4
ATOM      4  N   UNL     1      -0.774   3.556  24.639  0.00  0.00    -0.304 NA
ATOM     19  H   UNL     1      -0.321   4.447  24.845  0.00  0.00    +0.123 HD
BRANCH   4  13
ATOM     13  C   UNL     1      -0.347   2.569  25.624  0.00  0.00    +0.136 C 
BRANCH  13  14
ATOM      6  N   UNL     1      -0.655   0.067  25.708  0.00  0.00    -0.347 N 
ATOM      7  N   UNL     1       0.057  -0.639  23.728  0.00  0.00    -0.244 NA
ATOM     14  C   UNL     1      -0.262   1.186  25.031  0.00  0.00    +0.049 A 
ATOM     16  C   UNL     1       0.173   0.725  23.812  0.00  0.00    +0.134 A 
ATOM     18  C   UNL     1      -0.445  -1.005  24.886  0.00  0.00    +0.196 A 
ATOM     22  H   UNL     1      -1.033   0.033  26.647  0.00  0.00    +0.167 HD
ENDBRANCH  13  14
ENDBRANCH   4  13
ENDBRANCH   8   4
BRANCH  10  12
ATOM     12  C   UNL     1      -5.174   1.601  25.344  0.00  0.00    +0.138 C 
BRANCH  12   5
ATOM      3  O   UNL     1      -3.700  -0.808  26.016  0.00  0.00    -0.276 OA
ATOM      5  N   UNL     1      -4.888   0.486  24.488  0.00  0.00    -0.313 N 
ATOM     15  C   UNL     1      -4.171  -0.632  24.896  0.00  0.00    +0.210 C 
ATOM     17  C   UNL     1      -4.036  -1.663  23.807  0.00  0.00    +0.109 C 
ATOM     21  H   UNL     1      -5.229   0.527  23.531  0.00  0.00    +0.149 HD
ENDBRANCH  12   5
ENDBRANCH  10  12
TORSDOF 6
ENDMDL
MODEL 2
REMARK VINA RESULT:      -6.4      1.742      3.447
REMARK  Name = 75536509
REMARK  7 active torsions:
REMARK  status: ('A' for Active; 'I' for Inactive)
REMARK    1  A    between atoms: O_2  and  C_9
REMARK    2  A    between atoms: N_4  and  C_8
REMARK    3  A    between atoms: N_4  and  C_13
REMARK    4  A    between atoms: N_5  and  C_12
REMARK    5  A    between atoms: C_10  and  C_12
REMARK    6  A    between atoms: C_13  and  C_14
REMARK    7  A    between atoms: C_15  and  C_17
REMARK                            x       y       z     vdW  Elec       q    Type
REMARK                         _______ _______ _______ _____ _____    ______ ____
ROOT
ATOM      1  O   UNL     1      -0.754   3.456  25.736  0.00  0.00    -0.371 OA
ATOM      8  C   UNL     1      -0.280   1.533  24.424  0.00  0.00    +0.111 C 
ATOM      9  C   UNL     1      -1.714   1.964  24.172  0.00  0.00    +0.164 C 
ATOM     10  C   UNL     1      -1.668   3.416  24.628  0.00  0.00    +0.165 C 
ATOM     11  C   UNL     1       0.022   2.244  25.733  0.00  0.00    +0.181 C 
ENDROOT
BRANCH   9   2
ATOM      2  O   UNL     1      -2.088   1.848  22.813  0.00  0.00    -0.388 OA
ATOM     20  H   UNL     1      -2.928   1.362  22.767  0.00  0.00    +0.210 HD
ENDBRANCH   9   2
BRANCH   8   4
ATOM      4  N   UNL     1      -0.110   0.092  24.510  0.00  0.00    -0.304 NA
ATOM     19  H   UNL     1       0.862  -0.115  24.742  0.00  0.00    +0.123 HD
BRANCH   4  13
ATOM     13  C   UNL     1      -0.974  -0.478  25.537  0.00  0.00    +0.136 C 
BRANCH  13  14
ATOM      6  N   UNL     1      -3.341  -0.615  24.677  0.00  0.00    -0.347 N 
ATOM      7  N   UNL     1      -3.574  -2.732  24.052  0.00  0.00    -0.244 NA
ATOM     14  C   UNL     1      -2.143  -1.217  24.940  0.00  0.00    +0.049 A 
ATOM     16  C   UNL     1      -2.311  -2.522  24.545  0.00  0.00    +0.134 A 
ATOM     18  C   UNL     1      -4.168  -1.565  24.145  0.00  0.00    +0.196 A 
ATOM     22  H   UNL     1      -3.577   0.355  24.845  0.00  0.00    +0.167 HD
ENDBRANCH  13  14
ENDBRANCH   4  13
ENDBRANCH   8   4
BRANCH  10  12
ATOM     12  C   UNL     1      -3.021   3.952  25.060  0.00  0.00    +0.138 C 
BRANCH  12   5
ATOM      3  O   UNL     1      -5.820   4.202  25.787  0.00  0.00    -0.276 OA
ATOM      5  N   UNL     1      -4.018   2.922  25.053  0.00  0.00    -0.313 N 
ATOM     15  C   UNL     1      -5.343   3.132  25.419  0.00  0.00    +0.210 C 
ATOM     17  C   UNL     1      -6.182   1.888  25.297  0.00  0.00    +0.109 C 
ATOM     21  H   UNL     1      -3.732   1.990  24.766  0.00  0.00    +0.149 HD
ENDBRANCH  12   5
ENDBRANCH  10  12
TORSDOF 6
ENDMDL
MODEL 3
REMARK VINA RESULT:      -6.3      1.811      4.250
REMARK  Name = 75536509
REMARK  7 active torsions:
REMARK  status: ('A' for Active; 'I' for Inactive)
REMARK    1  A    between atoms: O_2  and  C_9
REMARK    2  A    between atoms: N_4  and  C_8
REMARK    3  A    between atoms: N_4  and  C_13
REMARK    4  A    between atoms: N_5  and  C_12
REMARK    5  A    between atoms: C_10  and  C_12
REMARK    6  A    between atoms: C_13  and  C_14
REMARK    7  A    between atoms: C_15  and  C_17
REMARK                            x       y       z     vdW  Elec       q    Type
REMARK                         _______ _______ _______ _____ _____    ______ ____
ROOT
ATOM      1  O   UNL     1      -0.922   0.365  23.407  0.00  0.00    -0.371 OA
ATOM      8  C   UNL     1      -1.007   2.501  24.441  0.00  0.00    +0.111 C 
ATOM      9  C   UNL     1      -0.950   1.432  25.517  0.00  0.00    +0.164 C 
ATOM     10  C   UNL     1      -0.380   0.257  24.734  0.00  0.00    +0.165 C 
ATOM     11  C   UNL     1      -1.452   1.690  23.235  0.00  0.00    +0.181 C 
ENDROOT
BRANCH   9   2
ATOM      2  O   UNL     1      -0.120   1.794  26.604  0.00  0.00    -0.388 OA
ATOM     20  H   UNL     1       0.194   2.702  26.458  0.00  0.00    +0.210 HD
ENDBRANCH   9   2
BRANCH   8   4
ATOM      4  N   UNL     1      -1.912   3.595  24.753  0.00  0.00    -0.304 NA
ATOM     19  H   UNL     1      -1.448   4.480  24.543  0.00  0.00    +0.123 HD
BRANCH   4  13
ATOM     13  C   UNL     1      -3.137   3.504  23.969  0.00  0.00    +0.136 C 
BRANCH  13  14
ATOM      6  N   UNL     1      -4.816   1.749  24.649  0.00  0.00    -0.347 N 
ATOM      7  N   UNL     1      -6.009   2.723  26.248  0.00  0.00    -0.244 NA
ATOM     14  C   UNL     1      -4.294   3.003  24.793  0.00  0.00    +0.049 A 
ATOM     16  C   UNL     1      -5.046   3.585  25.785  0.00  0.00    +0.134 A 
ATOM     18  C   UNL     1      -5.843   1.627  25.543  0.00  0.00    +0.196 A 
ATOM     22  H   UNL     1      -4.502   1.037  24.001  0.00  0.00    +0.167 HD
ENDBRANCH  13  14
ENDBRANCH   4  13
ENDBRANCH   8   4
BRANCH  10  12
ATOM     12  C   UNL     1      -0.740  -1.092  25.327  0.00  0.00    +0.138 C 
BRANCH  12   5
ATOM      3  O   UNL     1      -3.582  -0.956  25.907  0.00  0.00    -0.276 OA
ATOM      5  N   UNL     1      -1.808  -1.714  24.600  0.00  0.00    -0.313 N 
ATOM     15  C   UNL     1      -3.148  -1.595  24.951  0.00  0.00    +0.210 C 
ATOM     17  C   UNL     1      -4.062  -2.327  24.006  0.00  0.00    +0.109 C 
ATOM     21  H   UNL     1      -1.563  -2.274  23.788  0.00  0.00    +0.149 HD
ENDBRANCH  12   5
ENDBRANCH  10  12
TORSDOF 6
ENDMDL
MODEL 4
REMARK VINA RESULT:      -5.7      2.791      4.235
REMARK  Name = 75536509
REMARK  7 active torsions:
REMARK  status: ('A' for Active; 'I' for Inactive)
REMARK    1  A    between atoms: O_2  and  C_9
REMARK    2  A    between atoms: N_4  and  C_8
REMARK    3  A    between atoms: N_4  and  C_13
REMARK    4  A    between atoms: N_5  and  C_12
REMARK    5  A    between atoms: C_10  and  C_12
REMARK    6  A    between atoms: C_13  and  C_14
REMARK    7  A    between atoms: C_15  and  C_17
REMARK                            x       y       z     vdW  Elec       q    Type
REMARK                         _______ _______ _______ _____ _____    ______ ____
ROOT
ATOM      1  O   UNL     1      -1.524  -0.882  24.599  0.00  0.00    -0.371 OA
ATOM      8  C   UNL     1       0.166   0.749  24.246  0.00  0.00    +0.111 C 
ATOM      9  C   UNL     1      -1.183   1.351  23.898  0.00  0.00    +0.164 C 
ATOM     10  C   UNL     1      -2.123   0.424  24.657  0.00  0.00    +0.165 C 
ATOM     11  C   UNL     1      -0.148  -0.737  24.206  0.00  0.00    +0.181 C 
ENDROOT
BRANCH   9   2
ATOM      2  O   UNL     1      -1.309   2.694  24.324  0.00  0.00    -0.388 OA
ATOM     20  H   UNL     1      -0.954   3.270  23.626  0.00  0.00    +0.210 HD
ENDBRANCH   9   2
BRANCH   8   4
ATOM      4  N   UNL     1       1.228   1.129  23.329  0.00  0.00    -0.304 NA
ATOM     19  H   UNL     1       1.931   1.665  23.838  0.00  0.00    +0.123 HD
BRANCH   4  13
ATOM     13  C   UNL     1       1.860  -0.047  22.743  0.00  0.00    +0.136 C 
BRANCH  13  14
ATOM      6  N   UNL     1       3.883  -1.235  23.669  0.00  0.00    -0.347 N 
ATOM      7  N   UNL     1       5.536   0.226  23.425  0.00  0.00    -0.244 NA
ATOM     14  C   UNL     1       3.323  -0.130  23.094  0.00  0.00    +0.049 A 
ATOM     16  C   UNL     1       4.363   0.758  22.953  0.00  0.00    +0.134 A 
ATOM     18  C   UNL     1       5.213  -0.974  23.849  0.00  0.00    +0.196 A 
ATOM     22  H   UNL     1       3.404  -2.092  23.918  0.00  0.00    +0.167 HD
ENDBRANCH  13  14
ENDBRANCH   4  13
ENDBRANCH   8   4
BRANCH  10  12
ATOM     12  C   UNL     1      -3.521   0.372  24.069  0.00  0.00    +0.138 C 
BRANCH  12   5
ATOM      3  O   UNL     1      -4.119   3.203  23.831  0.00  0.00    -0.276 OA
ATOM      5  N   UNL     1      -4.446   1.137  24.854  0.00  0.00    -0.313 N 
ATOM     15  C   UNL     1      -4.670   2.496  24.671  0.00  0.00    +0.210 C 
ATOM     17  C   UNL     1      -5.708   3.045  25.613  0.00  0.00    +0.109 C 
ATOM     21  H   UNL     1      -4.958   0.651  25.585  0.00  0.00    +0.149 HD
ENDBRANCH  12   5
ENDBRANCH  10  12
TORSDOF 6
ENDMDL
MODEL 5
REMARK VINA RESULT:      -5.3      1.721      4.087
REMARK  Name = 75536509
REMARK  7 active torsions:
REMARK  status: ('A' for Active; 'I' for Inactive)
REMARK    1  A    between atoms: O_2  and  C_9
REMARK    2  A    between atoms: N_4  and  C_8
REMARK    3  A    between atoms: N_4  and  C_13
REMARK    4  A    between atoms: N_5  and  C_12
REMARK    5  A    between atoms: C_10  and  C_12
REMARK    6  A    between atoms: C_13  and  C_14
REMARK    7  A    between atoms: C_15  and  C_17
REMARK                            x       y       z     vdW  Elec       q    Type
REMARK                         _______ _______ _______ _____ _____    ______ ____
ROOT
ATOM      1  O   UNL     1      -1.383   2.171  22.894  0.00  0.00    -0.371 OA
ATOM      8  C   UNL     1      -3.471   2.714  23.887  0.00  0.00    +0.111 C 
ATOM      9  C   UNL     1      -2.425   2.576  24.978  0.00  0.00    +0.164 C 
ATOM     10  C   UNL     1      -1.142   2.766  24.180  0.00  0.00    +0.165 C 
ATOM     11  C   UNL     1      -2.800   1.987  22.734  0.00  0.00    +0.181 C 
ENDROOT
BRANCH   9   2
ATOM      2  O   UNL     1      -2.564   3.551  25.994  0.00  0.00    -0.388 OA
ATOM     20  H   UNL     1      -2.125   4.365  25.697  0.00  0.00    +0.210 HD
ENDBRANCH   9   2
BRANCH   8   4
ATOM      4  N   UNL     1      -4.762   2.146  24.241  0.00  0.00    -0.304 NA
ATOM     19  H   UNL     1      -5.092   1.565  23.470  0.00  0.00    +0.123 HD
BRANCH   4  13
ATOM     13  C   UNL     1      -4.663   1.328  25.443  0.00  0.00    +0.136 C 
BRANCH  13  14
ATOM      6  N   UNL     1      -4.579  -0.681  23.920  0.00  0.00    -0.347 N 
ATOM      7  N   UNL     1      -3.551  -2.237  25.124  0.00  0.00    -0.244 NA
ATOM     14  C   UNL     1      -4.297  -0.098  25.123  0.00  0.00    +0.049 A 
ATOM     16  C   UNL     1      -3.662  -1.078  25.849  0.00  0.00    +0.134 A 
ATOM     18  C   UNL     1      -4.113  -1.965  23.968  0.00  0.00    +0.196 A 
ATOM     22  H   UNL     1      -5.047  -0.245  23.135  0.00  0.00    +0.167 HD
ENDBRANCH  13  14
ENDBRANCH   4  13
ENDBRANCH   8   4
BRANCH  10  12
ATOM     12  C   UNL     1       0.069   2.118  24.826  0.00  0.00    +0.138 C 
BRANCH  12   5
ATOM      3  O   UNL     1       0.505  -0.317  23.305  0.00  0.00    -0.276 OA
ATOM      5  N   UNL     1      -0.214   0.773  25.235  0.00  0.00    -0.313 N 
ATOM     15  C   UNL     1       0.028  -0.340  24.437  0.00  0.00    +0.210 C 
ATOM     17  C   UNL     1      -0.339  -1.632  25.118  0.00  0.00    +0.109 C 
ATOM     21  H   UNL     1      -0.617   0.635  26.157  0.00  0.00    +0.149 HD
ENDBRANCH  12   5
ENDBRANCH  10  12
TORSDOF 6
ENDMDL
MODEL 6
REMARK VINA RESULT:      -5.1      1.658      3.678
REMARK  Name = 75536509
REMARK  7 active torsions:
REMARK  status: ('A' for Active; 'I' for Inactive)
REMARK    1  A    between atoms: O_2  and  C_9
REMARK    2  A    between atoms: N_4  and  C_8
REMARK    3  A    between atoms: N_4  and  C_13
REMARK    4  A    between atoms: N_5  and  C_12
REMARK    5  A    between atoms: C_10  and  C_12
REMARK    6  A    between atoms: C_13  and  C_14
REMARK    7  A    between atoms: C_15  and  C_17
REMARK                            x       y       z     vdW  Elec       q    Type
REMARK                         _______ _______ _______ _____ _____    ______ ____
ROOT
ATOM      1  O   UNL     1      -3.608   2.571  23.219  0.00  0.00    -0.371 OA
ATOM      8  C   UNL     1      -3.697   0.296  23.895  0.00  0.00    +0.111 C 
ATOM      9  C   UNL     1      -4.103   1.176  25.064  0.00  0.00    +0.164 C 
ATOM     10  C   UNL     1      -4.497   2.458  24.342  0.00  0.00    +0.165 C 
ATOM     11  C   UNL     1      -2.982   1.295  23.001  0.00  0.00    +0.181 C 
ENDROOT
BRANCH   9   2
ATOM      2  O   UNL     1      -5.178   0.636  25.807  0.00  0.00    -0.388 OA
ATOM     20  H   UNL     1      -5.022  -0.316  25.922  0.00  0.00    +0.210 HD
ENDBRANCH   9   2
BRANCH   8   4
ATOM      4  N   UNL     1      -2.856  -0.827  24.276  0.00  0.00    -0.304 NA
ATOM     19  H   UNL     1      -2.416  -1.211  23.439  0.00  0.00    +0.123 HD
BRANCH   4  13
ATOM     13  C   UNL     1      -1.818  -0.413  25.211  0.00  0.00    +0.136 C 
BRANCH  13  14
ATOM      6  N   UNL     1       0.005   1.271  24.760  0.00  0.00    -0.347 N 
ATOM      7  N   UNL     1       1.244   0.326  23.179  0.00  0.00    -0.244 NA
ATOM     14  C   UNL     1      -0.579   0.065  24.498  0.00  0.00    +0.049 A 
ATOM     16  C   UNL     1       0.203  -0.500  23.519  0.00  0.00    +0.134 A 
ATOM     18  C   UNL     1       1.096   1.384  23.944  0.00  0.00    +0.196 A 
ATOM     22  H   UNL     1      -0.309   1.958  25.434  0.00  0.00    +0.167 HD
ENDBRANCH  13  14
ENDBRANCH   4  13
ENDBRANCH   8   4
BRANCH  10  12
ATOM     12  C   UNL     1      -4.384   3.697  25.212  0.00  0.00    +0.138 C 
BRANCH  12   5
ATOM      3  O   UNL     1      -1.693   3.312  26.231  0.00  0.00    -0.276 OA
ATOM      5  N   UNL     1      -3.213   4.457  24.888  0.00  0.00    -0.313 N 
ATOM     15  C   UNL     1      -1.957   4.202  25.427  0.00  0.00    +0.210 C 
ATOM     17  C   UNL     1      -0.900   5.134  24.899  0.00  0.00    +0.109 C 
ATOM     21  H   UNL     1      -3.316   5.225  24.231  0.00  0.00    +0.149 HD
ENDBRANCH  12   5
ENDBRANCH  10  12
TORSDOF 6
ENDMDL
MODEL 7
REMARK VINA RESULT:      -4.8      1.683      3.925
REMARK  Name = 75536509
REMARK  7 active torsions:
REMARK  status: ('A' for Active; 'I' for Inactive)
REMARK    1  A    between atoms: O_2  and  C_9
REMARK    2  A    between atoms: N_4  and  C_8
REMARK    3  A    between atoms: N_4  and  C_13
REMARK    4  A    between atoms: N_5  and  C_12
REMARK    5  A    between atoms: C_10  and  C_12
REMARK    6  A    between atoms: C_13  and  C_14
REMARK    7  A    between atoms: C_15  and  C_17
REMARK                            x       y       z     vdW  Elec       q    Type
REMARK                         _______ _______ _______ _____ _____    ______ ____
ROOT
ATOM      1  O   UNL     1      -3.096   3.014  23.421  0.00  0.00    -0.371 OA
ATOM      8  C   UNL     1      -4.678   1.412  24.177  0.00  0.00    +0.111 C 
ATOM      9  C   UNL     1      -4.351   2.361  25.316  0.00  0.00    +0.164 C 
ATOM     10  C   UNL     1      -3.797   3.556  24.552  0.00  0.00    +0.165 C 
ATOM     11  C   UNL     1      -3.501   1.646  23.244  0.00  0.00    +0.181 C 
ENDROOT
BRANCH   9   2
ATOM      2  O   UNL     1      -5.488   2.705  26.083  0.00  0.00    -0.388 OA
ATOM     20  H   UNL     1      -6.250   2.209  25.740  0.00  0.00    +0.210 HD
ENDBRANCH   9   2
BRANCH   8   4
ATOM      4  N   UNL     1      -4.805   0.025  24.592  0.00  0.00    -0.304 NA
ATOM     19  H   UNL     1      -4.530  -0.580  23.818  0.00  0.00    +0.123 HD
BRANCH   4  13
ATOM     13  C   UNL     1      -3.955  -0.260  25.741  0.00  0.00    +0.136 C 
BRANCH  13  14
ATOM      6  N   UNL     1      -1.457  -0.597  25.670  0.00  0.00    -0.347 N 
ATOM      7  N   UNL     1      -1.192  -2.489  24.538  0.00  0.00    -0.244 NA
ATOM     14  C   UNL     1      -2.715  -1.019  25.347  0.00  0.00    +0.049 A 
ATOM     16  C   UNL     1      -2.526  -2.188  24.650  0.00  0.00    +0.134 A 
ATOM     18  C   UNL     1      -0.575  -1.512  25.163  0.00  0.00    +0.196 A 
ATOM     22  H   UNL     1      -1.217   0.238  26.189  0.00  0.00    +0.167 HD
ENDBRANCH  13  14
ENDBRANCH   4  13
ENDBRANCH   8   4
BRANCH  10  12
ATOM     12  C   UNL     1      -2.854   4.413  25.378  0.00  0.00    +0.138 C 
BRANCH  12   5
ATOM      3  O   UNL     1      -0.240   3.624  24.392  0.00  0.00    -0.276 OA
ATOM      5  N   UNL     1      -1.875   3.611  26.051  0.00  0.00    -0.313 N 
ATOM     15  C   UNL     1      -0.642   3.280  25.500  0.00  0.00    +0.210 C 
ATOM     17  C   UNL     1       0.203   2.449  26.429  0.00  0.00    +0.109 C 
ATOM     21  H   UNL     1      -2.104   3.267  26.979  0.00  0.00    +0.149 HD
ENDBRANCH  12   5
ENDBRANCH  10  12
TORSDOF 6
ENDMDL
MODEL 8
REMARK VINA RESULT:      -4.8      1.841      5.171
REMARK  Name = 75536509
REMARK  7 active torsions:
REMARK  status: ('A' for Active; 'I' for Inactive)
REMARK    1  A    between atoms: O_2  and  C_9
REMARK    2  A    between atoms: N_4  and  C_8
REMARK    3  A    between atoms: N_4  and  C_13
REMARK    4  A    between atoms: N_5  and  C_12
REMARK    5  A    between atoms: C_10  and  C_12
REMARK    6  A    between atoms: C_13  and  C_14
REMARK    7  A    between atoms: C_15  and  C_17
REMARK                            x       y       z     vdW  Elec       q    Type
REMARK                         _______ _______ _______ _____ _____    ______ ____
ROOT
ATOM      1  O   UNL     1      -1.221  -0.391  26.180  0.00  0.00    -0.371 OA
ATOM      8  C   UNL     1      -2.561  -0.334  24.220  0.00  0.00    +0.111 C 
ATOM      9  C   UNL     1      -1.848   0.998  24.371  0.00  0.00    +0.164 C 
ATOM     10  C   UNL     1      -0.699   0.612  25.293  0.00  0.00    +0.165 C 
ATOM     11  C   UNL     1      -2.448  -0.897  25.627  0.00  0.00    +0.181 C 
ENDROOT
BRANCH   9   2
ATOM      2  O   UNL     1      -1.386   1.513  23.138  0.00  0.00    -0.388 OA
ATOM     20  H   UNL     1      -0.415   1.547  23.166  0.00  0.00    +0.210 HD
ENDBRANCH   9   2
BRANCH   8   4
ATOM      4  N   UNL     1      -3.937  -0.211  23.767  0.00  0.00    -0.304 NA
ATOM     19  H   UNL     1      -4.239  -1.104  23.377  0.00  0.00    +0.123 HD
BRANCH   4  13
ATOM     13  C   UNL     1      -4.822   0.149  24.869  0.00  0.00    +0.136 C 
BRANCH  13  14
ATOM      6  N   UNL     1      -5.778   2.222  25.940  0.00  0.00    -0.347 N 
ATOM      7  N   UNL     1      -4.987   3.890  24.706  0.00  0.00    -0.244 NA
ATOM     14  C   UNL     1      -5.012   1.640  24.970  0.00  0.00    +0.049 A 
ATOM     16  C   UNL     1      -4.534   2.688  24.222  0.00  0.00    +0.134 A 
ATOM     18  C   UNL     1      -5.733   3.574  25.740  0.00  0.00    +0.196 A 
ATOM     22  H   UNL     1      -6.287   1.744  26.673  0.00  0.00    +0.167 HD
ENDBRANCH  13  14
ENDBRANCH   4  13
ENDBRANCH   8   4
BRANCH  10  12
ATOM     12  C   UNL     1      -0.159   1.779  26.100  0.00  0.00    +0.138 C 
BRANCH  12   5
ATOM      3  O   UNL     1      -2.216   3.785  26.515  0.00  0.00    -0.276 OA
ATOM      5  N   UNL     1      -0.321   3.019  25.398  0.00  0.00    -0.313 N 
ATOM     15  C   UNL     1      -1.341   3.925  25.664  0.00  0.00    +0.210 C 
ATOM     17  C   UNL     1      -1.264   5.155  24.799  0.00  0.00    +0.109 C 
ATOM     21  H   UNL     1       0.349   3.237  24.666  0.00  0.00    +0.149 HD
ENDBRANCH  12   5
ENDBRANCH  10  12
TORSDOF 6
ENDMDL
MODEL 9
REMARK VINA RESULT:      -4.6      2.885      3.817
REMARK  Name = 75536509
REMARK  7 active torsions:
REMARK  status: ('A' for Active; 'I' for Inactive)
REMARK    1  A    between atoms: O_2  and  C_9
REMARK    2  A    between atoms: N_4  and  C_8
REMARK    3  A    between atoms: N_4  and  C_13
REMARK    4  A    between atoms: N_5  and  C_12
REMARK    5  A    between atoms: C_10  and  C_12
REMARK    6  A    between atoms: C_13  and  C_14
REMARK    7  A    between atoms: C_15  and  C_17
REMARK                            x       y       z     vdW  Elec       q    Type
REMARK                         _______ _______ _______ _____ _____    ______ ____
ROOT
ATOM      1  O   UNL     1      -1.253  -0.088  24.908  0.00  0.00    -0.371 OA
ATOM      8  C   UNL     1       0.589   1.307  24.360  0.00  0.00    +0.111 C 
ATOM      9  C   UNL     1      -0.700   2.056  24.077  0.00  0.00    +0.164 C 
ATOM     10  C   UNL     1      -1.685   1.282  24.943  0.00  0.00    +0.165 C 
ATOM     11  C   UNL     1       0.097  -0.129  24.414  0.00  0.00    +0.181 C 
ENDROOT
BRANCH   9   2
ATOM      2  O   UNL     1      -0.632   3.420  24.444  0.00  0.00    -0.388 OA
ATOM     20  H   UNL     1      -1.245   3.919  23.879  0.00  0.00    +0.210 HD
ENDBRANCH   9   2
BRANCH   8   4
ATOM      4  N   UNL     1       1.619   1.516  23.355  0.00  0.00    -0.304 NA
ATOM     19  H   UNL     1       2.413   1.991  23.786  0.00  0.00    +0.123 HD
BRANCH   4  13
ATOM     13  C   UNL     1       2.071   0.248  22.795  0.00  0.00    +0.136 C 
BRANCH  13  14
ATOM      6  N   UNL     1       3.915  -1.219  23.693  0.00  0.00    -0.347 N 
ATOM      7  N   UNL     1       5.748   0.014  23.479  0.00  0.00    -0.244 NA
ATOM     14  C   UNL     1       3.508  -0.037  23.142  0.00  0.00    +0.049 A 
ATOM     16  C   UNL     1       4.657   0.707  23.019  0.00  0.00    +0.134 A 
ATOM     18  C   UNL     1       5.268  -1.142  23.878  0.00  0.00    +0.196 A 
ATOM     22  H   UNL     1       3.326  -2.009  23.925  0.00  0.00    +0.167 HD
ENDBRANCH  13  14
ENDBRANCH   4  13
ENDBRANCH   8   4
BRANCH  10  12
ATOM     12  C   UNL     1      -3.119   1.380  24.456  0.00  0.00    +0.138 C 
BRANCH  12   5
ATOM      3  O   UNL     1      -4.019  -0.995  25.862  0.00  0.00    -0.276 OA
ATOM      5  N   UNL     1      -3.562   0.143  23.881  0.00  0.00    -0.313 N 
ATOM     15  C   UNL     1      -3.977  -0.949  24.635  0.00  0.00    +0.210 C 
ATOM     17  C   UNL     1      -4.412  -2.110  23.781  0.00  0.00    +0.109 C 
ATOM     21  H   UNL     1      -3.565   0.068  22.868  0.00  0.00    +0.149 HD
ENDBRANCH  12   5
ENDBRANCH  10  12
TORSDOF 6
ENDMDL
MODEL 10
REMARK VINA RESULT:      -4.3      2.368      5.209
REMARK  Name = 75536509
REMARK  7 active torsions:
REMARK  status: ('A' for Active; 'I' for Inactive)
REMARK    1  A    between atoms: O_2  and  C_9
REMARK    2  A    between atoms: N_4  and  C_8
REMARK    3  A    between atoms: N_4  and  C_13
REMARK    4  A    between atoms: N_5  and  C_12
REMARK    5  A    between atoms: C_10  and  C_12
REMARK    6  A    between atoms: C_13  and  C_14
REMARK    7  A    between atoms: C_15  and  C_17
REMARK                            x       y       z     vdW  Elec       q    Type
REMARK                         _______ _______ _______ _____ _____    ______ ____
ROOT
ATOM      1  O   UNL     1      -0.166   0.841  25.614  0.00  0.00    -0.371 OA
ATOM      8  C   UNL     1      -1.897   2.366  25.054  0.00  0.00    +0.111 C 
ATOM      9  C   UNL     1      -1.552   1.539  23.829  0.00  0.00    +0.164 C 
ATOM     10  C   UNL     1      -0.875   0.335  24.471  0.00  0.00    +0.165 C 
ATOM     11  C   UNL     1      -0.665   2.155  25.918  0.00  0.00    +0.181 C 
ENDROOT
BRANCH   9   2
ATOM      2  O   UNL     1      -2.693   1.166  23.082  0.00  0.00    -0.388 OA
ATOM     20  H   UNL     1      -2.863   1.857  22.420  0.00  0.00    +0.210 HD
ENDBRANCH   9   2
BRANCH   8   4
ATOM      4  N   UNL     1      -2.148   3.768  24.759  0.00  0.00    -0.304 NA
ATOM     19  H   UNL     1      -2.345   3.868  23.763  0.00  0.00    +0.123 HD
BRANCH   4  13
ATOM     13  C   UNL     1      -3.286   4.269  25.520  0.00  0.00    +0.136 C 
BRANCH  13  14
ATOM      6  N   UNL     1      -5.252   3.030  26.502  0.00  0.00    -0.347 N 
ATOM      7  N   UNL     1      -6.124   1.935  24.780  0.00  0.00    -0.244 NA
ATOM     14  C   UNL     1      -4.474   3.347  25.425  0.00  0.00    +0.049 A 
ATOM     16  C   UNL     1      -5.032   2.659  24.374  0.00  0.00    +0.134 A 
ATOM     18  C   UNL     1      -6.230   2.180  26.066  0.00  0.00    +0.196 A 
ATOM     22  H   UNL     1      -5.129   3.362  27.451  0.00  0.00    +0.167 HD
ENDBRANCH  13  14
ENDBRANCH   4  13
ENDBRANCH   8   4
BRANCH  10  12
ATOM     12  C   UNL     1       0.092  -0.377  23.542  0.00  0.00    +0.138 C 
BRANCH  12   5
ATOM      3  O   UNL     1       2.036  -0.261  21.389  0.00  0.00    -0.276 OA
ATOM      5  N   UNL     1       1.390   0.232  23.572  0.00  0.00    -0.313 N 
ATOM     15  C   UNL     1       2.260   0.240  22.488  0.00  0.00    +0.210 C 
ATOM     17  C   UNL     1       3.545   0.966  22.783  0.00  0.00    +0.109 C 
ATOM     21  H   UNL     1       1.682   0.676  24.438  0.00  0.00    +0.149 HD
ENDBRANCH  12   5
ENDBRANCH  10  12
TORSDOF 6
ENDMDL
