MODEL 1
REMARK VINA RESULT:      -5.4      0.000      0.000
REMARK  Name = 75367090
REMARK  10 active torsions:
REMARK  status: ('A' for Active; 'I' for Inactive)
REMARK    1  A    between atoms: O_3  and  C_8
REMARK    2  A    between atoms: N_5  and  C_7
REMARK    3  A    between atoms: N_5  and  C_12
REMARK    4  A    between atoms: N_6  and  C_13
REMARK    5  A    between atoms: C_9  and  C_13
REMARK    6  A    between atoms: C_11  and  C_12
REMARK    7  A    between atoms: C_11  and  C_14
REMARK    8  A    between atoms: C_11  and  C_15
REMARK    9  A    between atoms: C_11  and  C_16
REMARK   10  A    between atoms: C_17  and  C_18
REMARK                            x       y       z     vdW  Elec       q    Type
REMARK                         _______ _______ _______ _____ _____    ______ ____
ROOT
ATOM      2  O   UNL     1      -1.440  -2.049  23.588  0.00  0.00    -0.371 OA
ATOM      7  C   UNL     1       0.038  -0.478  24.584  0.00  0.00    +0.111 C 
ATOM      8  C   UNL     1      -1.228  -0.566  25.418  0.00  0.00    +0.164 C 
ATOM      9  C   UNL     1      -1.775  -1.917  24.979  0.00  0.00    +0.165 C 
ATOM     10  C   UNL     1      -0.428  -1.079  23.268  0.00  0.00    +0.181 C 
ENDROOT
BRANCH   8   3
ATOM      3  O   UNL     1      -0.970  -0.526  26.807  0.00  0.00    -0.388 OA
ATOM     25  H   UNL     1      -1.371   0.282  27.171  0.00  0.00    +0.210 HD
ENDBRANCH   8   3
BRANCH   7   5
ATOM      5  N   UNL     1       0.550   0.874  24.440  0.00  0.00    -0.308 NA
ATOM     24  H   UNL     1       1.167   0.909  23.630  0.00  0.00    +0.122 HD
BRANCH   5  12
ATOM     12  C   UNL     1      -0.535   1.831  24.264  0.00  0.00    +0.087 C 
BRANCH  12  11
ATOM     11  C   UNL     1      -0.564   2.957  25.329  0.00  0.00    -0.025 C 
ATOM     14  C   UNL     1      -1.887   2.948  26.116  0.00  0.00    +0.012 C 
ATOM     15  C   UNL     1      -0.374   4.336  24.672  0.00  0.00    +0.012 C 
ATOM     16  C   UNL     1       0.594   2.719  26.316  0.00  0.00    +0.012 C 
ENDBRANCH  12  11
ENDBRANCH   5  12
ENDBRANCH   7   5
BRANCH   9  13
ATOM     13  C   UNL     1      -3.278  -2.043  25.160  0.00  0.00    +0.138 C 
BRANCH  13   6
ATOM      4  O   UNL     1      -3.717  -0.018  23.173  0.00  0.00    -0.270 OA
ATOM      6  N   UNL     1      -3.889  -0.760  25.364  0.00  0.00    -0.309 N 
ATOM     17  C   UNL     1      -4.062   0.163  24.338  0.00  0.00    +0.244 C 
ATOM     26  H   UNL     1      -4.132  -0.520  26.319  0.00  0.00    +0.149 HD
BRANCH  17  18
ATOM      1  F   UNL     1      -6.424   5.050  25.771  0.00  0.00    -0.205 F 
ATOM     18  C   UNL     1      -4.687   1.455  24.717  0.00  0.00    +0.037 A 
ATOM     19  C   UNL     1      -5.681   1.489  25.695  0.00  0.00    +0.016 A 
ATOM     20  C   UNL     1      -4.280   2.637  24.096  0.00  0.00    +0.016 A 
ATOM     21  C   UNL     1      -6.269   2.703  26.050  0.00  0.00    +0.039 A 
ATOM     22  C   UNL     1      -4.867   3.851  24.452  0.00  0.00    +0.039 A 
ATOM     23  C   UNL     1      -5.862   3.884  25.429  0.00  0.00    +0.123 A 
ENDBRANCH  17  18
ENDBRANCH  13   6
ENDBRANCH   9  13
TORSDOF 7
ENDMDL
MODEL 2
REMARK VINA RESULT:      -5.3      2.646      5.107
REMARK  Name = 75367090
REMARK  10 active torsions:
REMARK  status: ('A' for Active; 'I' for Inactive)
REMARK    1  A    between atoms: O_3  and  C_8
REMARK    2  A    between atoms: N_5  and  C_7
REMARK    3  A    between atoms: N_5  and  C_12
REMARK    4  A    between atoms: N_6  and  C_13
REMARK    5  A    between atoms: C_9  and  C_13
REMARK    6  A    between atoms: C_11  and  C_12
REMARK    7  A    between atoms: C_11  and  C_14
REMARK    8  A    between atoms: C_11  and  C_15
REMARK    9  A    between atoms: C_11  and  C_16
REMARK   10  A    between atoms: C_17  and  C_18
REMARK                            x       y       z     vdW  Elec       q    Type
REMARK                         _______ _______ _______ _____ _____    ______ ____
ROOT
ATOM      2  O   UNL     1      -0.227   3.733  23.769  0.00  0.00    -0.371 OA
ATOM      7  C   UNL     1      -1.463   4.154  25.754  0.00  0.00    +0.111 C 
ATOM      8  C   UNL     1      -0.857   2.764  25.833  0.00  0.00    +0.164 C 
ATOM      9  C   UNL     1       0.267   2.876  24.812  0.00  0.00    +0.165 C 
ATOM     10  C   UNL     1      -1.384   4.431  24.261  0.00  0.00    +0.181 C 
ENDROOT
BRANCH   8   3
ATOM      3  O   UNL     1      -0.368   2.455  27.123  0.00  0.00    -0.388 OA
ATOM     25  H   UNL     1      -1.120   2.442  27.740  0.00  0.00    +0.210 HD
ENDBRANCH   8   3
BRANCH   7   5
ATOM      5  N   UNL     1      -2.818   4.230  26.274  0.00  0.00    -0.308 NA
ATOM     24  H   UNL     1      -3.319   4.971  25.784  0.00  0.00    +0.122 HD
BRANCH   5  12
ATOM     12  C   UNL     1      -3.523   2.967  26.091  0.00  0.00    +0.087 C 
BRANCH  12  11
ATOM     11  C   UNL     1      -4.775   3.068  25.184  0.00  0.00    -0.025 C 
ATOM     14  C   UNL     1      -5.776   1.938  25.486  0.00  0.00    +0.012 C 
ATOM     15  C   UNL     1      -4.382   3.012  23.698  0.00  0.00    +0.012 C 
ATOM     16  C   UNL     1      -5.465   4.418  25.460  0.00  0.00    +0.012 C 
ENDBRANCH  12  11
ENDBRANCH   5  12
ENDBRANCH   7   5
BRANCH   9  13
ATOM     13  C   UNL     1       0.679   1.537  24.224  0.00  0.00    +0.138 C 
BRANCH  13   6
ATOM      4  O   UNL     1      -0.479  -0.299  26.102  0.00  0.00    -0.270 OA
ATOM      6  N   UNL     1      -0.459   0.691  24.005  0.00  0.00    -0.309 N 
ATOM     17  C   UNL     1      -0.953  -0.172  24.977  0.00  0.00    +0.244 C 
ATOM     26  H   UNL     1      -0.855   0.696  23.071  0.00  0.00    +0.149 HD
BRANCH  17  18
ATOM      1  F   UNL     1      -5.371  -3.304  23.495  0.00  0.00    -0.205 F 
ATOM     18  C   UNL     1      -2.122  -1.000  24.585  0.00  0.00    +0.037 A 
ATOM     19  C   UNL     1      -3.329  -0.388  24.248  0.00  0.00    +0.016 A 
ATOM     20  C   UNL     1      -2.014  -2.391  24.553  0.00  0.00    +0.016 A 
ATOM     21  C   UNL     1      -4.428  -1.166  23.881  0.00  0.00    +0.039 A 
ATOM     22  C   UNL     1      -3.111  -3.169  24.185  0.00  0.00    +0.039 A 
ATOM     23  C   UNL     1      -4.318  -2.556  23.849  0.00  0.00    +0.123 A 
ENDBRANCH  17  18
ENDBRANCH  13   6
ENDBRANCH   9  13
TORSDOF 7
ENDMDL
MODEL 3
REMARK VINA RESULT:      -3.8      2.948      5.069
REMARK  Name = 75367090
REMARK  10 active torsions:
REMARK  status: ('A' for Active; 'I' for Inactive)
REMARK    1  A    between atoms: O_3  and  C_8
REMARK    2  A    between atoms: N_5  and  C_7
REMARK    3  A    between atoms: N_5  and  C_12
REMARK    4  A    between atoms: N_6  and  C_13
REMARK    5  A    between atoms: C_9  and  C_13
REMARK    6  A    between atoms: C_11  and  C_12
REMARK    7  A    between atoms: C_11  and  C_14
REMARK    8  A    between atoms: C_11  and  C_15
REMARK    9  A    between atoms: C_11  and  C_16
REMARK   10  A    between atoms: C_17  and  C_18
REMARK                            x       y       z     vdW  Elec       q    Type
REMARK                         _______ _______ _______ _____ _____    ______ ____
ROOT
ATOM      2  O   UNL     1      -3.858   3.900  26.890  0.00  0.00    -0.371 OA
ATOM      7  C   UNL     1      -2.224   4.585  25.307  0.00  0.00    +0.111 C 
ATOM      8  C   UNL     1      -3.444   4.069  24.567  0.00  0.00    +0.164 C 
ATOM      9  C   UNL     1      -4.513   4.190  25.644  0.00  0.00    +0.165 C 
ATOM     10  C   UNL     1      -2.436   3.990  26.689  0.00  0.00    +0.181 C 
ENDROOT
BRANCH   8   3
ATOM      3  O   UNL     1      -3.757   4.840  23.424  0.00  0.00    -0.388 OA
ATOM     25  H   UNL     1      -4.189   4.261  22.772  0.00  0.00    +0.210 HD
ENDBRANCH   8   3
BRANCH   7   5
ATOM      5  N   UNL     1      -0.963   4.185  24.705  0.00  0.00    -0.308 NA
ATOM     24  H   UNL     1      -0.233   4.213  25.416  0.00  0.00    +0.122 HD
BRANCH   5  12
ATOM     12  C   UNL     1      -1.049   2.838  24.152  0.00  0.00    +0.087 C 
BRANCH  12  11
ATOM     11  C   UNL     1      -0.063   1.828  24.793  0.00  0.00    -0.025 C 
ATOM     14  C   UNL     1       1.157   1.586  23.885  0.00  0.00    +0.012 C 
ATOM     15  C   UNL     1      -0.760   0.486  25.074  0.00  0.00    +0.012 C 
ATOM     16  C   UNL     1       0.431   2.416  26.129  0.00  0.00    +0.012 C 
ENDBRANCH  12  11
ENDBRANCH   5  12
ENDBRANCH   7   5
BRANCH   9  13
ATOM     13  C   UNL     1      -5.678   3.237  25.444  0.00  0.00    +0.138 C 
BRANCH  13   6
ATOM      4  O   UNL     1      -4.205   1.831  23.421  0.00  0.00    -0.270 OA
ATOM      6  N   UNL     1      -5.248   1.869  25.493  0.00  0.00    -0.309 N 
ATOM     17  C   UNL     1      -4.535   1.267  24.461  0.00  0.00    +0.244 C 
ATOM     26  H   UNL     1      -5.550   1.326  26.295  0.00  0.00    +0.149 HD
BRANCH  17  18
ATOM      1  F   UNL     1      -3.211  -4.141  25.188  0.00  0.00    -0.205 F 
ATOM     18  C   UNL     1      -4.185  -0.164  24.653  0.00  0.00    +0.037 A 
ATOM     19  C   UNL     1      -4.376  -1.074  23.614  0.00  0.00    +0.016 A 
ATOM     20  C   UNL     1      -3.664  -0.598  25.873  0.00  0.00    +0.016 A 
ATOM     21  C   UNL     1      -4.049  -2.418  23.795  0.00  0.00    +0.039 A 
ATOM     22  C   UNL     1      -3.335  -1.941  26.053  0.00  0.00    +0.039 A 
ATOM     23  C   UNL     1      -3.528  -2.851  25.014  0.00  0.00    +0.123 A 
ENDBRANCH  17  18
ENDBRANCH  13   6
ENDBRANCH   9  13
TORSDOF 7
ENDMDL
MODEL 4
REMARK VINA RESULT:      -3.3      1.705      2.799
REMARK  Name = 75367090
REMARK  10 active torsions:
REMARK  status: ('A' for Active; 'I' for Inactive)
REMARK    1  A    between atoms: O_3  and  C_8
REMARK    2  A    between atoms: N_5  and  C_7
REMARK    3  A    between atoms: N_5  and  C_12
REMARK    4  A    between atoms: N_6  and  C_13
REMARK    5  A    between atoms: C_9  and  C_13
REMARK    6  A    between atoms: C_11  and  C_12
REMARK    7  A    between atoms: C_11  and  C_14
REMARK    8  A    between atoms: C_11  and  C_15
REMARK    9  A    between atoms: C_11  and  C_16
REMARK   10  A    between atoms: C_17  and  C_18
REMARK                            x       y       z     vdW  Elec       q    Type
REMARK                         _______ _______ _______ _____ _____    ______ ____
ROOT
ATOM      2  O   UNL     1      -1.546  -2.586  23.952  0.00  0.00    -0.371 OA
ATOM      7  C   UNL     1      -0.035  -0.763  24.149  0.00  0.00    +0.111 C 
ATOM      8  C   UNL     1      -1.195  -0.550  25.104  0.00  0.00    +0.164 C 
ATOM      9  C   UNL     1      -1.729  -1.970  25.237  0.00  0.00    +0.165 C 
ATOM     10  C   UNL     1      -0.617  -1.791  23.193  0.00  0.00    +0.181 C 
ENDROOT
BRANCH   8   3
ATOM      3  O   UNL     1      -0.785  -0.022  26.350  0.00  0.00    -0.388 OA
ATOM     25  H   UNL     1       0.002  -0.511  26.646  0.00  0.00    +0.210 HD
ENDBRANCH   8   3
BRANCH   7   5
ATOM      5  N   UNL     1       0.401   0.451  23.479  0.00  0.00    -0.308 NA
ATOM     24  H   UNL     1      -0.203   1.221  23.764  0.00  0.00    +0.122 HD
BRANCH   5  12
ATOM     12  C   UNL     1       1.783   0.770  23.816  0.00  0.00    +0.087 C 
BRANCH  12  11
ATOM     11  C   UNL     1       2.827   0.156  22.849  0.00  0.00    -0.025 C 
ATOM     14  C   UNL     1       2.181  -0.249  21.512  0.00  0.00    +0.012 C 
ATOM     15  C   UNL     1       3.499  -1.076  23.480  0.00  0.00    +0.012 C 
ATOM     16  C   UNL     1       3.908   1.216  22.568  0.00  0.00    +0.012 C 
ENDBRANCH  12  11
ENDBRANCH   5  12
ENDBRANCH   7   5
BRANCH   9  13
ATOM     13  C   UNL     1      -3.196  -2.024  25.628  0.00  0.00    +0.138 C 
BRANCH  13   6
ATOM      4  O   UNL     1      -4.015  -0.331  23.459  0.00  0.00    -0.270 OA
ATOM      6  N   UNL     1      -3.757  -0.708  25.733  0.00  0.00    -0.309 N 
ATOM     17  C   UNL     1      -4.127   0.044  24.623  0.00  0.00    +0.244 C 
ATOM     26  H   UNL     1      -3.811  -0.311  26.665  0.00  0.00    +0.149 HD
BRANCH  17  18
ATOM      1  F   UNL     1      -6.178   5.165  25.667  0.00  0.00    -0.205 F 
ATOM     18  C   UNL     1      -4.669   1.399  24.900  0.00  0.00    +0.037 A 
ATOM     19  C   UNL     1      -4.008   2.527  24.415  0.00  0.00    +0.016 A 
ATOM     20  C   UNL     1      -5.841   1.544  25.644  0.00  0.00    +0.016 A 
ATOM     21  C   UNL     1      -4.516   3.800  24.675  0.00  0.00    +0.039 A 
ATOM     22  C   UNL     1      -6.350   2.816  25.903  0.00  0.00    +0.039 A 
ATOM     23  C   UNL     1      -5.687   3.944  25.419  0.00  0.00    +0.123 A 
ENDBRANCH  17  18
ENDBRANCH  13   6
ENDBRANCH   9  13
TORSDOF 7
ENDMDL
MODEL 5
REMARK VINA RESULT:      -2.6      2.058      3.378
REMARK  Name = 75367090
REMARK  10 active torsions:
REMARK  status: ('A' for Active; 'I' for Inactive)
REMARK    1  A    between atoms: O_3  and  C_8
REMARK    2  A    between atoms: N_5  and  C_7
REMARK    3  A    between atoms: N_5  and  C_12
REMARK    4  A    between atoms: N_6  and  C_13
REMARK    5  A    between atoms: C_9  and  C_13
REMARK    6  A    between atoms: C_11  and  C_12
REMARK    7  A    between atoms: C_11  and  C_14
REMARK    8  A    between atoms: C_11  and  C_15
REMARK    9  A    between atoms: C_11  and  C_16
REMARK   10  A    between atoms: C_17  and  C_18
REMARK                            x       y       z     vdW  Elec       q    Type
REMARK                         _______ _______ _______ _____ _____    ______ ____
ROOT
ATOM      2  O   UNL     1      -3.030  -2.474  24.265  0.00  0.00    -0.371 OA
ATOM      7  C   UNL     1      -0.782  -2.176  24.972  0.00  0.00    +0.111 C 
ATOM      8  C   UNL     1      -1.636  -1.065  25.555  0.00  0.00    +0.164 C 
ATOM      9  C   UNL     1      -3.024  -1.684  25.465  0.00  0.00    +0.165 C 
ATOM     10  C   UNL     1      -1.669  -2.677  23.845  0.00  0.00    +0.181 C 
ENDROOT
BRANCH   8   3
ATOM      3  O   UNL     1      -1.284  -0.748  26.887  0.00  0.00    -0.388 OA
ATOM     25  H   UNL     1      -1.900  -1.207  27.484  0.00  0.00    +0.210 HD
ENDBRANCH   8   3
BRANCH   7   5
ATOM      5  N   UNL     1       0.522  -1.729  24.511  0.00  0.00    -0.308 NA
ATOM     24  H   UNL     1       0.919  -2.443  23.900  0.00  0.00    +0.122 HD
BRANCH   5  12
ATOM     12  C   UNL     1       0.419  -0.471  23.782  0.00  0.00    +0.087 C 
BRANCH  12  11
ATOM     11  C   UNL     1       1.688  -0.105  22.971  0.00  0.00    -0.025 C 
ATOM     14  C   UNL     1       1.477  -0.346  21.465  0.00  0.00    +0.012 C 
ATOM     15  C   UNL     1       2.900  -0.923  23.450  0.00  0.00    +0.012 C 
ATOM     16  C   UNL     1       1.986   1.391  23.189  0.00  0.00    +0.012 C 
ENDBRANCH  12  11
ENDBRANCH   5  12
ENDBRANCH   7   5
BRANCH   9  13
ATOM     13  C   UNL     1      -4.138  -0.654  25.407  0.00  0.00    +0.138 C 
BRANCH  13   6
ATOM      4  O   UNL     1      -3.145   0.908  23.213  0.00  0.00    -0.270 OA
ATOM      6  N   UNL     1      -3.618   0.682  25.472  0.00  0.00    -0.309 N 
ATOM     17  C   UNL     1      -3.156   1.365  24.352  0.00  0.00    +0.244 C 
ATOM     26  H   UNL     1      -3.534   1.092  26.396  0.00  0.00    +0.149 HD
BRANCH  17  18
ATOM      1  F   UNL     1      -1.145   6.529  25.253  0.00  0.00    -0.205 F 
ATOM     18  C   UNL     1      -2.624   2.731  24.590  0.00  0.00    +0.037 A 
ATOM     19  C   UNL     1      -3.482   3.753  24.999  0.00  0.00    +0.016 A 
ATOM     20  C   UNL     1      -1.266   2.995  24.406  0.00  0.00    +0.016 A 
ATOM     21  C   UNL     1      -2.983   5.036  25.222  0.00  0.00    +0.039 A 
ATOM     22  C   UNL     1      -0.767   4.277  24.630  0.00  0.00    +0.039 A 
ATOM     23  C   UNL     1      -1.626   5.298  25.037  0.00  0.00    +0.123 A 
ENDBRANCH  17  18
ENDBRANCH  13   6
ENDBRANCH   9  13
TORSDOF 7
ENDMDL
MODEL 6
REMARK VINA RESULT:      -1.9      2.295      3.913
REMARK  Name = 75367090
REMARK  10 active torsions:
REMARK  status: ('A' for Active; 'I' for Inactive)
REMARK    1  A    between atoms: O_3  and  C_8
REMARK    2  A    between atoms: N_5  and  C_7
REMARK    3  A    between atoms: N_5  and  C_12
REMARK    4  A    between atoms: N_6  and  C_13
REMARK    5  A    between atoms: C_9  and  C_13
REMARK    6  A    between atoms: C_11  and  C_12
REMARK    7  A    between atoms: C_11  and  C_14
REMARK    8  A    between atoms: C_11  and  C_15
REMARK    9  A    between atoms: C_11  and  C_16
REMARK   10  A    between atoms: C_17  and  C_18
REMARK                            x       y       z     vdW  Elec       q    Type
REMARK                         _______ _______ _______ _____ _____    ______ ____
ROOT
ATOM      2  O   UNL     1      -4.760  -1.607  23.704  0.00  0.00    -0.371 OA
ATOM      7  C   UNL     1      -2.869  -2.400  24.904  0.00  0.00    +0.111 C 
ATOM      8  C   UNL     1      -3.326  -1.085  25.511  0.00  0.00    +0.164 C 
ATOM      9  C   UNL     1      -4.763  -1.017  25.015  0.00  0.00    +0.165 C 
ATOM     10  C   UNL     1      -3.540  -2.350  23.541  0.00  0.00    +0.181 C 
ENDROOT
BRANCH   8   3
ATOM      3  O   UNL     1      -3.254  -1.082  26.923  0.00  0.00    -0.388 OA
ATOM     25  H   UNL     1      -3.906  -0.445  27.262  0.00  0.00    +0.210 HD
ENDBRANCH   8   3
BRANCH   7   5
ATOM      5  N   UNL     1      -1.425  -2.534  24.821  0.00  0.00    -0.308 NA
ATOM     24  H   UNL     1      -1.186  -3.524  24.780  0.00  0.00    +0.122 HD
BRANCH   5  12
ATOM     12  C   UNL     1      -0.902  -1.862  23.638  0.00  0.00    +0.087 C 
BRANCH  12  11
ATOM     11  C   UNL     1      -0.358  -0.436  23.909  0.00  0.00    -0.025 C 
ATOM     14  C   UNL     1       1.067  -0.266  23.353  0.00  0.00    +0.012 C 
ATOM     15  C   UNL     1      -0.354  -0.129  25.417  0.00  0.00    +0.012 C 
ATOM     16  C   UNL     1      -1.281   0.576  23.203  0.00  0.00    +0.012 C 
ENDBRANCH  12  11
ENDBRANCH   5  12
ENDBRANCH   7   5
BRANCH   9  13
ATOM     13  C   UNL     1      -5.305   0.400  24.938  0.00  0.00    +0.138 C 
BRANCH  13   6
ATOM      4  O   UNL     1      -5.337   3.048  26.046  0.00  0.00    -0.270 OA
ATOM      6  N   UNL     1      -4.242   1.363  24.888  0.00  0.00    -0.309 N 
ATOM     17  C   UNL     1      -4.346   2.629  25.455  0.00  0.00    +0.244 C 
ATOM     26  H   UNL     1      -3.421   1.105  24.352  0.00  0.00    +0.149 HD
BRANCH  17  18
ATOM      1  F   UNL     1       0.111   5.990  24.851  0.00  0.00    -0.205 F 
ATOM     18  C   UNL     1      -3.167   3.518  25.295  0.00  0.00    +0.037 A 
ATOM     19  C   UNL     1      -3.348   4.879  25.050  0.00  0.00    +0.016 A 
ATOM     20  C   UNL     1      -1.878   2.993  25.389  0.00  0.00    +0.016 A 
ATOM     21  C   UNL     1      -2.242   5.715  24.899  0.00  0.00    +0.039 A 
ATOM     22  C   UNL     1      -0.771   3.828  25.239  0.00  0.00    +0.039 A 
ATOM     23  C   UNL     1      -0.953   5.189  24.994  0.00  0.00    +0.123 A 
ENDBRANCH  17  18
ENDBRANCH  13   6
ENDBRANCH   9  13
TORSDOF 7
ENDMDL
MODEL 7
REMARK VINA RESULT:      -1.6      1.816      4.018
REMARK  Name = 75367090
REMARK  10 active torsions:
REMARK  status: ('A' for Active; 'I' for Inactive)
REMARK    1  A    between atoms: O_3  and  C_8
REMARK    2  A    between atoms: N_5  and  C_7
REMARK    3  A    between atoms: N_5  and  C_12
REMARK    4  A    between atoms: N_6  and  C_13
REMARK    5  A    between atoms: C_9  and  C_13
REMARK    6  A    between atoms: C_11  and  C_12
REMARK    7  A    between atoms: C_11  and  C_14
REMARK    8  A    between atoms: C_11  and  C_15
REMARK    9  A    between atoms: C_11  and  C_16
REMARK   10  A    between atoms: C_17  and  C_18
REMARK                            x       y       z     vdW  Elec       q    Type
REMARK                         _______ _______ _______ _____ _____    ______ ____
ROOT
ATOM      2  O   UNL     1       1.776   0.706  23.870  0.00  0.00    -0.371 OA
ATOM      7  C   UNL     1      -0.003  -0.667  23.100  0.00  0.00    +0.111 C 
ATOM      8  C   UNL     1      -0.531   0.734  23.351  0.00  0.00    +0.164 C 
ATOM      9  C   UNL     1       0.756   1.545  23.304  0.00  0.00    +0.165 C 
ATOM     10  C   UNL     1       1.291  -0.648  23.898  0.00  0.00    +0.181 C 
ENDROOT
BRANCH   8   3
ATOM      3  O   UNL     1      -1.455   1.153  22.367  0.00  0.00    -0.388 OA
ATOM     25  H   UNL     1      -1.588   0.421  21.740  0.00  0.00    +0.210 HD
ENDBRANCH   8   3
BRANCH   7   5
ATOM      5  N   UNL     1      -0.914  -1.718  23.522  0.00  0.00    -0.308 NA
ATOM     24  H   UNL     1      -0.392  -2.588  23.619  0.00  0.00    +0.122 HD
BRANCH   5  12
ATOM     12  C   UNL     1      -1.544  -1.388  24.795  0.00  0.00    +0.087 C 
BRANCH  12  11
ATOM     11  C   UNL     1      -3.071  -1.649  24.831  0.00  0.00    -0.025 C 
ATOM     14  C   UNL     1      -3.794  -0.895  23.700  0.00  0.00    +0.012 C 
ATOM     15  C   UNL     1      -3.667  -1.225  26.185  0.00  0.00    +0.012 C 
ATOM     16  C   UNL     1      -3.308  -3.159  24.640  0.00  0.00    +0.012 C 
ENDBRANCH  12  11
ENDBRANCH   5  12
ENDBRANCH   7   5
BRANCH   9  13
ATOM     13  C   UNL     1       0.674   2.848  24.081  0.00  0.00    +0.138 C 
BRANCH  13   6
ATOM      4  O   UNL     1      -1.042   1.834  26.146  0.00  0.00    -0.270 OA
ATOM      6  N   UNL     1      -0.689   3.225  24.324  0.00  0.00    -0.309 N 
ATOM     17  C   UNL     1      -1.449   2.679  25.353  0.00  0.00    +0.244 C 
ATOM     26  H   UNL     1      -1.107   3.867  23.660  0.00  0.00    +0.149 HD
BRANCH  17  18
ATOM      1  F   UNL     1      -6.752   4.481  25.745  0.00  0.00    -0.205 F 
ATOM     18  C   UNL     1      -2.852   3.156  25.456  0.00  0.00    +0.037 A 
ATOM     19  C   UNL     1      -3.899   2.337  25.034  0.00  0.00    +0.016 A 
ATOM     20  C   UNL     1      -3.123   4.422  25.976  0.00  0.00    +0.016 A 
ATOM     21  C   UNL     1      -5.217   2.785  25.131  0.00  0.00    +0.039 A 
ATOM     22  C   UNL     1      -4.440   4.869  26.074  0.00  0.00    +0.039 A 
ATOM     23  C   UNL     1      -5.487   4.050  25.651  0.00  0.00    +0.123 A 
ENDBRANCH  17  18
ENDBRANCH  13   6
ENDBRANCH   9  13
TORSDOF 7
ENDMDL
