MODEL 1
REMARK VINA RESULT:      13.2      0.000      0.000
REMARK  Name = 9424612
REMARK  6 active torsions:
REMARK  status: ('A' for Active; 'I' for Inactive)
REMARK    1  A    between atoms: O_4  and  C_29
REMARK    2  A    between atoms: O_4  and  C_34
REMARK    3  A    between atoms: N_5  and  C_14
REMARK    4  A    between atoms: N_8  and  C_21
REMARK    5  A    between atoms: C_25  and  C_26
REMARK    6  A    between atoms: C_27  and  C_28
REMARK                            x       y       z     vdW  Elec       q    Type
REMARK                         _______ _______ _______ _____ _____    ______ ____
ROOT
ATOM      1  O   UNL     1      -2.967   5.872  23.907  0.00  0.00    -0.268 OA
ATOM      5  N   UNL     1       0.329   2.096  24.149  0.00  0.00    -0.298 NA
ATOM      6  N   UNL     1      -2.281   3.817  24.797  0.00  0.00    -0.310 N 
ATOM      9  C   UNL     1      -0.108   3.565  26.132  0.00  0.00    +0.024 C 
ATOM     10  C   UNL     1      -1.530   1.612  25.743  0.00  0.00    +0.052 C 
ATOM     11  C   UNL     1      -0.847   2.437  26.832  0.00  0.00    +0.017 C 
ATOM     12  C   UNL     1       0.930   2.991  25.145  0.00  0.00    +0.090 C 
ATOM     13  C   UNL     1      -0.460   1.033  24.789  0.00  0.00    +0.094 C 
ATOM     15  C   UNL     1      -1.137   4.469  25.451  0.00  0.00    +0.130 C 
ATOM     16  C   UNL     1      -2.544   2.445  24.962  0.00  0.00    +0.047 A 
ATOM     21  C   UNL     1      -3.654   1.905  24.409  0.00  0.00    +0.054 A 
ATOM     22  C   UNL     1      -3.138   4.665  24.071  0.00  0.00    +0.252 A 
ATOM     23  C   UNL     1      -4.568   2.732  23.658  0.00  0.00    +0.030 A 
ATOM     24  C   UNL     1      -4.342   4.035  23.476  0.00  0.00    +0.072 A 
ENDROOT
BRANCH   5  14
ATOM      2  O   UNL     1       4.889  -1.941  23.398  0.00  0.00    -0.276 OA
ATOM      7  N   UNL     1       3.814   0.058  22.899  0.00  0.00    -0.302 N 
ATOM     14  C   UNL     1       1.350   1.531  23.269  0.00  0.00    +0.060 C 
ATOM     17  C   UNL     1       2.715   2.159  23.576  0.00  0.00    +0.038 C 
ATOM     18  C   UNL     1       1.410   0.008  23.440  0.00  0.00    +0.038 C 
ATOM     19  C   UNL     1       3.816   1.517  22.734  0.00  0.00    +0.109 C 
ATOM     20  C   UNL     1       2.536  -0.591  22.601  0.00  0.00    +0.109 C 
ATOM     25  C   UNL     1       4.916  -0.714  23.266  0.00  0.00    +0.212 C 
ATOM     26  C   UNL     1       6.206   0.024  23.512  0.00  0.00    +0.109 C 
ENDBRANCH   5  14
BRANCH  21   8
ATOM      3  O   UNL     1      -2.714  -0.171  22.692  0.00  0.00    -0.270 OA
ATOM      8  N   UNL     1      -3.977   0.578  24.495  0.00  0.00    -0.280 N 
ATOM     27  C   UNL     1      -3.483  -0.381  23.625  0.00  0.00    +0.252 C 
ATOM     35  H   UNL     1      -4.494   0.290  25.316  0.00  0.00    +0.155 HD
BRANCH  27  28
ATOM     28  C   UNL     1      -3.927  -1.774  23.890  0.00  0.00    +0.079 A 
ATOM     29  C   UNL     1      -3.285  -2.528  24.852  0.00  0.00    +0.132 A 
ATOM     30  C   UNL     1      -4.981  -2.272  23.150  0.00  0.00    +0.017 A 
ATOM     31  C   UNL     1      -3.716  -3.834  25.085  0.00  0.00    +0.046 A 
ATOM     32  C   UNL     1      -5.412  -3.578  23.383  0.00  0.00    +0.001 A 
ATOM     33  C   UNL     1      -4.779  -4.359  24.350  0.00  0.00    +0.004 A 
BRANCH  29   4
ATOM      4  O   UNL     1      -2.244  -2.034  25.579  0.00  0.00    -0.494 OA
ATOM     34  C   UNL     1      -0.929  -2.357  25.130  0.00  0.00    +0.277 C 
ENDBRANCH  29   4
ENDBRANCH  27  28
ENDBRANCH  21   8
TORSDOF 4
ENDMDL
MODEL 2
REMARK VINA RESULT:      16.9      1.950      6.221
REMARK  Name = 9424612
REMARK  6 active torsions:
REMARK  status: ('A' for Active; 'I' for Inactive)
REMARK    1  A    between atoms: O_4  and  C_29
REMARK    2  A    between atoms: O_4  and  C_34
REMARK    3  A    between atoms: N_5  and  C_14
REMARK    4  A    between atoms: N_8  and  C_21
REMARK    5  A    between atoms: C_25  and  C_26
REMARK    6  A    between atoms: C_27  and  C_28
REMARK                            x       y       z     vdW  Elec       q    Type
REMARK                         _______ _______ _______ _____ _____    ______ ____
ROOT
ATOM      1  O   UNL     1      -3.376   5.884  26.457  0.00  0.00    -0.268 OA
ATOM      5  N   UNL     1      -3.966   1.387  24.311  0.00  0.00    -0.298 NA
ATOM      6  N   UNL     1      -2.975   4.397  24.692  0.00  0.00    -0.310 N 
ATOM      9  C   UNL     1      -4.866   3.464  23.236  0.00  0.00    +0.024 C 
ATOM     10  C   UNL     1      -2.554   2.790  22.805  0.00  0.00    +0.052 C 
ATOM     11  C   UNL     1      -3.797   3.396  22.158  0.00  0.00    +0.017 C 
ATOM     12  C   UNL     1      -5.163   2.053  23.784  0.00  0.00    +0.090 C 
ATOM     13  C   UNL     1      -2.881   1.369  23.318  0.00  0.00    +0.094 C 
ATOM     15  C   UNL     1      -4.397   4.435  24.322  0.00  0.00    +0.130 C 
ATOM     16  C   UNL     1      -2.035   3.662  23.947  0.00  0.00    +0.047 A 
ATOM     21  C   UNL     1      -0.725   3.724  24.275  0.00  0.00    +0.054 A 
ATOM     22  C   UNL     1      -2.602   5.208  25.780  0.00  0.00    +0.252 A 
ATOM     23  C   UNL     1      -0.289   4.543  25.380  0.00  0.00    +0.030 A 
ATOM     24  C   UNL     1      -1.156   5.246  26.112  0.00  0.00    +0.072 A 
ENDROOT
BRANCH   5  14
ATOM      2  O   UNL     1      -1.952  -4.275  25.552  0.00  0.00    -0.276 OA
ATOM      7  N   UNL     1      -3.618  -2.780  24.930  0.00  0.00    -0.302 N 
ATOM     14  C   UNL     1      -4.278   0.034  24.768  0.00  0.00    +0.060 C 
ATOM     17  C   UNL     1      -4.450  -0.901  23.565  0.00  0.00    +0.038 C 
ATOM     18  C   UNL     1      -3.166  -0.479  25.693  0.00  0.00    +0.038 C 
ATOM     19  C   UNL     1      -4.684  -2.342  24.020  0.00  0.00    +0.109 C 
ATOM     20  C   UNL     1      -3.426  -1.926  26.105  0.00  0.00    +0.109 C 
ATOM     25  C   UNL     1      -2.843  -3.928  24.772  0.00  0.00    +0.212 C 
ATOM     26  C   UNL     1      -3.132  -4.777  23.560  0.00  0.00    +0.109 C 
ENDBRANCH   5  14
BRANCH  21   8
ATOM      3  O   UNL     1       0.499   1.308  25.177  0.00  0.00    -0.270 OA
ATOM      8  N   UNL     1       0.255   3.023  23.624  0.00  0.00    -0.280 N 
ATOM     27  C   UNL     1       0.808   1.853  24.120  0.00  0.00    +0.252 C 
ATOM     35  H   UNL     1       0.475   3.320  22.683  0.00  0.00    +0.155 HD
BRANCH  27  28
ATOM     28  C   UNL     1       1.843   1.220  23.261  0.00  0.00    +0.079 A 
ATOM     29  C   UNL     1       1.518   0.122  22.492  0.00  0.00    +0.132 A 
ATOM     30  C   UNL     1       3.112   1.764  23.268  0.00  0.00    +0.017 A 
ATOM     31  C   UNL     1       2.504  -0.458  21.694  0.00  0.00    +0.046 A 
ATOM     32  C   UNL     1       4.098   1.184  22.469  0.00  0.00    +0.001 A 
ATOM     33  C   UNL     1       3.794   0.072  21.683  0.00  0.00    +0.004 A 
BRANCH  29   4
ATOM      4  O   UNL     1       0.264  -0.412  22.490  0.00  0.00    -0.494 OA
ATOM     34  C   UNL     1      -0.113  -1.183  23.629  0.00  0.00    +0.277 C 
ENDBRANCH  29   4
ENDBRANCH  27  28
ENDBRANCH  21   8
TORSDOF 4
ENDMDL
