MODEL 1
REMARK VINA RESULT:      -6.3      0.000      0.000
REMARK  Name = 26742970
REMARK  13 active torsions:
REMARK  status: ('A' for Active; 'I' for Inactive)
REMARK    1  A    between atoms: N_4  and  C_18
REMARK    2  A    between atoms: N_6  and  C_20
REMARK    3  A    between atoms: N_6  and  C_24
REMARK    4  A    between atoms: N_6  and  C_25
REMARK    5  A    between atoms: C_7  and  C_13
REMARK    6  A    between atoms: C_8  and  C_11
REMARK    7  A    between atoms: C_11  and  C_14
REMARK    8  A    between atoms: C_13  and  C_15
REMARK    9  A    between atoms: C_17  and  C_19
REMARK   10  A    between atoms: C_18  and  C_20
REMARK   11  A    between atoms: C_19  and  C_21
REMARK   12  A    between atoms: C_21  and  C_22
REMARK   13  A    between atoms: C_22  and  C_23
REMARK                            x       y       z     vdW  Elec       q    Type
REMARK                         _______ _______ _______ _____ _____    ______ ____
ROOT
ATOM      3  N   UNL     1      -2.474  -3.137  24.613  0.00  0.00    -0.316 NA
ATOM      7  C   UNL     1      -3.676  -0.500  24.060  0.00  0.00    +0.004 C 
ATOM      8  C   UNL     1      -2.155  -0.700  24.255  0.00  0.00    +0.012 C 
ATOM      9  C   UNL     1      -4.301  -1.825  23.592  0.00  0.00    +0.019 C 
ATOM     10  C   UNL     1      -1.852  -1.922  25.140  0.00  0.00    +0.085 C 
ATOM     12  C   UNL     1      -3.924  -2.999  24.496  0.00  0.00    +0.081 C 
ATOM     26  H   UNL     1      -2.260  -3.921  25.228  0.00  0.00    +0.122 HD
ENDROOT
BRANCH   8  11
ATOM     11  C   UNL     1      -1.451   0.543  24.798  0.00  0.00    +0.064 C 
BRANCH  11  14
ATOM      1  O   UNL     1       1.778   1.679  23.680  0.00  0.00    -0.359 OA
ATOM      5  N   UNL     1       0.581   1.855  24.366  0.00  0.00    -0.083 NA
ATOM     14  C   UNL     1      -0.091   0.714  24.185  0.00  0.00    +0.084 A 
ATOM     16  C   UNL     1       0.624  -0.209  23.403  0.00  0.00    +0.071 A 
ATOM     17  C   UNL     1       1.790   0.446  23.111  0.00  0.00    +0.138 A 
BRANCH  17  19
ATOM     19  C   UNL     1       2.991   0.093  22.343  0.00  0.00    +0.077 C 
BRANCH  19  21
ATOM     21  C   UNL     1       4.201   0.999  22.660  0.00  0.00    +0.007 C 
BRANCH  21  22
ATOM     22  C   UNL     1       5.294   0.267  23.438  0.00  0.00    -0.003 C 
ATOM     23  C   UNL     1       4.838  -1.116  23.875  0.00  0.00    +0.004 C 
ENDBRANCH  21  22
ENDBRANCH  19  21
ENDBRANCH  17  19
ENDBRANCH  11  14
ENDBRANCH   8  11
BRANCH   7  13
ATOM     13  C   UNL     1      -4.399   0.037  25.301  0.00  0.00    +0.099 C 
BRANCH  13  15
ATOM      2  O   UNL     1      -5.764   1.986  25.740  0.00  0.00    -0.276 OA
ATOM      4  N   UNL     1      -3.996   2.145  24.239  0.00  0.00    -0.314 N 
ATOM     15  C   UNL     1      -4.816   1.483  25.140  0.00  0.00    +0.213 C 
ATOM     27  H   UNL     1      -3.231   1.640  23.802  0.00  0.00    +0.149 HD
BRANCH   4  18
ATOM     18  C   UNL     1      -4.165   3.537  23.892  0.00  0.00    +0.119 C 
BRANCH  18  20
ATOM     20  C   UNL     1      -3.506   4.445  24.920  0.00  0.00    +0.102 C 
BRANCH  20   6
ATOM      6  N   UNL     1      -2.101   4.092  25.082  0.00  0.00    -0.307 NA
ATOM     24  C   UNL     1      -1.865   3.507  26.404  0.00  0.00    +0.104 C 
ATOM     25  C   UNL     1      -1.248   5.267  24.887  0.00  0.00    +0.104 C 
ENDBRANCH  20   6
ENDBRANCH  18  20
ENDBRANCH   4  18
ENDBRANCH  13  15
ENDBRANCH   7  13
TORSDOF 10
ENDMDL
MODEL 2
REMARK VINA RESULT:      -4.9      1.242      4.581
REMARK  Name = 26742970
REMARK  13 active torsions:
REMARK  status: ('A' for Active; 'I' for Inactive)
REMARK    1  A    between atoms: N_4  and  C_18
REMARK    2  A    between atoms: N_6  and  C_20
REMARK    3  A    between atoms: N_6  and  C_24
REMARK    4  A    between atoms: N_6  and  C_25
REMARK    5  A    between atoms: C_7  and  C_13
REMARK    6  A    between atoms: C_8  and  C_11
REMARK    7  A    between atoms: C_11  and  C_14
REMARK    8  A    between atoms: C_13  and  C_15
REMARK    9  A    between atoms: C_17  and  C_19
REMARK   10  A    between atoms: C_18  and  C_20
REMARK   11  A    between atoms: C_19  and  C_21
REMARK   12  A    between atoms: C_21  and  C_22
REMARK   13  A    between atoms: C_22  and  C_23
REMARK                            x       y       z     vdW  Elec       q    Type
REMARK                         _______ _______ _______ _____ _____    ______ ____
ROOT
ATOM      3  N   UNL     1      -0.319   5.094  24.695  0.00  0.00    -0.316 NA
ATOM      7  C   UNL     1      -2.657   3.627  25.737  0.00  0.00    +0.004 C 
ATOM      8  C   UNL     1      -1.233   3.023  25.717  0.00  0.00    +0.012 C 
ATOM      9  C   UNL     1      -2.552   5.161  25.749  0.00  0.00    +0.019 C 
ATOM     10  C   UNL     1      -0.373   3.635  24.598  0.00  0.00    +0.085 C 
ATOM     12  C   UNL     1      -1.651   5.693  24.635  0.00  0.00    +0.081 C 
ATOM     26  H   UNL     1       0.251   5.463  23.935  0.00  0.00    +0.122 HD
ENDROOT
BRANCH   8  11
ATOM     11  C   UNL     1      -1.230   1.497  25.623  0.00  0.00    +0.064 C 
BRANCH  11  14
ATOM      1  O   UNL     1       0.070   0.199  22.527  0.00  0.00    -0.359 OA
ATOM      5  N   UNL     1      -0.978   0.537  23.375  0.00  0.00    -0.083 NA
ATOM     14  C   UNL     1      -0.389   1.022  24.473  0.00  0.00    +0.084 A 
ATOM     16  C   UNL     1       1.013   1.015  24.375  0.00  0.00    +0.071 A 
ATOM     17  C   UNL     1       1.250   0.488  23.134  0.00  0.00    +0.138 A 
BRANCH  17  19
ATOM     19  C   UNL     1       2.469   0.191  22.370  0.00  0.00    +0.077 C 
BRANCH  19  21
ATOM     21  C   UNL     1       3.693   1.003  22.845  0.00  0.00    +0.007 C 
BRANCH  21  22
ATOM     22  C   UNL     1       4.968   0.163  22.905  0.00  0.00    -0.003 C 
ATOM     23  C   UNL     1       5.392  -0.107  24.341  0.00  0.00    +0.004 C 
ENDBRANCH  21  22
ENDBRANCH  19  21
ENDBRANCH  17  19
ENDBRANCH  11  14
ENDBRANCH   8  11
BRANCH   7  13
ATOM     13  C   UNL     1      -3.554   3.150  24.588  0.00  0.00    +0.099 C 
BRANCH  13  15
ATOM      2  O   UNL     1      -5.344   1.984  25.723  0.00  0.00    -0.276 OA
ATOM      4  N   UNL     1      -3.890   0.791  24.358  0.00  0.00    -0.314 N 
ATOM     15  C   UNL     1      -4.376   1.937  24.968  0.00  0.00    +0.213 C 
ATOM     27  H   UNL     1      -3.086   0.859  23.742  0.00  0.00    +0.149 HD
BRANCH   4  18
ATOM     18  C   UNL     1      -4.482  -0.515  24.544  0.00  0.00    +0.119 C 
BRANCH  18  20
ATOM     20  C   UNL     1      -3.700  -1.335  25.559  0.00  0.00    +0.102 C 
BRANCH  20   6
ATOM      6  N   UNL     1      -3.241  -2.581  24.957  0.00  0.00    -0.307 NA
ATOM     24  C   UNL     1      -1.818  -2.497  24.620  0.00  0.00    +0.104 C 
ATOM     25  C   UNL     1      -4.028  -2.899  23.763  0.00  0.00    +0.104 C 
ENDBRANCH  20   6
ENDBRANCH  18  20
ENDBRANCH   4  18
ENDBRANCH  13  15
ENDBRANCH   7  13
TORSDOF 10
ENDMDL
MODEL 3
REMARK VINA RESULT:      -4.8      1.469      5.997
REMARK  Name = 26742970
REMARK  13 active torsions:
REMARK  status: ('A' for Active; 'I' for Inactive)
REMARK    1  A    between atoms: N_4  and  C_18
REMARK    2  A    between atoms: N_6  and  C_20
REMARK    3  A    between atoms: N_6  and  C_24
REMARK    4  A    between atoms: N_6  and  C_25
REMARK    5  A    between atoms: C_7  and  C_13
REMARK    6  A    between atoms: C_8  and  C_11
REMARK    7  A    between atoms: C_11  and  C_14
REMARK    8  A    between atoms: C_13  and  C_15
REMARK    9  A    between atoms: C_17  and  C_19
REMARK   10  A    between atoms: C_18  and  C_20
REMARK   11  A    between atoms: C_19  and  C_21
REMARK   12  A    between atoms: C_21  and  C_22
REMARK   13  A    between atoms: C_22  and  C_23
REMARK                            x       y       z     vdW  Elec       q    Type
REMARK                         _______ _______ _______ _____ _____    ______ ____
ROOT
ATOM      3  N   UNL     1      -3.210  -3.273  24.535  0.00  0.00    -0.316 NA
ATOM      7  C   UNL     1      -2.598  -0.446  25.112  0.00  0.00    +0.004 C 
ATOM      8  C   UNL     1      -4.025  -0.940  24.779  0.00  0.00    +0.012 C 
ATOM      9  C   UNL     1      -1.781  -1.617  25.682  0.00  0.00    +0.019 C 
ATOM     10  C   UNL     1      -3.998  -2.210  23.910  0.00  0.00    +0.085 C 
ATOM     12  C   UNL     1      -1.833  -2.855  24.786  0.00  0.00    +0.081 C 
ATOM     26  H   UNL     1      -3.208  -4.093  23.929  0.00  0.00    +0.122 HD
ENDROOT
BRANCH   8  11
ATOM     11  C   UNL     1      -4.895   0.136  24.128  0.00  0.00    +0.064 C 
BRANCH  11  14
ATOM      1  O   UNL     1      -5.409   3.031  26.206  0.00  0.00    -0.359 OA
ATOM      5  N   UNL     1      -5.807   1.807  25.682  0.00  0.00    -0.083 NA
ATOM     14  C   UNL     1      -4.808   1.435  24.875  0.00  0.00    +0.084 A 
ATOM     16  C   UNL     1      -3.764   2.375  24.851  0.00  0.00    +0.071 A 
ATOM     17  C   UNL     1      -4.191   3.358  25.704  0.00  0.00    +0.138 A 
BRANCH  17  19
ATOM     19  C   UNL     1      -3.617   4.632  26.157  0.00  0.00    +0.077 C 
BRANCH  19  21
ATOM     21  C   UNL     1      -2.073   4.623  26.188  0.00  0.00    +0.007 C 
BRANCH  21  22
ATOM     22  C   UNL     1      -1.457   5.388  25.016  0.00  0.00    -0.003 C 
ATOM     23  C   UNL     1      -0.467   4.527  24.247  0.00  0.00    +0.004 C 
ENDBRANCH  21  22
ENDBRANCH  19  21
ENDBRANCH  17  19
ENDBRANCH  11  14
ENDBRANCH   8  11
BRANCH   7  13
ATOM     13  C   UNL     1      -1.869   0.204  23.929  0.00  0.00    +0.099 C 
BRANCH  13  15
ATOM      2  O   UNL     1      -0.266   1.376  25.310  0.00  0.00    -0.276 OA
ATOM      4  N   UNL     1       0.459   0.299  23.381  0.00  0.00    -0.314 N 
ATOM     15  C   UNL     1      -0.491   0.702  24.307  0.00  0.00    +0.213 C 
ATOM     27  H   UNL     1       0.171  -0.266  22.588  0.00  0.00    +0.149 HD
BRANCH   4  18
ATOM     18  C   UNL     1       1.861   0.634  23.492  0.00  0.00    +0.119 C 
BRANCH  18  20
ATOM     20  C   UNL     1       2.649   0.109  22.301  0.00  0.00    +0.102 C 
BRANCH  20   6
ATOM      6  N   UNL     1       3.971  -0.333  22.723  0.00  0.00    -0.307 NA
ATOM     24  C   UNL     1       3.866  -1.339  23.783  0.00  0.00    +0.104 C 
ATOM     25  C   UNL     1       4.774   0.804  23.181  0.00  0.00    +0.104 C 
ENDBRANCH  20   6
ENDBRANCH  18  20
ENDBRANCH   4  18
ENDBRANCH  13  15
ENDBRANCH   7  13
TORSDOF 10
ENDMDL
MODEL 4
REMARK VINA RESULT:      -4.4      1.793      6.454
REMARK  Name = 26742970
REMARK  13 active torsions:
REMARK  status: ('A' for Active; 'I' for Inactive)
REMARK    1  A    between atoms: N_4  and  C_18
REMARK    2  A    between atoms: N_6  and  C_20
REMARK    3  A    between atoms: N_6  and  C_24
REMARK    4  A    between atoms: N_6  and  C_25
REMARK    5  A    between atoms: C_7  and  C_13
REMARK    6  A    between atoms: C_8  and  C_11
REMARK    7  A    between atoms: C_11  and  C_14
REMARK    8  A    between atoms: C_13  and  C_15
REMARK    9  A    between atoms: C_17  and  C_19
REMARK   10  A    between atoms: C_18  and  C_20
REMARK   11  A    between atoms: C_19  and  C_21
REMARK   12  A    between atoms: C_21  and  C_22
REMARK   13  A    between atoms: C_22  and  C_23
REMARK                            x       y       z     vdW  Elec       q    Type
REMARK                         _______ _______ _______ _____ _____    ______ ____
ROOT
ATOM      3  N   UNL     1      -1.825   5.827  25.154  0.00  0.00    -0.316 NA
ATOM      7  C   UNL     1      -1.569   2.966  24.477  0.00  0.00    +0.004 C 
ATOM      8  C   UNL     1      -2.926   3.626  24.817  0.00  0.00    +0.012 C 
ATOM      9  C   UNL     1      -0.602   4.043  23.958  0.00  0.00    +0.019 C 
ATOM     10  C   UNL     1      -2.749   4.851  25.732  0.00  0.00    +0.085 C 
ATOM     12  C   UNL     1      -0.509   5.245  24.899  0.00  0.00    +0.081 C 
ATOM     26  H   UNL     1      -1.726   6.617  25.789  0.00  0.00    +0.122 HD
ENDROOT
BRANCH   8  11
ATOM     11  C   UNL     1      -3.935   2.648  25.420  0.00  0.00    +0.064 C 
BRANCH  11  14
ATOM      1  O   UNL     1      -3.658  -0.032  23.032  0.00  0.00    -0.359 OA
ATOM      5  N   UNL     1      -3.522   1.299  23.408  0.00  0.00    -0.083 NA
ATOM     14  C   UNL     1      -3.943   1.344  24.676  0.00  0.00    +0.084 A 
ATOM     16  C   UNL     1      -4.352   0.085  25.147  0.00  0.00    +0.071 A 
ATOM     17  C   UNL     1      -4.153  -0.745  24.076  0.00  0.00    +0.138 A 
BRANCH  17  19
ATOM     19  C   UNL     1      -4.361  -2.181  23.849  0.00  0.00    +0.077 C 
BRANCH  19  21
ATOM     21  C   UNL     1      -3.598  -3.069  24.855  0.00  0.00    +0.007 C 
BRANCH  21  22
ATOM     22  C   UNL     1      -2.134  -2.655  25.012  0.00  0.00    -0.003 C 
ATOM     23  C   UNL     1      -1.340  -2.923  23.743  0.00  0.00    +0.004 C 
ENDBRANCH  21  22
ENDBRANCH  19  21
ENDBRANCH  17  19
ENDBRANCH  11  14
ENDBRANCH   8  11
BRANCH   7  13
ATOM     13  C   UNL     1      -0.945   2.188  25.642  0.00  0.00    +0.099 C 
BRANCH  13  15
ATOM      2  O   UNL     1      -0.807  -0.219  25.841  0.00  0.00    -0.276 OA
ATOM      4  N   UNL     1       0.293   0.847  24.092  0.00  0.00    -0.314 N 
ATOM     15  C   UNL     1      -0.498   0.801  25.230  0.00  0.00    +0.213 C 
ATOM     27  H   UNL     1       0.484   1.743  23.656  0.00  0.00    +0.149 HD
BRANCH   4  18
ATOM     18  C   UNL     1       0.860  -0.332  23.477  0.00  0.00    +0.119 C 
BRANCH  18  20
ATOM     20  C   UNL     1       1.980   0.033  22.514  0.00  0.00    +0.102 C 
BRANCH  20   6
ATOM      6  N   UNL     1       3.237   0.190  23.234  0.00  0.00    -0.307 NA
ATOM     24  C   UNL     1       4.173   1.012  22.465  0.00  0.00    +0.104 C 
ATOM     25  C   UNL     1       3.831  -1.116  23.528  0.00  0.00    +0.104 C 
ENDBRANCH  20   6
ENDBRANCH  18  20
ENDBRANCH   4  18
ENDBRANCH  13  15
ENDBRANCH   7  13
TORSDOF 10
ENDMDL
MODEL 5
REMARK VINA RESULT:      -3.9      2.157      6.432
REMARK  Name = 26742970
REMARK  13 active torsions:
REMARK  status: ('A' for Active; 'I' for Inactive)
REMARK    1  A    between atoms: N_4  and  C_18
REMARK    2  A    between atoms: N_6  and  C_20
REMARK    3  A    between atoms: N_6  and  C_24
REMARK    4  A    between atoms: N_6  and  C_25
REMARK    5  A    between atoms: C_7  and  C_13
REMARK    6  A    between atoms: C_8  and  C_11
REMARK    7  A    between atoms: C_11  and  C_14
REMARK    8  A    between atoms: C_13  and  C_15
REMARK    9  A    between atoms: C_17  and  C_19
REMARK   10  A    between atoms: C_18  and  C_20
REMARK   11  A    between atoms: C_19  and  C_21
REMARK   12  A    between atoms: C_21  and  C_22
REMARK   13  A    between atoms: C_22  and  C_23
REMARK                            x       y       z     vdW  Elec       q    Type
REMARK                         _______ _______ _______ _____ _____    ______ ____
ROOT
ATOM      3  N   UNL     1       2.887   1.021  22.529  0.00  0.00    -0.316 NA
ATOM      7  C   UNL     1       0.246   0.057  23.425  0.00  0.00    +0.004 C 
ATOM      8  C   UNL     1       0.820   1.431  23.844  0.00  0.00    +0.012 C 
ATOM      9  C   UNL     1       0.894  -0.375  22.099  0.00  0.00    +0.019 C 
ATOM     10  C   UNL     1       2.359   1.432  23.830  0.00  0.00    +0.085 C 
ATOM     12  C   UNL     1       2.421  -0.310  22.149  0.00  0.00    +0.081 C 
ATOM     26  H   UNL     1       3.905   1.026  22.560  0.00  0.00    +0.122 HD
ENDROOT
BRANCH   8  11
ATOM     11  C   UNL     1       0.296   1.913  25.197  0.00  0.00    +0.064 C 
BRANCH  11  14
ATOM      1  O   UNL     1      -2.077   4.609  24.944  0.00  0.00    -0.359 OA
ATOM      5  N   UNL     1      -0.794   4.115  25.149  0.00  0.00    -0.083 NA
ATOM     14  C   UNL     1      -0.913   2.788  25.034  0.00  0.00    +0.084 A 
ATOM     16  C   UNL     1      -2.234   2.393  24.760  0.00  0.00    +0.071 A 
ATOM     17  C   UNL     1      -2.925   3.574  24.713  0.00  0.00    +0.138 A 
BRANCH  17  19
ATOM     19  C   UNL     1      -4.331   3.921  24.474  0.00  0.00    +0.077 C 
BRANCH  19  21
ATOM     21  C   UNL     1      -5.192   3.875  25.756  0.00  0.00    +0.007 C 
BRANCH  21  22
ATOM     22  C   UNL     1      -5.771   2.486  26.025  0.00  0.00    -0.003 C 
ATOM     23  C   UNL     1      -6.453   1.917  24.790  0.00  0.00    +0.004 C 
ENDBRANCH  21  22
ENDBRANCH  19  21
ENDBRANCH  17  19
ENDBRANCH  11  14
ENDBRANCH   8  11
BRANCH   7  13
ATOM     13  C   UNL     1       0.401  -1.035  24.491  0.00  0.00    +0.099 C 
BRANCH  13  15
ATOM      2  O   UNL     1      -1.263  -0.857  26.237  0.00  0.00    -0.276 OA
ATOM      4  N   UNL     1      -1.639  -2.287  24.444  0.00  0.00    -0.314 N 
ATOM     15  C   UNL     1      -0.910  -1.360  25.173  0.00  0.00    +0.213 C 
ATOM     27  H   UNL     1      -1.262  -2.637  23.568  0.00  0.00    +0.149 HD
BRANCH   4  18
ATOM     18  C   UNL     1      -2.932  -2.780  24.861  0.00  0.00    +0.119 C 
BRANCH  18  20
ATOM     20  C   UNL     1      -4.024  -2.354  23.893  0.00  0.00    +0.102 C 
BRANCH  20   6
ATOM      6  N   UNL     1      -4.437  -0.983  24.165  0.00  0.00    -0.307 NA
ATOM     24  C   UNL     1      -3.706  -0.044  23.312  0.00  0.00    +0.104 C 
ATOM     25  C   UNL     1      -4.230  -0.653  25.577  0.00  0.00    +0.104 C 
ENDBRANCH  20   6
ENDBRANCH  18  20
ENDBRANCH   4  18
ENDBRANCH  13  15
ENDBRANCH   7  13
TORSDOF 10
ENDMDL
MODEL 6
REMARK VINA RESULT:      -2.7      1.899      5.059
REMARK  Name = 26742970
REMARK  13 active torsions:
REMARK  status: ('A' for Active; 'I' for Inactive)
REMARK    1  A    between atoms: N_4  and  C_18
REMARK    2  A    between atoms: N_6  and  C_20
REMARK    3  A    between atoms: N_6  and  C_24
REMARK    4  A    between atoms: N_6  and  C_25
REMARK    5  A    between atoms: C_7  and  C_13
REMARK    6  A    between atoms: C_8  and  C_11
REMARK    7  A    between atoms: C_11  and  C_14
REMARK    8  A    between atoms: C_13  and  C_15
REMARK    9  A    between atoms: C_17  and  C_19
REMARK   10  A    between atoms: C_18  and  C_20
REMARK   11  A    between atoms: C_19  and  C_21
REMARK   12  A    between atoms: C_21  and  C_22
REMARK   13  A    between atoms: C_22  and  C_23
REMARK                            x       y       z     vdW  Elec       q    Type
REMARK                         _______ _______ _______ _____ _____    ______ ____
ROOT
ATOM      3  N   UNL     1      -3.914  -2.270  23.400  0.00  0.00    -0.316 NA
ATOM      7  C   UNL     1      -3.514  -0.983  26.024  0.00  0.00    +0.004 C 
ATOM      8  C   UNL     1      -4.665  -0.590  25.068  0.00  0.00    +0.012 C 
ATOM      9  C   UNL     1      -3.077  -2.425  25.719  0.00  0.00    +0.019 C 
ATOM     10  C   UNL     1      -4.304  -0.874  23.599  0.00  0.00    +0.085 C 
ATOM     12  C   UNL     1      -2.775  -2.641  24.236  0.00  0.00    +0.081 C 
ATOM     26  H   UNL     1      -3.676  -2.418  22.421  0.00  0.00    +0.122 HD
ENDROOT
BRANCH   8  11
ATOM     11  C   UNL     1      -5.117   0.860  25.238  0.00  0.00    +0.064 C 
BRANCH  11  14
ATOM      1  O   UNL     1      -2.509   2.692  23.564  0.00  0.00    -0.359 OA
ATOM      5  N   UNL     1      -3.420   1.645  23.645  0.00  0.00    -0.083 NA
ATOM     14  C   UNL     1      -4.045   1.821  24.813  0.00  0.00    +0.084 A 
ATOM     16  C   UNL     1      -3.576   2.951  25.505  0.00  0.00    +0.071 A 
ATOM     17  C   UNL     1      -2.612   3.462  24.678  0.00  0.00    +0.138 A 
BRANCH  17  19
ATOM     19  C   UNL     1      -1.713   4.621  24.757  0.00  0.00    +0.077 C 
BRANCH  19  21
ATOM     21  C   UNL     1      -0.270   4.242  25.153  0.00  0.00    +0.007 C 
BRANCH  21  22
ATOM     22  C   UNL     1      -0.150   2.791  25.619  0.00  0.00    -0.003 C 
ATOM     23  C   UNL     1       0.540   2.695  26.970  0.00  0.00    +0.004 C 
ENDBRANCH  21  22
ENDBRANCH  19  21
ENDBRANCH  17  19
ENDBRANCH  11  14
ENDBRANCH   8  11
BRANCH   7  13
ATOM     13  C   UNL     1      -2.314  -0.028  25.982  0.00  0.00    +0.099 C 
BRANCH  13  15
ATOM      2  O   UNL     1      -0.496  -1.619  25.865  0.00  0.00    -0.276 OA
ATOM      4  N   UNL     1      -0.748  -0.047  24.171  0.00  0.00    -0.314 N 
ATOM     15  C   UNL     1      -1.092  -0.670  25.361  0.00  0.00    +0.213 C 
ATOM     27  H   UNL     1      -1.313   0.726  23.834  0.00  0.00    +0.149 HD
BRANCH   4  18
ATOM     18  C   UNL     1       0.380  -0.454  23.364  0.00  0.00    +0.119 C 
BRANCH  18  20
ATOM     20  C   UNL     1       1.450   0.627  23.329  0.00  0.00    +0.102 C 
BRANCH  20   6
ATOM      6  N   UNL     1       2.690   0.095  22.777  0.00  0.00    -0.307 NA
ATOM     24  C   UNL     1       3.795   1.030  22.995  0.00  0.00    +0.104 C 
ATOM     25  C   UNL     1       2.539  -0.189  21.348  0.00  0.00    +0.104 C 
ENDBRANCH  20   6
ENDBRANCH  18  20
ENDBRANCH   4  18
ENDBRANCH  13  15
ENDBRANCH   7  13
TORSDOF 10
ENDMDL
