MODEL 1
REMARK VINA RESULT:       8.1      0.000      0.000
REMARK  Name = 45361687
REMARK  11 active torsions:
REMARK  status: ('A' for Active; 'I' for Inactive)
REMARK    1  A    between atoms: O_4  and  C_16
REMARK    2  A    between atoms: O_5  and  C_21
REMARK    3  A    between atoms: N_9  and  C_27
REMARK    4  A    between atoms: N_9  and  C_28
REMARK    5  A    between atoms: C_11  and  C_19
REMARK    6  A    between atoms: C_13  and  C_21
REMARK    7  A    between atoms: C_13  and  C_22
REMARK    8  A    between atoms: C_14  and  C_24
REMARK    9  A    between atoms: C_24  and  C_25
REMARK   10  A    between atoms: C_27  and  C_30
REMARK   11  A    between atoms: C_29  and  C_31
REMARK                            x       y       z     vdW  Elec       q    Type
REMARK                         _______ _______ _______ _____ _____    ______ ____
ROOT
ATOM      1  S   UNL     1       0.310   2.102  25.842  0.00  0.00    -0.057 S 
ATOM      7  O   UNL     1       1.869  -0.349  22.172  0.00  0.00    -0.270 OA
ATOM      8  N   UNL     1      -0.401   1.021  23.601  0.00  0.00    -0.229 NA
ATOM     10  N   UNL     1       1.915   0.795  24.233  0.00  0.00    -0.261 N 
ATOM     11  C   UNL     1      -4.044   1.945  24.461  0.00  0.00    -0.019 C 
ATOM     12  C   UNL     1      -3.605   3.242  25.275  0.00  0.00    +0.011 C 
ATOM     13  C   UNL     1      -4.744   4.038  26.021  0.00  0.00    +0.021 C 
ATOM     14  C   UNL     1      -2.858   1.568  23.458  0.00  0.00    +0.054 C 
ATOM     15  C   UNL     1      -5.309   2.266  23.624  0.00  0.00    +0.010 C 
ATOM     16  C   UNL     1      -5.950   4.231  25.058  0.00  0.00    +0.123 C 
ATOM     17  C   UNL     1      -2.355   2.962  26.158  0.00  0.00    +0.049 C 
ATOM     18  C   UNL     1      -6.424   2.930  24.419  0.00  0.00    +0.032 C 
ATOM     19  C   UNL     1      -4.349   0.735  25.377  0.00  0.00    +0.012 C 
ATOM     20  C   UNL     1      -1.524   1.603  24.158  0.00  0.00    +0.058 A 
ATOM     22  C   UNL     1      -4.217   5.454  26.389  0.00  0.00    +0.016 C 
ATOM     23  C   UNL     1      -1.316   2.249  25.359  0.00  0.00    +0.015 A 
ATOM     26  C   UNL     1       0.623   1.215  24.406  0.00  0.00    +0.165 A 
ATOM     29  C   UNL     1       2.473   0.054  23.160  0.00  0.00    +0.255 C 
ATOM     40  H   UNL     1       2.538   1.081  24.983  0.00  0.00    +0.157 HD
ENDROOT
BRANCH  29  31
ATOM      2  F   UNL     1       3.495  -2.340  24.247  0.00  0.00    -0.205 F 
ATOM      3  F   UNL     1       4.435   1.866  22.249  0.00  0.00    -0.205 F 
ATOM     31  C   UNL     1       3.928  -0.229  23.246  0.00  0.00    +0.107 A 
ATOM     33  C   UNL     1       4.373  -1.433  23.794  0.00  0.00    +0.138 A 
ATOM     34  C   UNL     1       4.851   0.707  22.778  0.00  0.00    +0.138 A 
ATOM     35  C   UNL     1       5.740  -1.700  23.874  0.00  0.00    +0.039 A 
ATOM     36  C   UNL     1       6.217   0.439  22.858  0.00  0.00    +0.039 A 
ATOM     37  C   UNL     1       6.662  -0.764  23.406  0.00  0.00    +0.006 A 
ENDBRANCH  29  31
BRANCH  16   4
ATOM      4  O   UNL     1      -7.049   4.833  25.741  0.00  0.00    -0.391 OA
ATOM     38  H   UNL     1      -7.273   4.266  26.499  0.00  0.00    +0.210 HD
ENDBRANCH  16   4
BRANCH  13  21
ATOM     21  C   UNL     1      -5.201   3.405  27.354  0.00  0.00    +0.165 C 
BRANCH  21   5
ATOM      5  O   UNL     1      -6.256   2.514  27.070  0.00  0.00    -0.394 OA
ATOM     39  H   UNL     1      -5.934   1.616  27.257  0.00  0.00    +0.209 HD
ENDBRANCH  21   5
ENDBRANCH  13  21
BRANCH  14  24
ATOM     24  C   UNL     1      -3.060   0.249  22.699  0.00  0.00    +0.106 C 
BRANCH  24  25
ATOM      6  O   UNL     1      -4.812  -0.881  23.882  0.00  0.00    -0.276 OA
ATOM      9  N   UNL     1      -2.682  -1.787  24.043  0.00  0.00    -0.301 N 
ATOM     25  C   UNL     1      -3.613  -0.846  23.590  0.00  0.00    +0.216 C 
ATOM     28  C   UNL     1      -1.271  -1.724  23.685  0.00  0.00    +0.132 C 
BRANCH   9  27
ATOM     27  C   UNL     1      -3.055  -2.904  24.908  0.00  0.00    +0.134 C 
BRANCH  27  30
ATOM     30  C   UNL     1      -3.175  -2.415  26.313  0.00  0.00    -0.016 C 
ATOM     32  C   UNL     1      -2.478  -1.383  26.804  0.00  0.00    +0.005 C 
ENDBRANCH  27  30
ENDBRANCH   9  27
ENDBRANCH  24  25
ENDBRANCH  14  24
TORSDOF 8
ENDMDL
MODEL 2
REMARK VINA RESULT:       8.1      0.033      1.361
REMARK  Name = 45361687
REMARK  11 active torsions:
REMARK  status: ('A' for Active; 'I' for Inactive)
REMARK    1  A    between atoms: O_4  and  C_16
REMARK    2  A    between atoms: O_5  and  C_21
REMARK    3  A    between atoms: N_9  and  C_27
REMARK    4  A    between atoms: N_9  and  C_28
REMARK    5  A    between atoms: C_11  and  C_19
REMARK    6  A    between atoms: C_13  and  C_21
REMARK    7  A    between atoms: C_13  and  C_22
REMARK    8  A    between atoms: C_14  and  C_24
REMARK    9  A    between atoms: C_24  and  C_25
REMARK   10  A    between atoms: C_27  and  C_30
REMARK   11  A    between atoms: C_29  and  C_31
REMARK                            x       y       z     vdW  Elec       q    Type
REMARK                         _______ _______ _______ _____ _____    ______ ____
ROOT
ATOM      1  S   UNL     1       0.279   2.097  25.846  0.00  0.00    -0.057 S 
ATOM      7  O   UNL     1       1.841  -0.351  22.175  0.00  0.00    -0.270 OA
ATOM      8  N   UNL     1      -0.430   1.016  23.605  0.00  0.00    -0.229 NA
ATOM     10  N   UNL     1       1.885   0.793  24.236  0.00  0.00    -0.261 N 
ATOM     11  C   UNL     1      -4.075   1.934  24.466  0.00  0.00    -0.019 C 
ATOM     12  C   UNL     1      -3.638   3.232  25.281  0.00  0.00    +0.011 C 
ATOM     13  C   UNL     1      -4.778   4.026  26.026  0.00  0.00    +0.021 C 
ATOM     14  C   UNL     1      -2.889   1.559  23.462  0.00  0.00    +0.054 C 
ATOM     15  C   UNL     1      -5.340   2.255  23.628  0.00  0.00    +0.010 C 
ATOM     16  C   UNL     1      -5.983   4.217  25.064  0.00  0.00    +0.123 C 
ATOM     17  C   UNL     1      -2.387   2.953  26.163  0.00  0.00    +0.049 C 
ATOM     18  C   UNL     1      -6.456   2.916  24.424  0.00  0.00    +0.032 C 
ATOM     19  C   UNL     1      -4.378   0.723  25.381  0.00  0.00    +0.012 C 
ATOM     20  C   UNL     1      -1.554   1.596  24.162  0.00  0.00    +0.058 A 
ATOM     22  C   UNL     1      -4.252   5.442  26.395  0.00  0.00    +0.016 C 
ATOM     23  C   UNL     1      -1.347   2.242  25.364  0.00  0.00    +0.015 A 
ATOM     26  C   UNL     1       0.594   1.211  24.409  0.00  0.00    +0.165 A 
ATOM     29  C   UNL     1       2.444   0.053  23.164  0.00  0.00    +0.255 C 
ATOM     40  H   UNL     1       2.508   1.079  24.987  0.00  0.00    +0.157 HD
ENDROOT
BRANCH  29  31
ATOM      2  F   UNL     1       4.402   1.868  22.250  0.00  0.00    -0.205 F 
ATOM      3  F   UNL     1       3.472  -2.339  24.251  0.00  0.00    -0.205 F 
ATOM     31  C   UNL     1       3.900  -0.229  23.249  0.00  0.00    +0.107 A 
ATOM     33  C   UNL     1       4.821   0.709  22.780  0.00  0.00    +0.138 A 
ATOM     34  C   UNL     1       4.348  -1.431  23.797  0.00  0.00    +0.138 A 
ATOM     35  C   UNL     1       6.188   0.445  22.860  0.00  0.00    +0.039 A 
ATOM     36  C   UNL     1       5.715  -1.695  23.877  0.00  0.00    +0.039 A 
ATOM     37  C   UNL     1       6.635  -0.758  23.409  0.00  0.00    +0.006 A 
ENDBRANCH  29  31
BRANCH  16   4
ATOM      4  O   UNL     1      -7.084   4.818  25.747  0.00  0.00    -0.391 OA
ATOM     38  H   UNL     1      -6.853   4.869  26.691  0.00  0.00    +0.210 HD
ENDBRANCH  16   4
BRANCH  13  21
ATOM     21  C   UNL     1      -5.234   3.392  27.359  0.00  0.00    +0.165 C 
BRANCH  21   5
ATOM      5  O   UNL     1      -6.285   2.497  27.074  0.00  0.00    -0.394 OA
ATOM     39  H   UNL     1      -5.889   1.619  26.937  0.00  0.00    +0.209 HD
ENDBRANCH  21   5
ENDBRANCH  13  21
BRANCH  14  24
ATOM     24  C   UNL     1      -3.089   0.241  22.703  0.00  0.00    +0.106 C 
BRANCH  24  25
ATOM      6  O   UNL     1      -4.807  -0.919  23.906  0.00  0.00    -0.276 OA
ATOM      9  N   UNL     1      -2.660  -1.788  24.042  0.00  0.00    -0.301 N 
ATOM     25  C   UNL     1      -3.612  -0.864  23.600  0.00  0.00    +0.216 C 
ATOM     28  C   UNL     1      -1.255  -1.701  23.667  0.00  0.00    +0.132 C 
BRANCH   9  27
ATOM     27  C   UNL     1      -3.004  -2.912  24.911  0.00  0.00    +0.134 C 
BRANCH  27  30
ATOM     30  C   UNL     1      -3.139  -2.420  26.313  0.00  0.00    -0.016 C 
ATOM     32  C   UNL     1      -2.443  -1.392  26.813  0.00  0.00    +0.005 C 
ENDBRANCH  27  30
ENDBRANCH   9  27
ENDBRANCH  24  25
ENDBRANCH  14  24
TORSDOF 8
ENDMDL
