MODEL 1
REMARK VINA RESULT:       3.6      0.000      0.000
REMARK  Name = 11865735
REMARK  8 active torsions:
REMARK  status: ('A' for Active; 'I' for Inactive)
REMARK    1  A    between atoms: N_8  and  C_13
REMARK    2  A    between atoms: N_9  and  C_19
REMARK    3  A    between atoms: N_10  and  C_29
REMARK    4  A    between atoms: C_14  and  C_17
REMARK    5  A    between atoms: C_18  and  C_22
REMARK    6  A    between atoms: C_19  and  C_20
REMARK    7  A    between atoms: C_19  and  C_24
REMARK    8  A    between atoms: C_20  and  C_23
REMARK                            x       y       z     vdW  Elec       q    Type
REMARK                         _______ _______ _______ _____ _____    ______ ____
ROOT
ATOM      4  O   UNL     1      -5.483   1.173  25.368  0.00  0.00    -0.276 OA
ATOM      7  N   UNL     1      -3.879   2.570  24.456  0.00  0.00    -0.288 N 
ATOM     13  C   UNL     1      -2.053   3.638  23.374  0.00  0.00    +0.094 C 
ATOM     14  C   UNL     1      -3.375   1.619  23.477  0.00  0.00    +0.164 C 
ATOM     15  C   UNL     1      -2.507   2.444  22.530  0.00  0.00    +0.055 C 
ATOM     16  C   UNL     1      -3.230   3.875  24.317  0.00  0.00    +0.131 C 
ATOM     18  C   UNL     1      -4.960   2.286  25.275  0.00  0.00    +0.213 C 
ATOM     22  C   UNL     1      -5.482   3.443  26.091  0.00  0.00    +0.109 C 
ENDROOT
BRANCH  13   8
ATOM      5  O   UNL     1      -1.780   3.299  26.206  0.00  0.00    -0.252 OA
ATOM      8  N   UNL     1      -0.837   3.356  24.095  0.00  0.00    -0.295 N 
ATOM     10  N   UNL     1       0.520   2.937  25.901  0.00  0.00    -0.267 N 
ATOM     21  C   UNL     1      -0.788   3.204  25.486  0.00  0.00    +0.304 C 
ATOM     38  H   UNL     1       0.036   3.328  23.576  0.00  0.00    +0.151 HD
ATOM     40  H   UNL     1       1.230   2.893  25.175  0.00  0.00    +0.156 HD
BRANCH  10  29
ATOM      1  F   UNL     1      -0.673   1.057  27.558  0.00  0.00    -0.203 F 
ATOM      2  F   UNL     1       2.347   2.099  31.047  0.00  0.00    -0.205 F 
ATOM     29  C   UNL     1       0.986   2.721  27.219  0.00  0.00    +0.070 A 
ATOM     33  C   UNL     1       0.364   1.773  28.014  0.00  0.00    +0.147 A 
ATOM     34  C   UNL     1       2.059   3.464  27.687  0.00  0.00    +0.029 A 
ATOM     35  C   UNL     1       0.825   1.561  29.313  0.00  0.00    +0.078 A 
ATOM     36  C   UNL     1       2.520   3.252  28.986  0.00  0.00    +0.040 A 
ATOM     37  C   UNL     1       1.903   2.301  29.799  0.00  0.00    +0.126 A 
ENDBRANCH  10  29
ENDBRANCH  13   8
BRANCH  14  17
ATOM      3  O   UNL     1      -3.023  -0.052  25.145  0.00  0.00    -0.274 OA
ATOM      9  N   UNL     1      -1.300   0.437  23.659  0.00  0.00    -0.302 N 
ATOM     17  C   UNL     1      -2.570   0.573  24.190  0.00  0.00    +0.234 C 
ATOM     39  H   UNL     1      -1.064   0.949  22.813  0.00  0.00    +0.150 HD
BRANCH   9  19
ATOM     19  C   UNL     1      -0.319  -0.487  24.182  0.00  0.00    +0.163 C 
BRANCH  19  24
ATOM      6  O   UNL     1      -1.624  -2.525  23.957  0.00  0.00    -0.274 OA
ATOM     12  N   UNL     1      -1.046  -1.817  26.065  0.00  0.00    -0.328 N 
ATOM     24  C   UNL     1      -1.078  -1.704  24.691  0.00  0.00    +0.231 C 
ATOM     42  H   UNL     1      -0.571  -1.144  26.657  0.00  0.00    +0.145 HD
ATOM     43  H   UNL     1      -1.504  -2.593  26.534  0.00  0.00    +0.145 HD
ENDBRANCH  19  24
BRANCH  19  20
ATOM     20  C   UNL     1       0.709  -0.903  23.124  0.00  0.00    +0.069 C 
BRANCH  20  23
ATOM     11  N   UNL     1       3.226   1.737  22.955  0.00  0.00    -0.360 N 
ATOM     23  C   UNL     1       1.935  -0.024  23.124  0.00  0.00    -0.020 A 
ATOM     25  C   UNL     1       3.244  -0.450  23.399  0.00  0.00    +0.003 A 
ATOM     26  C   UNL     1       1.930   1.307  22.855  0.00  0.00    +0.087 A 
ATOM     27  C   UNL     1       4.051   0.684  23.287  0.00  0.00    +0.047 A 
ATOM     28  C   UNL     1       3.847  -1.679  23.734  0.00  0.00    +0.010 A 
ATOM     30  C   UNL     1       5.434   0.652  23.493  0.00  0.00    +0.026 A 
ATOM     31  C   UNL     1       5.229  -1.727  23.943  0.00  0.00    +0.001 A 
ATOM     32  C   UNL     1       6.009  -0.579  23.824  0.00  0.00    +0.002 A 
ATOM     41  H   UNL     1       3.534   2.688  22.808  0.00  0.00    +0.165 HD
ENDBRANCH  20  23
ENDBRANCH  19  20
ENDBRANCH   9  19
ENDBRANCH  14  17
TORSDOF 7
ENDMDL
MODEL 2
REMARK VINA RESULT:       4.1      2.607      6.016
REMARK  Name = 11865735
REMARK  8 active torsions:
REMARK  status: ('A' for Active; 'I' for Inactive)
REMARK    1  A    between atoms: N_8  and  C_13
REMARK    2  A    between atoms: N_9  and  C_19
REMARK    3  A    between atoms: N_10  and  C_29
REMARK    4  A    between atoms: C_14  and  C_17
REMARK    5  A    between atoms: C_18  and  C_22
REMARK    6  A    between atoms: C_19  and  C_20
REMARK    7  A    between atoms: C_19  and  C_24
REMARK    8  A    between atoms: C_20  and  C_23
REMARK                            x       y       z     vdW  Elec       q    Type
REMARK                         _______ _______ _______ _____ _____    ______ ____
ROOT
ATOM      4  O   UNL     1      -6.181  -2.090  23.396  0.00  0.00    -0.276 OA
ATOM      7  N   UNL     1      -4.070  -2.375  24.302  0.00  0.00    -0.288 N 
ATOM     13  C   UNL     1      -1.949  -2.259  25.365  0.00  0.00    +0.094 C 
ATOM     14  C   UNL     1      -4.150  -1.271  25.247  0.00  0.00    +0.164 C 
ATOM     15  C   UNL     1      -2.968  -1.470  26.192  0.00  0.00    +0.055 C 
ATOM     16  C   UNL     1      -2.821  -3.120  24.456  0.00  0.00    +0.131 C 
ATOM     18  C   UNL     1      -5.141  -2.743  23.502  0.00  0.00    +0.213 C 
ATOM     22  C   UNL     1      -4.964  -4.024  22.725  0.00  0.00    +0.109 C 
ENDROOT
BRANCH  13   8
ATOM      5  O   UNL     1       0.913  -2.349  25.280  0.00  0.00    -0.252 OA
ATOM      8  N   UNL     1      -1.082  -1.390  24.610  0.00  0.00    -0.295 N 
ATOM     10  N   UNL     1       0.888  -0.527  23.800  0.00  0.00    -0.267 N 
ATOM     21  C   UNL     1       0.315  -1.500  24.623  0.00  0.00    +0.304 C 
ATOM     38  H   UNL     1      -1.499  -0.621  24.094  0.00  0.00    +0.151 HD
ATOM     40  H   UNL     1       0.248   0.104  23.324  0.00  0.00    +0.156 HD
BRANCH  10  29
ATOM      1  F   UNL     1       1.837   1.991  23.117  0.00  0.00    -0.203 F 
ATOM      2  F   UNL     1       6.254   0.328  22.804  0.00  0.00    -0.205 F 
ATOM     29  C   UNL     1       2.261  -0.306  23.544  0.00  0.00    +0.070 A 
ATOM     33  C   UNL     1       2.695   0.966  23.206  0.00  0.00    +0.147 A 
ATOM     34  C   UNL     1       3.146  -1.368  23.638  0.00  0.00    +0.029 A 
ATOM     35  C   UNL     1       4.050   1.182  22.955  0.00  0.00    +0.078 A 
ATOM     36  C   UNL     1       4.501  -1.153  23.387  0.00  0.00    +0.040 A 
ATOM     37  C   UNL     1       4.953   0.122  23.045  0.00  0.00    +0.126 A 
ENDBRANCH  10  29
ENDBRANCH  13   8
BRANCH  14  17
ATOM      3  O   UNL     1      -3.240   0.166  23.572  0.00  0.00    -0.274 OA
ATOM      9  N   UNL     1      -4.912   0.982  24.970  0.00  0.00    -0.302 N 
ATOM     17  C   UNL     1      -4.041   0.020  24.491  0.00  0.00    +0.234 C 
ATOM     39  H   UNL     1      -5.590   0.721  25.681  0.00  0.00    +0.150 HD
BRANCH   9  19
ATOM     19  C   UNL     1      -4.986   2.321  24.429  0.00  0.00    +0.163 C 
BRANCH  19  24
ATOM      6  O   UNL     1      -4.232   3.216  26.559  0.00  0.00    -0.274 OA
ATOM     12  N   UNL     1      -5.970   4.263  25.480  0.00  0.00    -0.328 N 
ATOM     24  C   UNL     1      -5.011   3.280  25.610  0.00  0.00    +0.231 C 
ATOM     42  H   UNL     1      -6.590   4.317  24.678  0.00  0.00    +0.145 HD
ATOM     43  H   UNL     1      -6.084   4.976  26.193  0.00  0.00    +0.145 HD
ENDBRANCH  19  24
BRANCH  19  20
ATOM     20  C   UNL     1      -3.804   2.639  23.507  0.00  0.00    +0.069 C 
BRANCH  20  23
ATOM     11  N   UNL     1      -1.520   5.141  24.869  0.00  0.00    -0.360 N 
ATOM     23  C   UNL     1      -2.729   3.445  24.193  0.00  0.00    -0.020 A 
ATOM     25  C   UNL     1      -1.706   2.921  25.000  0.00  0.00    +0.003 A 
ATOM     26  C   UNL     1      -2.611   4.796  24.118  0.00  0.00    +0.087 A 
ATOM     27  C   UNL     1      -0.947   4.016  25.420  0.00  0.00    +0.047 A 
ATOM     28  C   UNL     1      -1.330   1.632  25.427  0.00  0.00    +0.010 A 
ATOM     30  C   UNL     1       0.171   3.886  26.250  0.00  0.00    +0.026 A 
ATOM     31  C   UNL     1      -0.213   1.487  26.257  0.00  0.00    +0.001 A 
ATOM     32  C   UNL     1       0.525   2.598  26.661  0.00  0.00    +0.002 A 
ATOM     41  H   UNL     1      -1.183   6.084  25.002  0.00  0.00    +0.165 HD
ENDBRANCH  20  23
ENDBRANCH  19  20
ENDBRANCH   9  19
ENDBRANCH  14  17
TORSDOF 7
ENDMDL
MODEL 3
REMARK VINA RESULT:       5.0      2.565      5.553
REMARK  Name = 11865735
REMARK  8 active torsions:
REMARK  status: ('A' for Active; 'I' for Inactive)
REMARK    1  A    between atoms: N_8  and  C_13
REMARK    2  A    between atoms: N_9  and  C_19
REMARK    3  A    between atoms: N_10  and  C_29
REMARK    4  A    between atoms: C_14  and  C_17
REMARK    5  A    between atoms: C_18  and  C_22
REMARK    6  A    between atoms: C_19  and  C_20
REMARK    7  A    between atoms: C_19  and  C_24
REMARK    8  A    between atoms: C_20  and  C_23
REMARK                            x       y       z     vdW  Elec       q    Type
REMARK                         _______ _______ _______ _____ _____    ______ ____
ROOT
ATOM      4  O   UNL     1      -5.369   2.380  24.773  0.00  0.00    -0.276 OA
ATOM      7  N   UNL     1      -3.670   1.644  23.384  0.00  0.00    -0.288 N 
ATOM     13  C   UNL     1      -1.932   0.534  22.206  0.00  0.00    +0.094 C 
ATOM     14  C   UNL     1      -3.804   0.230  23.702  0.00  0.00    +0.164 C 
ATOM     15  C   UNL     1      -2.977  -0.496  22.643  0.00  0.00    +0.055 C 
ATOM     16  C   UNL     1      -2.665   1.865  22.344  0.00  0.00    +0.131 C 
ATOM     18  C   UNL     1      -4.532   2.602  23.896  0.00  0.00    +0.213 C 
ATOM     22  C   UNL     1      -4.384   3.987  23.317  0.00  0.00    +0.109 C 
ENDROOT
BRANCH  13   8
ATOM      5  O   UNL     1       0.732  -0.071  21.344  0.00  0.00    -0.252 OA
ATOM      8  N   UNL     1      -0.751   0.483  23.030  0.00  0.00    -0.295 N 
ATOM     10  N   UNL     1       1.469   0.204  23.556  0.00  0.00    -0.267 N 
ATOM     21  C   UNL     1       0.521   0.179  22.528  0.00  0.00    +0.304 C 
ATOM     38  H   UNL     1      -0.855   0.613  24.031  0.00  0.00    +0.151 HD
ATOM     40  H   UNL     1       1.127   0.428  24.487  0.00  0.00    +0.156 HD
BRANCH  10  29
ATOM      1  F   UNL     1       3.235   2.180  22.729  0.00  0.00    -0.203 F 
ATOM      2  F   UNL     1       6.892  -0.784  23.197  0.00  0.00    -0.205 F 
ATOM     29  C   UNL     1       2.858  -0.047  23.463  0.00  0.00    +0.070 A 
ATOM     33  C   UNL     1       3.706   0.966  23.047  0.00  0.00    +0.147 A 
ATOM     34  C   UNL     1       3.341  -1.303  23.792  0.00  0.00    +0.029 A 
ATOM     35  C   UNL     1       5.075   0.717  22.956  0.00  0.00    +0.078 A 
ATOM     36  C   UNL     1       4.711  -1.552  23.702  0.00  0.00    +0.040 A 
ATOM     37  C   UNL     1       5.578  -0.542  23.284  0.00  0.00    +0.126 A 
ENDBRANCH  10  29
ENDBRANCH  13   8
BRANCH  14  17
ATOM      3  O   UNL     1      -3.942  -0.525  25.962  0.00  0.00    -0.274 OA
ATOM      9  N   UNL     1      -1.960   0.441  25.216  0.00  0.00    -0.302 N 
ATOM     17  C   UNL     1      -3.262  -0.007  25.081  0.00  0.00    +0.234 C 
ATOM     39  H   UNL     1      -1.468   0.776  24.393  0.00  0.00    +0.150 HD
BRANCH   9  19
ATOM     19  C   UNL     1      -1.218   0.351  26.454  0.00  0.00    +0.163 C 
BRANCH  19  24
ATOM      6  O   UNL     1      -0.314  -1.714  25.547  0.00  0.00    -0.274 OA
ATOM     12  N   UNL     1      -0.490  -1.500  27.827  0.00  0.00    -0.328 N 
ATOM     24  C   UNL     1      -0.646  -1.057  26.530  0.00  0.00    +0.231 C 
ATOM     42  H   UNL     1      -0.746  -0.936  28.631  0.00  0.00    +0.145 HD
ATOM     43  H   UNL     1      -0.105  -2.419  28.020  0.00  0.00    +0.145 HD
ENDBRANCH  19  24
BRANCH  19  20
ATOM     20  C   UNL     1      -0.094   1.390  26.532  0.00  0.00    +0.069 C 
BRANCH  20  23
ATOM     11  N   UNL     1      -0.254   4.237  24.252  0.00  0.00    -0.360 N 
ATOM     23  C   UNL     1      -0.397   2.638  25.742  0.00  0.00    -0.020 A 
ATOM     25  C   UNL     1      -1.474   3.509  25.973  0.00  0.00    +0.003 A 
ATOM     26  C   UNL     1       0.341   3.087  24.694  0.00  0.00    +0.087 A 
ATOM     27  C   UNL     1      -1.366   4.520  25.015  0.00  0.00    +0.047 A 
ATOM     28  C   UNL     1      -2.540   3.559  26.893  0.00  0.00    +0.010 A 
ATOM     30  C   UNL     1      -2.273   5.581  24.930  0.00  0.00    +0.026 A 
ATOM     31  C   UNL     1      -3.455   4.615  26.820  0.00  0.00    +0.001 A 
ATOM     32  C   UNL     1      -3.322   5.610  25.853  0.00  0.00    +0.002 A 
ATOM     41  H   UNL     1       0.074   4.798  23.479  0.00  0.00    +0.165 HD
ENDBRANCH  20  23
ENDBRANCH  19  20
ENDBRANCH   9  19
ENDBRANCH  14  17
TORSDOF 7
ENDMDL
MODEL 4
REMARK VINA RESULT:       5.3      2.563      5.927
REMARK  Name = 11865735
REMARK  8 active torsions:
REMARK  status: ('A' for Active; 'I' for Inactive)
REMARK    1  A    between atoms: N_8  and  C_13
REMARK    2  A    between atoms: N_9  and  C_19
REMARK    3  A    between atoms: N_10  and  C_29
REMARK    4  A    between atoms: C_14  and  C_17
REMARK    5  A    between atoms: C_18  and  C_22
REMARK    6  A    between atoms: C_19  and  C_20
REMARK    7  A    between atoms: C_19  and  C_24
REMARK    8  A    between atoms: C_20  and  C_23
REMARK                            x       y       z     vdW  Elec       q    Type
REMARK                         _______ _______ _______ _____ _____    ______ ____
ROOT
ATOM      4  O   UNL     1      -4.866   1.082  26.616  0.00  0.00    -0.276 OA
ATOM      7  N   UNL     1      -3.736  -0.067  24.954  0.00  0.00    -0.288 N 
ATOM     13  C   UNL     1      -2.278  -1.314  23.554  0.00  0.00    +0.094 C 
ATOM     14  C   UNL     1      -2.874  -0.830  25.844  0.00  0.00    +0.164 C 
ATOM     15  C   UNL     1      -2.249  -1.910  24.964  0.00  0.00    +0.055 C 
ATOM     16  C   UNL     1      -3.538  -0.454  23.557  0.00  0.00    +0.131 C 
ATOM     18  C   UNL     1      -4.728   0.777  25.430  0.00  0.00    +0.213 C 
ATOM     22  C   UNL     1      -5.660   1.339  24.385  0.00  0.00    +0.109 C 
ENDROOT
BRANCH  13   8
ATOM      5  O   UNL     1       0.437  -2.084  24.048  0.00  0.00    -0.252 OA
ATOM      8  N   UNL     1      -1.097  -0.535  23.276  0.00  0.00    -0.295 N 
ATOM     10  N   UNL     1       1.140  -0.020  23.175  0.00  0.00    -0.267 N 
ATOM     21  C   UNL     1       0.200  -0.986  23.549  0.00  0.00    +0.304 C 
ATOM     38  H   UNL     1      -1.215   0.410  22.924  0.00  0.00    +0.151 HD
ATOM     40  H   UNL     1       0.776   0.841  22.776  0.00  0.00    +0.156 HD
BRANCH  10  29
ATOM      1  F   UNL     1       2.731   2.213  22.739  0.00  0.00    -0.203 F 
ATOM      2  F   UNL     1       6.640  -0.304  23.612  0.00  0.00    -0.205 F 
ATOM     29  C   UNL     1       2.548  -0.091  23.286  0.00  0.00    +0.070 A 
ATOM     33  C   UNL     1       3.307   1.046  23.061  0.00  0.00    +0.147 A 
ATOM     34  C   UNL     1       3.140  -1.299  23.620  0.00  0.00    +0.029 A 
ATOM     35  C   UNL     1       4.695   0.975  23.172  0.00  0.00    +0.078 A 
ATOM     36  C   UNL     1       4.529  -1.370  23.730  0.00  0.00    +0.040 A 
ATOM     37  C   UNL     1       5.306  -0.234  23.506  0.00  0.00    +0.126 A 
ENDBRANCH  10  29
ENDBRANCH  13   8
BRANCH  14  17
ATOM      3  O   UNL     1      -0.863  -0.338  27.033  0.00  0.00    -0.274 OA
ATOM      9  N   UNL     1      -2.119   1.420  26.166  0.00  0.00    -0.302 N 
ATOM     17  C   UNL     1      -1.833   0.088  26.411  0.00  0.00    +0.234 C 
ATOM     39  H   UNL     1      -2.906   1.650  25.565  0.00  0.00    +0.150 HD
BRANCH   9  19
ATOM     19  C   UNL     1      -1.284   2.506  26.628  0.00  0.00    +0.163 C 
BRANCH  19  24
ATOM      6  O   UNL     1       0.304   2.084  24.837  0.00  0.00    -0.274 OA
ATOM     12  N   UNL     1       1.107   2.406  26.966  0.00  0.00    -0.328 N 
ATOM     24  C   UNL     1       0.099   2.291  26.031  0.00  0.00    +0.231 C 
ATOM     42  H   UNL     1       0.924   2.602  27.944  0.00  0.00    +0.145 HD
ATOM     43  H   UNL     1       2.080   2.298  26.697  0.00  0.00    +0.145 HD
ENDBRANCH  19  24
BRANCH  19  20
ATOM     20  C   UNL     1      -1.836   3.875  26.218  0.00  0.00    +0.069 C 
BRANCH  20  23
ATOM     11  N   UNL     1      -4.710   3.981  23.968  0.00  0.00    -0.360 N 
ATOM     23  C   UNL     1      -2.845   3.788  25.101  0.00  0.00    -0.020 A 
ATOM     25  C   UNL     1      -2.615   3.225  23.835  0.00  0.00    +0.003 A 
ATOM     26  C   UNL     1      -4.122   4.246  25.176  0.00  0.00    +0.087 A 
ATOM     27  C   UNL     1      -3.813   3.358  23.129  0.00  0.00    +0.047 A 
ATOM     28  C   UNL     1      -1.518   2.612  23.198  0.00  0.00    +0.010 A 
ATOM     30  C   UNL     1      -3.969   2.908  21.814  0.00  0.00    +0.026 A 
ATOM     31  C   UNL     1      -1.659   2.156  21.883  0.00  0.00    +0.001 A 
ATOM     32  C   UNL     1      -2.867   2.302  21.203  0.00  0.00    +0.002 A 
ATOM     41  H   UNL     1      -5.664   4.210  23.726  0.00  0.00    +0.165 HD
ENDBRANCH  20  23
ENDBRANCH  19  20
ENDBRANCH   9  19
ENDBRANCH  14  17
TORSDOF 7
ENDMDL
MODEL 5
REMARK VINA RESULT:       5.5      2.787      6.954
REMARK  Name = 11865735
REMARK  8 active torsions:
REMARK  status: ('A' for Active; 'I' for Inactive)
REMARK    1  A    between atoms: N_8  and  C_13
REMARK    2  A    between atoms: N_9  and  C_19
REMARK    3  A    between atoms: N_10  and  C_29
REMARK    4  A    between atoms: C_14  and  C_17
REMARK    5  A    between atoms: C_18  and  C_22
REMARK    6  A    between atoms: C_19  and  C_20
REMARK    7  A    between atoms: C_19  and  C_24
REMARK    8  A    between atoms: C_20  and  C_23
REMARK                            x       y       z     vdW  Elec       q    Type
REMARK                         _______ _______ _______ _____ _____    ______ ____
ROOT
ATOM      4  O   UNL     1      -4.946  -0.047  24.435  0.00  0.00    -0.276 OA
ATOM      7  N   UNL     1      -3.018  -1.311  24.637  0.00  0.00    -0.288 N 
ATOM     13  C   UNL     1      -0.877  -2.259  25.042  0.00  0.00    +0.094 C 
ATOM     14  C   UNL     1      -2.424  -0.528  25.711  0.00  0.00    +0.164 C 
ATOM     15  C   UNL     1      -1.269  -1.379  26.232  0.00  0.00    +0.055 C 
ATOM     16  C   UNL     1      -2.200  -2.480  24.314  0.00  0.00    +0.131 C 
ATOM     18  C   UNL     1      -4.284  -1.044  24.141  0.00  0.00    +0.213 C 
ATOM     22  C   UNL     1      -4.832  -2.063  23.172  0.00  0.00    +0.109 C 
ENDROOT
BRANCH  13   8
ATOM      5  O   UNL     1       1.954  -2.159  25.468  0.00  0.00    -0.252 OA
ATOM      8  N   UNL     1       0.099  -1.617  24.198  0.00  0.00    -0.295 N 
ATOM     10  N   UNL     1       2.169  -0.917  23.487  0.00  0.00    -0.267 N 
ATOM     21  C   UNL     1       1.471  -1.614  24.478  0.00  0.00    +0.304 C 
ATOM     38  H   UNL     1      -0.230  -1.089  23.395  0.00  0.00    +0.151 HD
ATOM     40  H   UNL     1       1.616  -0.522  22.731  0.00  0.00    +0.156 HD
BRANCH  10  29
ATOM      1  F   UNL     1       3.178   1.533  22.657  0.00  0.00    -0.203 F 
ATOM      2  F   UNL     1       7.613  -0.033  23.168  0.00  0.00    -0.205 F 
ATOM     29  C   UNL     1       3.562  -0.688  23.404  0.00  0.00    +0.070 A 
ATOM     33  C   UNL     1       4.026   0.548  22.986  0.00  0.00    +0.147 A 
ATOM     34  C   UNL     1       4.436  -1.709  23.745  0.00  0.00    +0.029 A 
ATOM     35  C   UNL     1       5.400   0.771  22.906  0.00  0.00    +0.078 A 
ATOM     36  C   UNL     1       5.810  -1.486  23.665  0.00  0.00    +0.040 A 
ATOM     37  C   UNL     1       6.293  -0.246  23.246  0.00  0.00    +0.126 A 
ENDBRANCH  10  29
ENDBRANCH  13   8
BRANCH  14  17
ATOM      3  O   UNL     1      -1.944   0.998  23.939  0.00  0.00    -0.274 OA
ATOM      9  N   UNL     1      -1.480   1.633  26.130  0.00  0.00    -0.302 N 
ATOM     17  C   UNL     1      -1.937   0.774  25.146  0.00  0.00    +0.234 C 
ATOM     39  H   UNL     1      -1.602   1.372  27.105  0.00  0.00    +0.150 HD
BRANCH   9  19
ATOM     19  C   UNL     1      -0.936   2.942  25.846  0.00  0.00    +0.163 C 
BRANCH  19  24
ATOM      6  O   UNL     1      -0.236   3.573  23.606  0.00  0.00    -0.274 OA
ATOM     12  N   UNL     1       0.808   1.798  24.625  0.00  0.00    -0.328 N 
ATOM     24  C   UNL     1      -0.118   2.818  24.569  0.00  0.00    +0.231 C 
ATOM     42  H   UNL     1       0.910   1.198  25.436  0.00  0.00    +0.145 HD
ATOM     43  H   UNL     1       1.429   1.616  23.842  0.00  0.00    +0.145 HD
ENDBRANCH  19  24
BRANCH  19  20
ATOM     20  C   UNL     1      -2.032   4.000  25.678  0.00  0.00    +0.069 C 
BRANCH  20  23
ATOM     11  N   UNL     1      -4.507   2.952  23.207  0.00  0.00    -0.360 N 
ATOM     23  C   UNL     1      -3.215   3.497  24.889  0.00  0.00    -0.020 A 
ATOM     25  C   UNL     1      -4.402   2.983  25.436  0.00  0.00    +0.003 A 
ATOM     26  C   UNL     1      -3.285   3.475  23.533  0.00  0.00    +0.087 A 
ATOM     27  C   UNL     1      -5.211   2.642  24.350  0.00  0.00    +0.047 A 
ATOM     28  C   UNL     1      -4.891   2.766  26.739  0.00  0.00    +0.010 A 
ATOM     30  C   UNL     1      -6.488   2.092  24.502  0.00  0.00    +0.026 A 
ATOM     31  C   UNL     1      -6.166   2.217  26.908  0.00  0.00    +0.001 A 
ATOM     32  C   UNL     1      -6.952   1.886  25.805  0.00  0.00    +0.002 A 
ATOM     41  H   UNL     1      -4.844   2.812  22.265  0.00  0.00    +0.165 HD
ENDBRANCH  20  23
ENDBRANCH  19  20
ENDBRANCH   9  19
ENDBRANCH  14  17
TORSDOF 7
ENDMDL
MODEL 6
REMARK VINA RESULT:       5.6      2.561      5.975
REMARK  Name = 11865735
REMARK  8 active torsions:
REMARK  status: ('A' for Active; 'I' for Inactive)
REMARK    1  A    between atoms: N_8  and  C_13
REMARK    2  A    between atoms: N_9  and  C_19
REMARK    3  A    between atoms: N_10  and  C_29
REMARK    4  A    between atoms: C_14  and  C_17
REMARK    5  A    between atoms: C_18  and  C_22
REMARK    6  A    between atoms: C_19  and  C_20
REMARK    7  A    between atoms: C_19  and  C_24
REMARK    8  A    between atoms: C_20  and  C_23
REMARK                            x       y       z     vdW  Elec       q    Type
REMARK                         _______ _______ _______ _____ _____    ______ ____
ROOT
ATOM      4  O   UNL     1      -5.808  -0.962  23.902  0.00  0.00    -0.276 OA
ATOM      7  N   UNL     1      -3.711  -1.765  24.459  0.00  0.00    -0.288 N 
ATOM     13  C   UNL     1      -1.501  -2.203  25.213  0.00  0.00    +0.094 C 
ATOM     14  C   UNL     1      -3.446  -0.803  25.519  0.00  0.00    +0.164 C 
ATOM     15  C   UNL     1      -2.226  -1.350  26.257  0.00  0.00    +0.055 C 
ATOM     16  C   UNL     1      -2.634  -2.751  24.352  0.00  0.00    +0.131 C 
ATOM     18  C   UNL     1      -4.922  -1.811  23.788  0.00  0.00    +0.213 C 
ATOM     22  C   UNL     1      -5.110  -2.986  22.861  0.00  0.00    +0.109 C 
ENDROOT
BRANCH  13   8
ATOM      5  O   UNL     1       1.358  -2.297  25.376  0.00  0.00    -0.252 OA
ATOM      8  N   UNL     1      -0.567  -1.424  24.438  0.00  0.00    -0.295 N 
ATOM     10  N   UNL     1       1.469  -0.655  23.700  0.00  0.00    -0.267 N 
ATOM     21  C   UNL     1       0.822  -1.530  24.579  0.00  0.00    +0.304 C 
ATOM     38  H   UNL     1      -0.934  -0.720  23.805  0.00  0.00    +0.151 HD
ATOM     40  H   UNL     1       0.876  -0.084  23.104  0.00  0.00    +0.156 HD
BRANCH  10  29
ATOM      1  F   UNL     1       2.496   1.796  22.898  0.00  0.00    -0.203 F 
ATOM      2  F   UNL     1       6.905   0.089  23.060  0.00  0.00    -0.205 F 
ATOM     29  C   UNL     1       2.860  -0.463  23.535  0.00  0.00    +0.070 A 
ATOM     33  C   UNL     1       3.333   0.776  23.134  0.00  0.00    +0.147 A 
ATOM     34  C   UNL     1       3.723  -1.519  23.780  0.00  0.00    +0.029 A 
ATOM     35  C   UNL     1       4.706   0.964  22.972  0.00  0.00    +0.078 A 
ATOM     36  C   UNL     1       5.096  -1.331  23.619  0.00  0.00    +0.040 A 
ATOM     37  C   UNL     1       5.587  -0.090  23.215  0.00  0.00    +0.126 A 
ENDBRANCH  10  29
ENDBRANCH  13   8
BRANCH  14  17
ATOM      3  O   UNL     1      -2.624   0.632  23.797  0.00  0.00    -0.274 OA
ATOM      9  N   UNL     1      -3.548   1.582  25.711  0.00  0.00    -0.302 N 
ATOM     17  C   UNL     1      -3.160   0.532  24.897  0.00  0.00    +0.234 C 
ATOM     39  H   UNL     1      -4.060   1.378  26.565  0.00  0.00    +0.150 HD
BRANCH   9  19
ATOM     19  C   UNL     1      -3.360   2.970  25.353  0.00  0.00    +0.163 C 
BRANCH  19  24
ATOM      6  O   UNL     1      -5.017   4.566  24.571  0.00  0.00    -0.274 OA
ATOM     12  N   UNL     1      -5.669   2.950  26.068  0.00  0.00    -0.328 N 
ATOM     24  C   UNL     1      -4.742   3.603  25.283  0.00  0.00    +0.231 C 
ATOM     42  H   UNL     1      -5.432   2.141  26.632  0.00  0.00    +0.145 HD
ATOM     43  H   UNL     1      -6.634   3.263  26.102  0.00  0.00    +0.145 HD
ENDBRANCH  19  24
BRANCH  19  20
ATOM     20  C   UNL     1      -2.481   3.715  26.363  0.00  0.00    +0.069 C 
BRANCH  20  23
ATOM     11  N   UNL     1       0.877   2.406  25.773  0.00  0.00    -0.360 N 
ATOM     23  C   UNL     1      -1.069   3.187  26.409  0.00  0.00    -0.020 A 
ATOM     25  C   UNL     1      -0.308   2.988  27.573  0.00  0.00    +0.003 A 
ATOM     26  C   UNL     1      -0.342   2.831  25.318  0.00  0.00    +0.087 A 
ATOM     27  C   UNL     1       0.926   2.491  27.147  0.00  0.00    +0.047 A 
ATOM     28  C   UNL     1      -0.524   3.174  28.952  0.00  0.00    +0.010 A 
ATOM     30  C   UNL     1       1.958   2.170  28.035  0.00  0.00    +0.026 A 
ATOM     31  C   UNL     1       0.498   2.857  29.853  0.00  0.00    +0.001 A 
ATOM     32  C   UNL     1       1.720   2.362  29.399  0.00  0.00    +0.002 A 
ATOM     41  H   UNL     1       1.631   2.077  25.188  0.00  0.00    +0.165 HD
ENDBRANCH  20  23
ENDBRANCH  19  20
ENDBRANCH   9  19
ENDBRANCH  14  17
TORSDOF 7
ENDMDL
MODEL 7
REMARK VINA RESULT:       6.1      2.601      4.386
REMARK  Name = 11865735
REMARK  8 active torsions:
REMARK  status: ('A' for Active; 'I' for Inactive)
REMARK    1  A    between atoms: N_8  and  C_13
REMARK    2  A    between atoms: N_9  and  C_19
REMARK    3  A    between atoms: N_10  and  C_29
REMARK    4  A    between atoms: C_14  and  C_17
REMARK    5  A    between atoms: C_18  and  C_22
REMARK    6  A    between atoms: C_19  and  C_20
REMARK    7  A    between atoms: C_19  and  C_24
REMARK    8  A    between atoms: C_20  and  C_23
REMARK                            x       y       z     vdW  Elec       q    Type
REMARK                         _______ _______ _______ _____ _____    ______ ____
ROOT
ATOM      4  O   UNL     1      -5.823   1.120  24.245  0.00  0.00    -0.276 OA
ATOM      7  N   UNL     1      -4.574   2.993  24.782  0.00  0.00    -0.288 N 
ATOM     13  C   UNL     1      -3.074   4.825  24.972  0.00  0.00    +0.094 C 
ATOM     14  C   UNL     1      -4.029   3.211  23.451  0.00  0.00    +0.164 C 
ATOM     15  C   UNL     1      -3.414   4.607  23.495  0.00  0.00    +0.055 C 
ATOM     16  C   UNL     1      -4.166   4.052  25.706  0.00  0.00    +0.131 C 
ATOM     18  C   UNL     1      -5.501   1.998  25.048  0.00  0.00    +0.213 C 
ATOM     22  C   UNL     1      -6.114   2.030  26.426  0.00  0.00    +0.109 C 
ENDROOT
BRANCH  13   8
ATOM      5  O   UNL     1      -2.178   3.895  27.530  0.00  0.00    -0.252 OA
ATOM      8  N   UNL     1      -1.758   4.335  25.299  0.00  0.00    -0.295 N 
ATOM     10  N   UNL     1      -0.065   3.481  26.595  0.00  0.00    -0.267 N 
ATOM     21  C   UNL     1      -1.399   3.897  26.579  0.00  0.00    +0.304 C 
ATOM     38  H   UNL     1      -1.040   4.368  24.582  0.00  0.00    +0.151 HD
ATOM     40  H   UNL     1       0.446   3.549  25.719  0.00  0.00    +0.156 HD
BRANCH  10  29
ATOM      1  F   UNL     1       2.505   4.380  27.139  0.00  0.00    -0.203 F 
ATOM      2  F   UNL     1       2.809   1.493  30.875  0.00  0.00    -0.205 F 
ATOM     29  C   UNL     1       0.673   2.973  27.690  0.00  0.00    +0.070 A 
ATOM     33  C   UNL     1       1.953   3.448  27.928  0.00  0.00    +0.147 A 
ATOM     34  C   UNL     1       0.098   2.010  28.504  0.00  0.00    +0.029 A 
ATOM     35  C   UNL     1       2.678   2.946  29.008  0.00  0.00    +0.078 A 
ATOM     36  C   UNL     1       0.824   1.509  29.585  0.00  0.00    +0.040 A 
ATOM     37  C   UNL     1       2.113   1.977  29.837  0.00  0.00    +0.126 A 
ENDBRANCH  10  29
ENDBRANCH  13   8
BRANCH  14  17
ATOM      3  O   UNL     1      -3.132   1.334  22.279  0.00  0.00    -0.274 OA
ATOM      9  N   UNL     1      -1.923   2.240  24.050  0.00  0.00    -0.302 N 
ATOM     17  C   UNL     1      -2.993   2.161  23.176  0.00  0.00    +0.234 C 
ATOM     39  H   UNL     1      -1.876   3.022  24.699  0.00  0.00    +0.150 HD
BRANCH   9  19
ATOM     19  C   UNL     1      -0.803   1.328  24.012  0.00  0.00    +0.163 C 
BRANCH  19  24
ATOM      6  O   UNL     1       0.448   3.393  23.735  0.00  0.00    -0.274 OA
ATOM     12  N   UNL     1       1.595   1.403  23.720  0.00  0.00    -0.328 N 
ATOM     24  C   UNL     1       0.449   2.166  23.794  0.00  0.00    +0.231 C 
ATOM     42  H   UNL     1       1.583   0.391  23.795  0.00  0.00    +0.145 HD
ATOM     43  H   UNL     1       2.503   1.839  23.589  0.00  0.00    +0.145 HD
ENDBRANCH  19  24
BRANCH  19  20
ATOM     20  C   UNL     1      -0.679   0.509  25.302  0.00  0.00    +0.069 C 
BRANCH  20  23
ATOM     11  N   UNL     1      -0.862  -3.128  25.032  0.00  0.00    -0.360 N 
ATOM     23  C   UNL     1      -1.028  -0.945  25.105  0.00  0.00    -0.020 A 
ATOM     25  C   UNL     1      -2.272  -1.435  24.675  0.00  0.00    +0.003 A 
ATOM     26  C   UNL     1      -0.175  -1.980  25.321  0.00  0.00    +0.087 A 
ATOM     27  C   UNL     1      -2.147  -2.826  24.635  0.00  0.00    +0.047 A 
ATOM     28  C   UNL     1      -3.504  -0.856  24.312  0.00  0.00    +0.010 A 
ATOM     30  C   UNL     1      -3.194  -3.669  24.249  0.00  0.00    +0.026 A 
ATOM     31  C   UNL     1      -4.561  -1.686  23.922  0.00  0.00    +0.001 A 
ATOM     32  C   UNL     1      -4.406  -3.070  23.892  0.00  0.00    +0.002 A 
ATOM     41  H   UNL     1      -0.484  -4.062  25.100  0.00  0.00    +0.165 HD
ENDBRANCH  20  23
ENDBRANCH  19  20
ENDBRANCH   9  19
ENDBRANCH  14  17
TORSDOF 7
ENDMDL
MODEL 8
REMARK VINA RESULT:       6.6      2.758      6.517
REMARK  Name = 11865735
REMARK  8 active torsions:
REMARK  status: ('A' for Active; 'I' for Inactive)
REMARK    1  A    between atoms: N_8  and  C_13
REMARK    2  A    between atoms: N_9  and  C_19
REMARK    3  A    between atoms: N_10  and  C_29
REMARK    4  A    between atoms: C_14  and  C_17
REMARK    5  A    between atoms: C_18  and  C_22
REMARK    6  A    between atoms: C_19  and  C_20
REMARK    7  A    between atoms: C_19  and  C_24
REMARK    8  A    between atoms: C_20  and  C_23
REMARK                            x       y       z     vdW  Elec       q    Type
REMARK                         _______ _______ _______ _____ _____    ______ ____
ROOT
ATOM      4  O   UNL     1      -4.378   0.250  26.487  0.00  0.00    -0.276 OA
ATOM      7  N   UNL     1      -3.202  -1.096  25.017  0.00  0.00    -0.288 N 
ATOM     13  C   UNL     1      -1.671  -2.436  23.791  0.00  0.00    +0.094 C 
ATOM     14  C   UNL     1      -2.182  -1.518  25.966  0.00  0.00    +0.164 C 
ATOM     15  C   UNL     1      -1.464  -2.682  25.287  0.00  0.00    +0.055 C 
ATOM     16  C   UNL     1      -3.040  -1.766  23.726  0.00  0.00    +0.131 C 
ATOM     18  C   UNL     1      -4.274  -0.300  25.390  0.00  0.00    +0.213 C 
ATOM     22  C   UNL     1      -5.344  -0.117  24.342  0.00  0.00    +0.109 C 
ENDROOT
BRANCH  13   8
ATOM      5  O   UNL     1       1.040  -2.234  24.695  0.00  0.00    -0.252 OA
ATOM      8  N   UNL     1      -0.637  -1.597  23.237  0.00  0.00    -0.295 N 
ATOM     10  N   UNL     1       1.446  -0.656  23.005  0.00  0.00    -0.267 N 
ATOM     21  C   UNL     1       0.669  -1.557  23.740  0.00  0.00    +0.304 C 
ATOM     38  H   UNL     1      -0.884  -0.959  22.486  0.00  0.00    +0.151 HD
ATOM     40  H   UNL     1       0.984  -0.171  22.240  0.00  0.00    +0.156 HD
BRANCH  10  29
ATOM      1  F   UNL     1       3.188  -2.424  24.249  0.00  0.00    -0.203 F 
ATOM      2  F   UNL     1       6.770   0.625  23.739  0.00  0.00    -0.205 F 
ATOM     29  C   UNL     1       2.810  -0.330  23.195  0.00  0.00    +0.070 A 
ATOM     33  C   UNL     1       3.647  -1.239  23.820  0.00  0.00    +0.147 A 
ATOM     34  C   UNL     1       3.280   0.895  22.749  0.00  0.00    +0.029 A 
ATOM     35  C   UNL     1       4.991  -0.916  24.005  0.00  0.00    +0.078 A 
ATOM     36  C   UNL     1       4.624   1.219  22.934  0.00  0.00    +0.040 A 
ATOM     37  C   UNL     1       5.479   0.313  23.562  0.00  0.00    +0.126 A 
ENDBRANCH  10  29
ENDBRANCH  13   8
BRANCH  14  17
ATOM      3  O   UNL     1      -0.594  -0.279  27.249  0.00  0.00    -0.274 OA
ATOM      9  N   UNL     1      -1.256   0.545  25.175  0.00  0.00    -0.302 N 
ATOM     17  C   UNL     1      -1.251  -0.368  26.215  0.00  0.00    +0.234 C 
ATOM     39  H   UNL     1      -1.776   0.324  24.330  0.00  0.00    +0.150 HD
BRANCH   9  19
ATOM     19  C   UNL     1      -0.464   1.754  25.180  0.00  0.00    +0.163 C 
BRANCH  19  24
ATOM      6  O   UNL     1       0.157   3.238  23.358  0.00  0.00    -0.274 OA
ATOM     12  N   UNL     1      -1.683   1.887  23.098  0.00  0.00    -0.328 N 
ATOM     24  C   UNL     1      -0.615   2.394  23.808  0.00  0.00    +0.231 C 
ATOM     42  H   UNL     1      -2.298   1.172  23.473  0.00  0.00    +0.145 HD
ATOM     43  H   UNL     1      -1.889   2.219  22.161  0.00  0.00    +0.145 HD
ENDBRANCH  19  24
BRANCH  19  20
ATOM     20  C   UNL     1      -0.904   2.730  26.277  0.00  0.00    +0.069 C 
BRANCH  20  23
ATOM     11  N   UNL     1      -2.491   5.713  24.891  0.00  0.00    -0.360 N 
ATOM     23  C   UNL     1      -1.808   3.821  25.758  0.00  0.00    -0.020 A 
ATOM     25  C   UNL     1      -3.211   3.774  25.730  0.00  0.00    +0.003 A 
ATOM     26  C   UNL     1      -1.376   5.003  25.247  0.00  0.00    +0.087 A 
ATOM     27  C   UNL     1      -3.627   4.986  25.175  0.00  0.00    +0.047 A 
ATOM     28  C   UNL     1      -4.188   2.835  26.114  0.00  0.00    +0.010 A 
ATOM     30  C   UNL     1      -4.975   5.308  24.984  0.00  0.00    +0.026 A 
ATOM     31  C   UNL     1      -5.540   3.142  25.930  0.00  0.00    +0.001 A 
ATOM     32  C   UNL     1      -5.926   4.360  25.374  0.00  0.00    +0.002 A 
ATOM     41  H   UNL     1      -2.484   6.635  24.480  0.00  0.00    +0.165 HD
ENDBRANCH  20  23
ENDBRANCH  19  20
ENDBRANCH   9  19
ENDBRANCH  14  17
TORSDOF 7
ENDMDL
MODEL 9
REMARK VINA RESULT:       7.3      2.883      5.178
REMARK  Name = 11865735
REMARK  8 active torsions:
REMARK  status: ('A' for Active; 'I' for Inactive)
REMARK    1  A    between atoms: N_8  and  C_13
REMARK    2  A    between atoms: N_9  and  C_19
REMARK    3  A    between atoms: N_10  and  C_29
REMARK    4  A    between atoms: C_14  and  C_17
REMARK    5  A    between atoms: C_18  and  C_22
REMARK    6  A    between atoms: C_19  and  C_20
REMARK    7  A    between atoms: C_19  and  C_24
REMARK    8  A    between atoms: C_20  and  C_23
REMARK                            x       y       z     vdW  Elec       q    Type
REMARK                         _______ _______ _______ _____ _____    ______ ____
ROOT
ATOM      4  O   UNL     1      -5.294   3.683  26.601  0.00  0.00    -0.276 OA
ATOM      7  N   UNL     1      -3.189   4.326  25.886  0.00  0.00    -0.288 N 
ATOM     13  C   UNL     1      -1.208   5.001  24.761  0.00  0.00    +0.094 C 
ATOM     14  C   UNL     1      -3.618   4.912  24.625  0.00  0.00    +0.164 C 
ATOM     15  C   UNL     1      -2.411   5.697  24.119  0.00  0.00    +0.055 C 
ATOM     16  C   UNL     1      -1.753   4.513  26.100  0.00  0.00    +0.131 C 
ATOM     18  C   UNL     1      -4.089   3.827  26.814  0.00  0.00    +0.213 C 
ATOM     22  C   UNL     1      -3.501   3.439  28.149  0.00  0.00    +0.109 C 
ENDROOT
BRANCH  13   8
ATOM      5  O   UNL     1       0.988   3.262  25.365  0.00  0.00    -0.252 OA
ATOM      8  N   UNL     1      -0.723   3.912  23.950  0.00  0.00    -0.295 N 
ATOM     10  N   UNL     1       0.602   2.136  23.341  0.00  0.00    -0.267 N 
ATOM     21  C   UNL     1       0.362   3.106  24.319  0.00  0.00    +0.304 C 
ATOM     38  H   UNL     1      -1.147   3.761  23.040  0.00  0.00    +0.151 HD
ATOM     40  H   UNL     1      -0.011   2.143  22.530  0.00  0.00    +0.156 HD
BRANCH  10  29
ATOM      1  F   UNL     1      -0.058  -0.558  23.223  0.00  0.00    -0.203 F 
ATOM      2  F   UNL     1       4.516  -1.763  23.327  0.00  0.00    -0.205 F 
ATOM     29  C   UNL     1       1.602   1.136  23.338  0.00  0.00    +0.070 A 
ATOM     33  C   UNL     1       1.232  -0.198  23.278  0.00  0.00    +0.147 A 
ATOM     34  C   UNL     1       2.935   1.513  23.394  0.00  0.00    +0.029 A 
ATOM     35  C   UNL     1       2.220  -1.182  23.274  0.00  0.00    +0.078 A 
ATOM     36  C   UNL     1       3.923   0.528  23.390  0.00  0.00    +0.040 A 
ATOM     37  C   UNL     1       3.566  -0.819  23.330  0.00  0.00    +0.126 A 
ENDBRANCH  10  29
ENDBRANCH  13   8
BRANCH  14  17
ATOM      3  O   UNL     1      -4.142   4.004  22.480  0.00  0.00    -0.274 OA
ATOM      9  N   UNL     1      -4.152   2.595  24.333  0.00  0.00    -0.302 N 
ATOM     17  C   UNL     1      -3.990   3.806  23.682  0.00  0.00    +0.234 C 
ATOM     39  H   UNL     1      -3.915   2.533  25.319  0.00  0.00    +0.150 HD
BRANCH   9  19
ATOM     19  C   UNL     1      -4.533   1.378  23.653  0.00  0.00    +0.163 C 
BRANCH  19  24
ATOM      6  O   UNL     1      -3.286  -0.135  22.217  0.00  0.00    -0.274 OA
ATOM     12  N   UNL     1      -2.304   1.845  22.844  0.00  0.00    -0.328 N 
ATOM     24  C   UNL     1      -3.329   0.921  22.844  0.00  0.00    +0.231 C 
ATOM     42  H   UNL     1      -2.363   2.725  23.346  0.00  0.00    +0.145 HD
ATOM     43  H   UNL     1      -1.446   1.671  22.331  0.00  0.00    +0.145 HD
ENDBRANCH  19  24
BRANCH  19  20
ATOM     20  C   UNL     1      -4.967   0.280  24.631  0.00  0.00    +0.069 C 
BRANCH  20  23
ATOM     11  N   UNL     1      -3.416  -2.976  24.062  0.00  0.00    -0.360 N 
ATOM     23  C   UNL     1      -4.103  -0.953  24.545  0.00  0.00    -0.020 A 
ATOM     25  C   UNL     1      -2.818  -1.089  25.094  0.00  0.00    +0.003 A 
ATOM     26  C   UNL     1      -4.461  -2.104  23.919  0.00  0.00    +0.087 A 
ATOM     27  C   UNL     1      -2.398  -2.383  24.776  0.00  0.00    +0.047 A 
ATOM     28  C   UNL     1      -1.952  -0.258  25.831  0.00  0.00    +0.010 A 
ATOM     30  C   UNL     1      -1.151  -2.888  25.159  0.00  0.00    +0.026 A 
ATOM     31  C   UNL     1      -0.702  -0.749  26.222  0.00  0.00    +0.001 A 
ATOM     32  C   UNL     1      -0.309  -2.045  25.891  0.00  0.00    +0.002 A 
ATOM     41  H   UNL     1      -3.393  -3.918  23.698  0.00  0.00    +0.165 HD
ENDBRANCH  20  23
ENDBRANCH  19  20
ENDBRANCH   9  19
ENDBRANCH  14  17
TORSDOF 7
ENDMDL
MODEL 10
REMARK VINA RESULT:       7.3      2.880      6.658
REMARK  Name = 11865735
REMARK  8 active torsions:
REMARK  status: ('A' for Active; 'I' for Inactive)
REMARK    1  A    between atoms: N_8  and  C_13
REMARK    2  A    between atoms: N_9  and  C_19
REMARK    3  A    between atoms: N_10  and  C_29
REMARK    4  A    between atoms: C_14  and  C_17
REMARK    5  A    between atoms: C_18  and  C_22
REMARK    6  A    between atoms: C_19  and  C_20
REMARK    7  A    between atoms: C_19  and  C_24
REMARK    8  A    between atoms: C_20  and  C_23
REMARK                            x       y       z     vdW  Elec       q    Type
REMARK                         _______ _______ _______ _____ _____    ______ ____
ROOT
ATOM      4  O   UNL     1      -1.341   4.943  24.196  0.00  0.00    -0.276 OA
ATOM      7  N   UNL     1      -0.746   3.606  25.989  0.00  0.00    -0.288 N 
ATOM     13  C   UNL     1       0.198   2.116  27.581  0.00  0.00    +0.094 C 
ATOM     14  C   UNL     1       0.646   3.431  25.606  0.00  0.00    +0.164 C 
ATOM     15  C   UNL     1       1.326   2.832  26.834  0.00  0.00    +0.055 C 
ATOM     16  C   UNL     1      -1.028   2.973  27.279  0.00  0.00    +0.131 C 
ATOM     18  C   UNL     1      -1.611   4.426  25.282  0.00  0.00    +0.213 C 
ATOM     22  C   UNL     1      -2.960   4.655  25.919  0.00  0.00    +0.109 C 
ENDROOT
BRANCH  13   8
ATOM      5  O   UNL     1      -2.008   1.076  26.077  0.00  0.00    -0.252 OA
ATOM      8  N   UNL     1       0.028   0.759  27.127  0.00  0.00    -0.295 N 
ATOM     10  N   UNL     1      -0.974  -1.032  26.094  0.00  0.00    -0.267 N 
ATOM     21  C   UNL     1      -1.084   0.329  26.393  0.00  0.00    +0.304 C 
ATOM     38  H   UNL     1       0.718   0.067  27.405  0.00  0.00    +0.151 HD
ATOM     40  H   UNL     1      -0.142  -1.509  26.432  0.00  0.00    +0.156 HD
BRANCH  10  29
ATOM      1  F   UNL     1      -3.592  -1.368  26.954  0.00  0.00    -0.203 F 
ATOM      2  F   UNL     1      -4.524  -4.184  23.268  0.00  0.00    -0.205 F 
ATOM     29  C   UNL     1      -1.885  -1.839  25.372  0.00  0.00    +0.070 A 
ATOM     33  C   UNL     1      -3.183  -1.981  25.834  0.00  0.00    +0.147 A 
ATOM     34  C   UNL     1      -1.457  -2.471  24.215  0.00  0.00    +0.029 A 
ATOM     35  C   UNL     1      -4.079  -2.776  25.120  0.00  0.00    +0.078 A 
ATOM     36  C   UNL     1      -2.354  -3.266  23.501  0.00  0.00    +0.040 A 
ATOM     37  C   UNL     1      -3.665  -3.419  23.954  0.00  0.00    +0.126 A 
ENDBRANCH  10  29
ENDBRANCH  13   8
BRANCH  14  17
ATOM      3  O   UNL     1       1.778   2.081  23.995  0.00  0.00    -0.274 OA
ATOM      9  N   UNL     1      -0.545   2.211  23.923  0.00  0.00    -0.302 N 
ATOM     17  C   UNL     1       0.710   2.499  24.432  0.00  0.00    +0.234 C 
ATOM     39  H   UNL     1      -1.365   2.548  24.420  0.00  0.00    +0.150 HD
BRANCH   9  19
ATOM     19  C   UNL     1      -0.755   1.356  22.777  0.00  0.00    +0.163 C 
BRANCH  19  24
ATOM      6  O   UNL     1       0.256  -0.592  23.819  0.00  0.00    -0.274 OA
ATOM     12  N   UNL     1       1.084   0.129  21.801  0.00  0.00    -0.328 N 
ATOM     24  C   UNL     1       0.237   0.208  22.887  0.00  0.00    +0.231 C 
ATOM     42  H   UNL     1       1.040   0.783  21.026  0.00  0.00    +0.145 HD
ATOM     43  H   UNL     1       1.787  -0.601  21.742  0.00  0.00    +0.145 HD
ENDBRANCH  19  24
BRANCH  19  20
ATOM     20  C   UNL     1      -2.189   0.818  22.711  0.00  0.00    +0.069 C 
BRANCH  20  23
ATOM     11  N   UNL     1      -4.375   3.711  23.149  0.00  0.00    -0.360 N 
ATOM     23  C   UNL     1      -3.218   1.851  23.098  0.00  0.00    -0.020 A 
ATOM     25  C   UNL     1      -4.197   1.696  24.092  0.00  0.00    +0.003 A 
ATOM     26  C   UNL     1      -3.332   3.079  22.528  0.00  0.00    +0.087 A 
ATOM     27  C   UNL     1      -4.923   2.889  24.110  0.00  0.00    +0.047 A 
ATOM     28  C   UNL     1      -4.557   0.672  24.990  0.00  0.00    +0.010 A 
ATOM     30  C   UNL     1      -5.994   3.110  24.982  0.00  0.00    +0.026 A 
ATOM     31  C   UNL     1      -5.626   0.878  25.869  0.00  0.00    +0.001 A 
ATOM     32  C   UNL     1      -6.332   2.080  25.864  0.00  0.00    +0.002 A 
ATOM     41  H   UNL     1      -4.697   4.644  22.935  0.00  0.00    +0.165 HD
ENDBRANCH  20  23
ENDBRANCH  19  20
ENDBRANCH   9  19
ENDBRANCH  14  17
TORSDOF 7
ENDMDL
