MODEL 1
REMARK VINA RESULT:       1.0      0.000      0.000
REMARK  Name = 7051289
REMARK  7 active torsions:
REMARK  status: ('A' for Active; 'I' for Inactive)
REMARK    1  A    between atoms: S_2  and  N_10
REMARK    2  A    between atoms: S_2  and  C_25
REMARK    3  A    between atoms: O_5  and  C_24
REMARK    4  A    between atoms: O_5  and  C_26
REMARK    5  A    between atoms: N_10  and  C_21
REMARK    6  A    between atoms: C_20  and  C_23
REMARK    7  A    between atoms: C_23  and  C_24
REMARK                            x       y       z     vdW  Elec       q    Type
REMARK                         _______ _______ _______ _____ _____    ______ ____
ROOT
ATOM      3  O   UNL     1      -0.203   2.368  26.252  0.00  0.00    -0.266 OA
ATOM      4  O   UNL     1      -4.895  -0.191  26.641  0.00  0.00    -0.276 OA
ATOM      8  N   UNL     1      -5.076   1.648  25.234  0.00  0.00    -0.300 N 
ATOM      9  N   UNL     1      -2.141   2.902  25.050  0.00  0.00    -0.310 N 
ATOM     11  C   UNL     1      -4.259   3.823  26.152  0.00  0.00    +0.027 C 
ATOM     12  C   UNL     1      -4.219   3.432  23.724  0.00  0.00    +0.054 C 
ATOM     13  C   UNL     1      -4.511   4.477  24.799  0.00  0.00    +0.018 C 
ATOM     14  C   UNL     1      -5.175   2.602  26.340  0.00  0.00    +0.113 C 
ATOM     15  C   UNL     1      -2.775   3.451  26.255  0.00  0.00    +0.130 C 
ATOM     16  C   UNL     1      -5.179   2.237  23.890  0.00  0.00    +0.117 C 
ATOM     17  C   UNL     1      -2.781   2.952  23.804  0.00  0.00    +0.027 A 
ATOM     18  C   UNL     1      -2.139   2.551  22.691  0.00  0.00    +0.024 A 
ATOM     19  C   UNL     1      -0.823   2.421  25.191  0.00  0.00    +0.274 A 
ATOM     20  C   UNL     1      -4.980   0.283  25.506  0.00  0.00    +0.218 C 
ATOM     21  C   UNL     1      -0.176   1.972  23.933  0.00  0.00    +0.112 A 
ATOM     22  C   UNL     1      -0.796   2.043  22.754  0.00  0.00    +0.031 A 
ENDROOT
BRANCH  21  10
ATOM     10  N   UNL     1       1.134   1.463  23.953  0.00  0.00    -0.211 N 
ATOM     32  H   UNL     1       1.837   2.158  23.663  0.00  0.00    +0.174 HD
BRANCH  10   2
ATOM      2  S   UNL     1       1.369  -0.086  23.310  0.00  0.00    +0.072 S 
ATOM      6  O   UNL     1       0.876  -1.081  24.243  0.00  0.00    -0.150 OA
ATOM      7  O   UNL     1       0.945  -0.109  21.924  0.00  0.00    -0.150 OA
BRANCH   2  25
ATOM      1 CL   UNL     1       7.617  -0.430  23.355  0.00  0.00    -0.084 Cl
ATOM     25  C   UNL     1       3.136  -0.183  23.323  0.00  0.00    +0.109 A 
ATOM     27  C   UNL     1       3.744  -1.338  23.780  0.00  0.00    +0.030 A 
ATOM     28  C   UNL     1       3.874   0.898  22.875  0.00  0.00    +0.030 A 
ATOM     29  C   UNL     1       5.137  -1.415  23.791  0.00  0.00    +0.022 A 
ATOM     30  C   UNL     1       5.267   0.821  22.885  0.00  0.00    +0.022 A 
ATOM     31  C   UNL     1       5.898  -0.336  23.342  0.00  0.00    +0.041 A 
ENDBRANCH   2  25
ENDBRANCH  10   2
ENDBRANCH  21  10
BRANCH  20  23
ATOM     23  C   UNL     1      -4.976  -0.644  24.317  0.00  0.00    +0.124 C 
BRANCH  23  24
ATOM     24  C   UNL     1      -3.550  -1.009  23.967  0.00  0.00    +0.168 C 
BRANCH  24   5
ATOM      5  O   UNL     1      -3.319  -2.377  24.282  0.00  0.00    -0.382 OA
ATOM     26  C   UNL     1      -1.961  -2.610  24.627  0.00  0.00    +0.194 C 
ENDBRANCH  24   5
ENDBRANCH  23  24
ENDBRANCH  20  23
TORSDOF 6
ENDMDL
MODEL 2
REMARK VINA RESULT:       1.8      2.973      5.079
REMARK  Name = 7051289
REMARK  7 active torsions:
REMARK  status: ('A' for Active; 'I' for Inactive)
REMARK    1  A    between atoms: S_2  and  N_10
REMARK    2  A    between atoms: S_2  and  C_25
REMARK    3  A    between atoms: O_5  and  C_24
REMARK    4  A    between atoms: O_5  and  C_26
REMARK    5  A    between atoms: N_10  and  C_21
REMARK    6  A    between atoms: C_20  and  C_23
REMARK    7  A    between atoms: C_23  and  C_24
REMARK                            x       y       z     vdW  Elec       q    Type
REMARK                         _______ _______ _______ _____ _____    ______ ____
ROOT
ATOM      3  O   UNL     1      -3.403   0.499  22.299  0.00  0.00    -0.266 OA
ATOM      4  O   UNL     1       0.143   3.459  25.014  0.00  0.00    -0.276 OA
ATOM      8  N   UNL     1      -2.029   4.100  25.531  0.00  0.00    -0.300 N 
ATOM      9  N   UNL     1      -3.937   2.106  23.918  0.00  0.00    -0.310 N 
ATOM     11  C   UNL     1      -3.519   4.609  23.592  0.00  0.00    +0.027 C 
ATOM     12  C   UNL     1      -4.494   3.800  25.699  0.00  0.00    +0.054 C 
ATOM     13  C   UNL     1      -4.689   4.788  24.551  0.00  0.00    +0.018 C 
ATOM     14  C   UNL     1      -2.186   4.889  24.307  0.00  0.00    +0.113 C 
ATOM     15  C   UNL     1      -3.571   3.194  23.003  0.00  0.00    +0.130 C 
ATOM     16  C   UNL     1      -3.183   4.124  26.442  0.00  0.00    +0.117 C 
ATOM     17  C   UNL     1      -4.459   2.371  25.192  0.00  0.00    +0.027 A 
ATOM     18  C   UNL     1      -4.898   1.365  25.971  0.00  0.00    +0.024 A 
ATOM     19  C   UNL     1      -3.835   0.793  23.413  0.00  0.00    +0.274 A 
ATOM     20  C   UNL     1      -0.813   3.468  25.792  0.00  0.00    +0.218 C 
ATOM     21  C   UNL     1      -4.314  -0.274  24.327  0.00  0.00    +0.112 A 
ATOM     22  C   UNL     1      -4.823  -0.001  25.529  0.00  0.00    +0.031 A 
ENDROOT
BRANCH  21  10
ATOM     10  N   UNL     1      -4.252  -1.622  23.935  0.00  0.00    -0.211 N 
ATOM     32  H   UNL     1      -5.176  -2.077  23.920  0.00  0.00    +0.174 HD
BRANCH  10   2
ATOM      2  S   UNL     1      -3.015  -2.564  24.606  0.00  0.00    +0.072 S 
ATOM      6  O   UNL     1      -3.199  -2.660  26.042  0.00  0.00    -0.150 OA
ATOM      7  O   UNL     1      -2.829  -3.763  23.812  0.00  0.00    -0.150 OA
BRANCH   2  25
ATOM      1 CL   UNL     1       1.936   1.128  23.605  0.00  0.00    -0.084 Cl
ATOM     25  C   UNL     1      -1.615  -1.520  24.323  0.00  0.00    +0.109 A 
ATOM     27  C   UNL     1      -1.265  -0.587  25.282  0.00  0.00    +0.030 A 
ATOM     28  C   UNL     1      -0.898  -1.658  23.148  0.00  0.00    +0.030 A 
ATOM     29  C   UNL     1      -0.161   0.236  25.059  0.00  0.00    +0.022 A 
ATOM     30  C   UNL     1       0.206  -0.835  22.925  0.00  0.00    +0.022 A 
ATOM     31  C   UNL     1       0.575   0.112  23.881  0.00  0.00    +0.041 A 
ENDBRANCH   2  25
ENDBRANCH  10   2
ENDBRANCH  21  10
BRANCH  20  23
ATOM     23  C   UNL     1      -0.694   2.753  27.114  0.00  0.00    +0.124 C 
BRANCH  23  24
ATOM     24  C   UNL     1       0.766   2.622  27.489  0.00  0.00    +0.168 C 
BRANCH  24   5
ATOM      5  O   UNL     1       0.875   2.309  28.872  0.00  0.00    -0.382 OA
ATOM     26  C   UNL     1       2.180   2.575  29.366  0.00  0.00    +0.194 C 
ENDBRANCH  24   5
ENDBRANCH  23  24
ENDBRANCH  20  23
TORSDOF 6
ENDMDL
MODEL 3
REMARK VINA RESULT:       4.4      3.053      3.610
REMARK  Name = 7051289
REMARK  7 active torsions:
REMARK  status: ('A' for Active; 'I' for Inactive)
REMARK    1  A    between atoms: S_2  and  N_10
REMARK    2  A    between atoms: S_2  and  C_25
REMARK    3  A    between atoms: O_5  and  C_24
REMARK    4  A    between atoms: O_5  and  C_26
REMARK    5  A    between atoms: N_10  and  C_21
REMARK    6  A    between atoms: C_20  and  C_23
REMARK    7  A    between atoms: C_23  and  C_24
REMARK                            x       y       z     vdW  Elec       q    Type
REMARK                         _______ _______ _______ _____ _____    ______ ____
ROOT
ATOM      3  O   UNL     1      -0.175   2.596  26.290  0.00  0.00    -0.266 OA
ATOM      4  O   UNL     1      -5.089   0.514  26.776  0.00  0.00    -0.276 OA
ATOM      8  N   UNL     1      -5.085   2.265  25.249  0.00  0.00    -0.300 N 
ATOM      9  N   UNL     1      -2.045   3.226  25.027  0.00  0.00    -0.310 N 
ATOM     11  C   UNL     1      -4.077   4.411  26.036  0.00  0.00    +0.027 C 
ATOM     12  C   UNL     1      -4.052   3.858  23.639  0.00  0.00    +0.054 C 
ATOM     13  C   UNL     1      -4.255   4.994  24.639  0.00  0.00    +0.018 C 
ATOM     14  C   UNL     1      -5.104   3.295  26.290  0.00  0.00    +0.113 C 
ATOM     15  C   UNL     1      -2.635   3.910  26.184  0.00  0.00    +0.130 C 
ATOM     16  C   UNL     1      -5.121   2.771  23.869  0.00  0.00    +0.117 C 
ATOM     17  C   UNL     1      -2.667   3.253  23.771  0.00  0.00    +0.027 A 
ATOM     18  C   UNL     1      -2.056   2.721  22.697  0.00  0.00    +0.024 A 
ATOM     19  C   UNL     1      -0.779   2.635  25.219  0.00  0.00    +0.274 A 
ATOM     20  C   UNL     1      -5.120   0.918  25.612  0.00  0.00    +0.218 C 
ATOM     21  C   UNL     1      -0.166   2.046  24.002  0.00  0.00    +0.112 A 
ATOM     22  C   UNL     1      -0.766   2.096  22.812  0.00  0.00    +0.031 A 
ENDROOT
BRANCH  21  10
ATOM     10  N   UNL     1       1.090   1.420  24.074  0.00  0.00    -0.211 N 
ATOM     32  H   UNL     1       1.870   2.063  23.871  0.00  0.00    +0.174 HD
BRANCH  10   2
ATOM      2  S   UNL     1       1.234  -0.107  23.356  0.00  0.00    +0.072 S 
ATOM      6  O   UNL     1       0.858  -0.026  21.958  0.00  0.00    -0.150 OA
ATOM      7  O   UNL     1       2.495  -0.710  23.741  0.00  0.00    -0.150 OA
BRANCH   2  25
ATOM      1 CL   UNL     1      -3.309  -3.221  26.327  0.00  0.00    -0.084 Cl
ATOM     25  C   UNL     1      -0.051  -0.987  24.197  0.00  0.00    +0.109 A 
ATOM     27  C   UNL     1      -0.568  -2.136  23.623  0.00  0.00    +0.030 A 
ATOM     28  C   UNL     1      -0.513  -0.510  25.410  0.00  0.00    +0.030 A 
ATOM     29  C   UNL     1      -1.581  -2.829  24.285  0.00  0.00    +0.022 A 
ATOM     30  C   UNL     1      -1.526  -1.204  26.072  0.00  0.00    +0.022 A 
ATOM     31  C   UNL     1      -2.059  -2.364  25.510  0.00  0.00    +0.041 A 
ENDBRANCH   2  25
ENDBRANCH  10   2
ENDBRANCH  21  10
BRANCH  20  23
ATOM     23  C   UNL     1      -5.192  -0.082  24.486  0.00  0.00    +0.124 C 
BRANCH  23  24
ATOM     24  C   UNL     1      -3.849  -0.162  23.794  0.00  0.00    +0.168 C 
BRANCH  24   5
ATOM      5  O   UNL     1      -3.839  -1.270  22.903  0.00  0.00    -0.382 OA
ATOM     26  C   UNL     1      -4.645  -2.336  23.386  0.00  0.00    +0.194 C 
ENDBRANCH  24   5
ENDBRANCH  23  24
ENDBRANCH  20  23
TORSDOF 6
ENDMDL
MODEL 4
REMARK VINA RESULT:       4.9      1.022      1.463
REMARK  Name = 7051289
REMARK  7 active torsions:
REMARK  status: ('A' for Active; 'I' for Inactive)
REMARK    1  A    between atoms: S_2  and  N_10
REMARK    2  A    between atoms: S_2  and  C_25
REMARK    3  A    between atoms: O_5  and  C_24
REMARK    4  A    between atoms: O_5  and  C_26
REMARK    5  A    between atoms: N_10  and  C_21
REMARK    6  A    between atoms: C_20  and  C_23
REMARK    7  A    between atoms: C_23  and  C_24
REMARK                            x       y       z     vdW  Elec       q    Type
REMARK                         _______ _______ _______ _____ _____    ______ ____
ROOT
ATOM      3  O   UNL     1      -0.452   1.971  26.573  0.00  0.00    -0.266 OA
ATOM      4  O   UNL     1      -5.785   1.553  26.886  0.00  0.00    -0.276 OA
ATOM      8  N   UNL     1      -5.175   3.077  25.243  0.00  0.00    -0.300 N 
ATOM      9  N   UNL     1      -1.981   3.033  25.150  0.00  0.00    -0.310 N 
ATOM     11  C   UNL     1      -3.579   4.868  25.938  0.00  0.00    +0.027 C 
ATOM     12  C   UNL     1      -3.634   4.127  23.594  0.00  0.00    +0.054 C 
ATOM     13  C   UNL     1      -3.512   5.354  24.496  0.00  0.00    +0.018 C 
ATOM     14  C   UNL     1      -4.913   4.150  26.204  0.00  0.00    +0.113 C 
ATOM     15  C   UNL     1      -2.373   3.964  26.215  0.00  0.00    +0.130 C 
ATOM     16  C   UNL     1      -4.997   3.446  23.830  0.00  0.00    +0.117 C 
ATOM     17  C   UNL     1      -2.513   3.140  23.858  0.00  0.00    +0.027 A 
ATOM     18  C   UNL     1      -2.056   2.354  22.866  0.00  0.00    +0.024 A 
ATOM     19  C   UNL     1      -0.970   2.100  25.464  0.00  0.00    +0.274 A 
ATOM     20  C   UNL     1      -5.643   1.843  25.697  0.00  0.00    +0.218 C 
ATOM     21  C   UNL     1      -0.524   1.247  24.335  0.00  0.00    +0.112 A 
ATOM     22  C   UNL     1      -1.032   1.375  23.108  0.00  0.00    +0.031 A 
ENDROOT
BRANCH  21  10
ATOM     10  N   UNL     1       0.470   0.274  24.532  0.00  0.00    -0.211 N 
ATOM     32  H   UNL     1       1.246   0.609  25.121  0.00  0.00    +0.174 HD
BRANCH  10   2
ATOM      2  S   UNL     1       0.951  -0.623  23.179  0.00  0.00    +0.072 S 
ATOM      6  O   UNL     1       0.674  -2.029  23.401  0.00  0.00    -0.150 OA
ATOM      7  O   UNL     1       0.487   0.031  21.970  0.00  0.00    -0.150 OA
BRANCH   2  25
ATOM      1 CL   UNL     1       7.159   0.117  23.436  0.00  0.00    -0.084 Cl
ATOM     25  C   UNL     1       2.706  -0.414  23.252  0.00  0.00    +0.109 A 
ATOM     27  C   UNL     1       3.265   0.764  22.787  0.00  0.00    +0.030 A 
ATOM     28  C   UNL     1       3.486  -1.431  23.772  0.00  0.00    +0.030 A 
ATOM     29  C   UNL     1       4.649   0.928  22.844  0.00  0.00    +0.022 A 
ATOM     30  C   UNL     1       4.870  -1.267  23.829  0.00  0.00    +0.022 A 
ATOM     31  C   UNL     1       5.451  -0.087  23.366  0.00  0.00    +0.041 A 
ENDBRANCH   2  25
ENDBRANCH  10   2
ENDBRANCH  21  10
BRANCH  20  23
ATOM     23  C   UNL     1      -5.979   0.819  24.642  0.00  0.00    +0.124 C 
BRANCH  23  24
ATOM     24  C   UNL     1      -5.152  -0.428  24.867  0.00  0.00    +0.168 C 
BRANCH  24   5
ATOM      5  O   UNL     1      -3.837  -0.223  24.365  0.00  0.00    -0.382 OA
ATOM     26  C   UNL     1      -3.423  -1.297  23.532  0.00  0.00    +0.194 C 
ENDBRANCH  24   5
ENDBRANCH  23  24
ENDBRANCH  20  23
TORSDOF 6
ENDMDL
