MODEL 1
REMARK VINA RESULT:      10.2      0.000      0.000
REMARK  Name = 11882466
REMARK  11 active torsions:
REMARK  status: ('A' for Active; 'I' for Inactive)
REMARK    1  A    between atoms: N_8  and  C_15
REMARK    2  A    between atoms: N_9  and  C_23
REMARK    3  A    between atoms: N_10  and  C_31
REMARK    4  A    between atoms: C_16  and  C_20
REMARK    5  A    between atoms: C_21  and  C_22
REMARK    6  A    between atoms: C_23  and  C_25
REMARK    7  A    between atoms: C_23  and  C_28
REMARK    8  A    between atoms: C_24  and  C_27
REMARK    9  A    between atoms: C_25  and  C_30
REMARK   10  A    between atoms: C_29  and  C_33
REMARK   11  A    between atoms: C_32  and  C_35
REMARK                            x       y       z     vdW  Elec       q    Type
REMARK                         _______ _______ _______ _____ _____    ______ ____
ROOT
ATOM      4  O   UNL     1      -2.397   0.174  26.345  0.00  0.00    -0.268 OA
ATOM      7  N   UNL     1      -1.002   0.278  24.491  0.00  0.00    -0.285 N 
ATOM     15  C   UNL     1       1.588   1.049  23.368  0.00  0.00    +0.077 C 
ATOM     16  C   UNL     1      -0.333   1.486  24.992  0.00  0.00    +0.164 C 
ATOM     17  C   UNL     1       1.179   1.490  24.775  0.00  0.00    +0.054 C 
ATOM     18  C   UNL     1       0.932  -0.288  23.031  0.00  0.00    +0.041 C 
ATOM     19  C   UNL     1      -0.584  -0.210  23.166  0.00  0.00    +0.111 C 
ATOM     21  C   UNL     1      -2.076  -0.261  25.237  0.00  0.00    +0.265 C 
ENDROOT
BRANCH  21  22
ATOM     10  N   UNL     1      -2.357  -2.649  24.533  0.00  0.00    -0.262 N 
ATOM     11  N   UNL     1      -3.233  -3.487  23.953  0.00  0.00    -0.176 NA
ATOM     22  C   UNL     1      -2.815  -1.373  24.648  0.00  0.00    +0.123 A 
ATOM     26  C   UNL     1      -4.074  -1.369  24.108  0.00  0.00    +0.057 A 
ATOM     29  C   UNL     1      -4.281  -2.699  23.696  0.00  0.00    +0.061 A 
ATOM     31  C   UNL     1      -1.073  -3.154  24.961  0.00  0.00    +0.173 C 
ATOM     33  C   UNL     1      -5.477  -3.261  23.047  0.00  0.00    +0.067 C 
ENDBRANCH  21  22
BRANCH  16  20
ATOM      3  O   UNL     1      -0.751   2.971  23.168  0.00  0.00    -0.274 OA
ATOM      9  N   UNL     1      -1.892   3.298  25.171  0.00  0.00    -0.302 N 
ATOM     20  C   UNL     1      -1.006   2.651  24.327  0.00  0.00    +0.234 C 
ATOM     39  H   UNL     1      -1.962   2.993  26.138  0.00  0.00    +0.150 HD
BRANCH   9  23
ATOM     23  C   UNL     1      -2.650   4.464  24.778  0.00  0.00    +0.163 C 
BRANCH  23  28
ATOM      6  O   UNL     1      -2.158   6.773  25.354  0.00  0.00    -0.274 OA
ATOM     12  N   UNL     1      -0.419   5.390  24.774  0.00  0.00    -0.328 N 
ATOM     28  C   UNL     1      -1.750   5.673  24.989  0.00  0.00    +0.231 C 
ATOM     40  H   UNL     1      -0.094   4.476  24.475  0.00  0.00    +0.145 HD
ATOM     41  H   UNL     1       0.292   6.105  24.896  0.00  0.00    +0.145 HD
ENDBRANCH  23  28
BRANCH  23  25
ATOM     25  C   UNL     1      -3.945   4.613  25.585  0.00  0.00    +0.074 C 
BRANCH  25  30
ATOM      2  S   UNL     1      -4.688   2.385  24.136  0.00  0.00    -0.102 S 
ATOM     30  C   UNL     1      -4.819   3.383  25.502  0.00  0.00    -0.008 A 
ATOM     34  C   UNL     1      -5.732   2.957  26.413  0.00  0.00    +0.011 A 
ATOM     36  C   UNL     1      -6.360   1.753  25.981  0.00  0.00    +0.008 A 
ATOM     37  C   UNL     1      -5.886   1.331  24.759  0.00  0.00    +0.045 A 
ENDBRANCH  25  30
ENDBRANCH  23  25
ENDBRANCH   9  23
ENDBRANCH  16  20
BRANCH  15   8
ATOM      5  O   UNL     1       3.120  -1.293  23.713  0.00  0.00    -0.270 OA
ATOM      8  N   UNL     1       3.024   0.957  23.257  0.00  0.00    -0.308 N 
ATOM     24  C   UNL     1       3.708  -0.244  23.443  0.00  0.00    +0.254 C 
ATOM     38  H   UNL     1       3.544   1.785  22.981  0.00  0.00    +0.149 HD
BRANCH  24  27
ATOM      1  S   UNL     1       5.891  -1.048  22.002  0.00  0.00    +0.041 S 
ATOM     13  N   UNL     1       7.399   0.287  23.494  0.00  0.00    -0.146 NA
ATOM     14  N   UNL     1       7.417  -0.513  22.440  0.00  0.00    -0.110 NA
ATOM     27  C   UNL     1       5.166  -0.186  23.265  0.00  0.00    +0.117 A 
ATOM     32  C   UNL     1       6.110   0.474  23.967  0.00  0.00    +0.081 A 
ATOM     35  C   UNL     1       5.918   1.344  25.145  0.00  0.00    +0.069 C 
ENDBRANCH  24  27
ENDBRANCH  15   8
TORSDOF 8
ENDMDL
MODEL 2
REMARK VINA RESULT:      14.1      1.709      4.807
REMARK  Name = 11882466
REMARK  11 active torsions:
REMARK  status: ('A' for Active; 'I' for Inactive)
REMARK    1  A    between atoms: N_8  and  C_15
REMARK    2  A    between atoms: N_9  and  C_23
REMARK    3  A    between atoms: N_10  and  C_31
REMARK    4  A    between atoms: C_16  and  C_20
REMARK    5  A    between atoms: C_21  and  C_22
REMARK    6  A    between atoms: C_23  and  C_25
REMARK    7  A    between atoms: C_23  and  C_28
REMARK    8  A    between atoms: C_24  and  C_27
REMARK    9  A    between atoms: C_25  and  C_30
REMARK   10  A    between atoms: C_29  and  C_33
REMARK   11  A    between atoms: C_32  and  C_35
REMARK                            x       y       z     vdW  Elec       q    Type
REMARK                         _______ _______ _______ _____ _____    ______ ____
ROOT
ATOM      4  O   UNL     1      -2.606   1.994  22.529  0.00  0.00    -0.268 OA
ATOM      7  N   UNL     1      -0.724   1.505  23.798  0.00  0.00    -0.285 N 
ATOM     15  C   UNL     1       1.957   0.337  23.923  0.00  0.00    +0.077 C 
ATOM     16  C   UNL     1      -0.421   0.315  22.993  0.00  0.00    +0.164 C 
ATOM     17  C   UNL     1       1.067   0.131  22.695  0.00  0.00    +0.054 C 
ATOM     18  C   UNL     1       1.633   1.676  24.582  0.00  0.00    +0.041 C 
ATOM     19  C   UNL     1       0.156   1.768  24.950  0.00  0.00    +0.111 C 
ATOM     21  C   UNL     1      -1.893   2.243  23.504  0.00  0.00    +0.265 C 
ENDROOT
BRANCH  21  22
ATOM     10  N   UNL     1      -1.572   4.510  24.521  0.00  0.00    -0.262 N 
ATOM     11  N   UNL     1      -2.103   5.351  25.424  0.00  0.00    -0.176 NA
ATOM     22  C   UNL     1      -2.247   3.334  24.406  0.00  0.00    +0.123 A 
ATOM     26  C   UNL     1      -3.291   3.404  25.291  0.00  0.00    +0.057 A 
ATOM     29  C   UNL     1      -3.153   4.670  25.892  0.00  0.00    +0.061 A 
ATOM     31  C   UNL     1      -0.392   4.911  23.790  0.00  0.00    +0.173 C 
ATOM     33  C   UNL     1      -4.013   5.270  26.925  0.00  0.00    +0.067 C 
ENDBRANCH  21  22
BRANCH  16  20
ATOM      3  O   UNL     1      -0.545  -1.991  23.608  0.00  0.00    -0.274 OA
ATOM      9  N   UNL     1      -2.086  -0.499  24.513  0.00  0.00    -0.302 N 
ATOM     20  C   UNL     1      -1.001  -0.857  23.731  0.00  0.00    +0.234 C 
ATOM     39  H   UNL     1      -2.427   0.457  24.473  0.00  0.00    +0.150 HD
BRANCH   9  23
ATOM     23  C   UNL     1      -2.836  -1.447  25.305  0.00  0.00    +0.163 C 
BRANCH  23  28
ATOM      6  O   UNL     1      -4.347  -1.902  23.456  0.00  0.00    -0.274 OA
ATOM     12  N   UNL     1      -3.332  -3.674  24.508  0.00  0.00    -0.328 N 
ATOM     28  C   UNL     1      -3.602  -2.334  24.333  0.00  0.00    +0.231 C 
ATOM     40  H   UNL     1      -2.712  -4.017  25.235  0.00  0.00    +0.145 HD
ATOM     41  H   UNL     1      -3.766  -4.374  23.914  0.00  0.00    +0.145 HD
ENDBRANCH  23  28
BRANCH  23  25
ATOM     25  C   UNL     1      -3.802  -0.757  26.275  0.00  0.00    +0.074 C 
BRANCH  25  30
ATOM      2  S   UNL     1      -5.769   1.163  26.523  0.00  0.00    -0.102 S 
ATOM     30  C   UNL     1      -4.673   0.268  25.587  0.00  0.00    -0.008 A 
ATOM     34  C   UNL     1      -4.695   0.577  24.264  0.00  0.00    +0.011 A 
ATOM     36  C   UNL     1      -5.652   1.598  23.994  0.00  0.00    +0.008 A 
ATOM     37  C   UNL     1      -6.308   2.007  25.134  0.00  0.00    +0.045 A 
ENDBRANCH  25  30
ENDBRANCH  23  25
ENDBRANCH   9  23
ENDBRANCH  16  20
BRANCH  15   8
ATOM      5  O   UNL     1       3.625  -1.920  24.197  0.00  0.00    -0.270 OA
ATOM      8  N   UNL     1       3.353   0.270  23.560  0.00  0.00    -0.308 N 
ATOM     24  C   UNL     1       4.110  -0.888  23.728  0.00  0.00    +0.254 C 
ATOM     38  H   UNL     1       3.777   1.081  23.117  0.00  0.00    +0.149 HD
BRANCH  24  27
ATOM      1  S   UNL     1       6.167  -2.074  22.369  0.00  0.00    +0.041 S 
ATOM     13  N   UNL     1       7.664  -0.132  22.888  0.00  0.00    -0.146 NA
ATOM     14  N   UNL     1       7.650  -1.300  22.267  0.00  0.00    -0.110 NA
ATOM     27  C   UNL     1       5.507  -0.811  23.280  0.00  0.00    +0.117 A 
ATOM     32  C   UNL     1       6.437   0.148  23.469  0.00  0.00    +0.081 A 
ATOM     35  C   UNL     1       6.288   1.420  24.206  0.00  0.00    +0.069 C 
ENDBRANCH  24  27
ENDBRANCH  15   8
TORSDOF 8
ENDMDL
