MODEL 1
REMARK VINA RESULT:      -0.3      0.000      0.000
REMARK  Name = 26742298
REMARK  6 active torsions:
REMARK  status: ('A' for Active; 'I' for Inactive)
REMARK    1  A    between atoms: O_3  and  C_21
REMARK    2  A    between atoms: O_3  and  C_27
REMARK    3  A    between atoms: O_4  and  C_28
REMARK    4  A    between atoms: C_15  and  C_20
REMARK    5  A    between atoms: C_17  and  C_21
REMARK    6  A    between atoms: C_27  and  C_28
REMARK                            x       y       z     vdW  Elec       q    Type
REMARK                         _______ _______ _______ _____ _____    ______ ____
ROOT
ATOM      1  O   UNL     1      -3.642   4.026  21.147  0.00  0.00    -0.268 OA
ATOM      2  O   UNL     1      -0.658   5.098  25.353  0.00  0.00    -0.273 OA
ATOM      6  N   UNL     1      -2.235   3.482  25.903  0.00  0.00    -0.299 N 
ATOM      7  N   UNL     1      -3.775   2.878  23.184  0.00  0.00    -0.311 N 
ATOM      8  C   UNL     1      -4.595   4.031  25.323  0.00  0.00    +0.027 C 
ATOM      9  C   UNL     1      -3.876   1.682  25.393  0.00  0.00    +0.054 C 
ATOM     10  C   UNL     1      -5.020   2.632  25.741  0.00  0.00    +0.018 C 
ATOM     11  C   UNL     1      -3.314   4.457  26.062  0.00  0.00    +0.113 C 
ATOM     12  C   UNL     1      -4.411   4.049  23.804  0.00  0.00    +0.130 C 
ATOM     13  C   UNL     1      -2.612   2.091  26.178  0.00  0.00    +0.117 C 
ATOM     14  C   UNL     1      -3.585   1.673  23.890  0.00  0.00    +0.034 A 
ATOM     15  C   UNL     1      -3.134   0.571  23.236  0.00  0.00    +0.002 A 
ATOM     16  C   UNL     1      -3.483   3.004  21.814  0.00  0.00    +0.252 A 
ATOM     17  C   UNL     1      -0.951   3.921  25.581  0.00  0.00    +0.241 C 
ATOM     18  C   UNL     1      -2.819   0.664  21.824  0.00  0.00    +0.015 A 
ATOM     19  C   UNL     1      -2.959   1.797  21.137  0.00  0.00    +0.071 A 
ENDROOT
BRANCH  15  20
ATOM     20  C   UNL     1      -2.938  -0.722  23.930  0.00  0.00    -0.016 A 
ATOM     22  C   UNL     1      -3.978  -1.650  23.980  0.00  0.00    +0.008 A 
ATOM     23  C   UNL     1      -1.715  -1.012  24.532  0.00  0.00    +0.008 A 
ATOM     24  C   UNL     1      -3.794  -2.869  24.633  0.00  0.00    +0.001 A 
ATOM     25  C   UNL     1      -1.530  -2.231  25.185  0.00  0.00    +0.001 A 
ATOM     26  C   UNL     1      -2.570  -3.160  25.235  0.00  0.00    +0.000 A 
ENDBRANCH  15  20
BRANCH  17  21
ATOM     21  C   UNL     1       0.124   2.867  25.504  0.00  0.00    +0.256 C 
BRANCH  21   3
ATOM      3  O   UNL     1       0.193   2.458  24.159  0.00  0.00    -0.359 OA
BRANCH   3  27
ATOM     27  C   UNL     1       0.242   1.037  24.032  0.00  0.00    +0.280 C 
BRANCH  27  28
ATOM      5  O   UNL     1       1.324  -0.220  22.257  0.00  0.00    -0.248 OA
ATOM     28  C   UNL     1       1.368   0.648  23.116  0.00  0.00    +0.331 C 
BRANCH  28   4
ATOM      4  O   UNL     1       2.464   1.404  23.373  0.00  0.00    -0.479 OA
ATOM     29  H   UNL     1       2.422   2.274  22.923  0.00  0.00    +0.295 HD
ENDBRANCH  28   4
ENDBRANCH  27  28
ENDBRANCH   3  27
ENDBRANCH  21   3
ENDBRANCH  17  21
TORSDOF 6
ENDMDL
MODEL 2
REMARK VINA RESULT:      -0.2      2.312      4.665
REMARK  Name = 26742298
REMARK  6 active torsions:
REMARK  status: ('A' for Active; 'I' for Inactive)
REMARK    1  A    between atoms: O_3  and  C_21
REMARK    2  A    between atoms: O_3  and  C_27
REMARK    3  A    between atoms: O_4  and  C_28
REMARK    4  A    between atoms: C_15  and  C_20
REMARK    5  A    between atoms: C_17  and  C_21
REMARK    6  A    between atoms: C_27  and  C_28
REMARK                            x       y       z     vdW  Elec       q    Type
REMARK                         _______ _______ _______ _____ _____    ______ ____
ROOT
ATOM      1  O   UNL     1      -2.418   4.241  27.168  0.00  0.00    -0.268 OA
ATOM      2  O   UNL     1      -5.371   0.129  25.714  0.00  0.00    -0.273 OA
ATOM      6  N   UNL     1      -4.067   0.829  23.922  0.00  0.00    -0.299 N 
ATOM      7  N   UNL     1      -2.259   3.174  25.089  0.00  0.00    -0.311 N 
ATOM      8  C   UNL     1      -4.176   3.259  23.388  0.00  0.00    +0.027 C 
ATOM      9  C   UNL     1      -2.134   1.993  22.873  0.00  0.00    +0.054 C 
ATOM     10  C   UNL     1      -3.075   3.079  22.355  0.00  0.00    +0.018 C 
ATOM     11  C   UNL     1      -4.952   1.947  23.595  0.00  0.00    +0.113 C 
ATOM     12  C   UNL     1      -3.546   3.762  24.688  0.00  0.00    +0.130 C 
ATOM     13  C   UNL     1      -2.913   0.671  23.029  0.00  0.00    +0.117 C 
ATOM     14  C   UNL     1      -1.491   2.390  24.205  0.00  0.00    +0.034 A 
ATOM     15  C   UNL     1      -0.243   1.994  24.564  0.00  0.00    +0.002 A 
ATOM     16  C   UNL     1      -1.796   3.547  26.363  0.00  0.00    +0.252 A 
ATOM     17  C   UNL     1      -4.395  -0.025  24.975  0.00  0.00    +0.241 C 
ATOM     18  C   UNL     1       0.267   2.356  25.871  0.00  0.00    +0.015 A 
ATOM     19  C   UNL     1      -0.446   3.071  26.741  0.00  0.00    +0.071 A 
ENDROOT
BRANCH  15  20
ATOM     20  C   UNL     1       0.609   1.187  23.661  0.00  0.00    -0.016 A 
ATOM     22  C   UNL     1       1.970   1.467  23.553  0.00  0.00    +0.008 A 
ATOM     23  C   UNL     1       0.050   0.145  22.922  0.00  0.00    +0.008 A 
ATOM     24  C   UNL     1       2.774   0.706  22.704  0.00  0.00    +0.001 A 
ATOM     25  C   UNL     1       0.853  -0.617  22.073  0.00  0.00    +0.001 A 
ATOM     26  C   UNL     1       2.215  -0.337  21.964  0.00  0.00    +0.000 A 
ENDBRANCH  15  20
BRANCH  17  21
ATOM     21  C   UNL     1      -3.474  -1.196  25.207  0.00  0.00    +0.256 C 
BRANCH  21   3
ATOM      3  O   UNL     1      -2.774  -0.928  26.399  0.00  0.00    -0.359 OA
BRANCH   3  27
ATOM     27  C   UNL     1      -1.381  -0.722  26.167  0.00  0.00    +0.280 C 
BRANCH  27  28
ATOM      5  O   UNL     1      -1.431  -2.560  24.579  0.00  0.00    -0.248 OA
ATOM     28  C   UNL     1      -0.819  -1.877  25.387  0.00  0.00    +0.331 C 
BRANCH  28   4
ATOM      4  O   UNL     1       0.487  -2.064  25.703  0.00  0.00    -0.479 OA
ATOM     29  H   UNL     1       1.083  -1.799  24.970  0.00  0.00    +0.295 HD
ENDBRANCH  28   4
ENDBRANCH  27  28
ENDBRANCH   3  27
ENDBRANCH  21   3
ENDBRANCH  17  21
TORSDOF 6
ENDMDL
MODEL 3
REMARK VINA RESULT:       0.6      1.747      2.362
REMARK  Name = 26742298
REMARK  6 active torsions:
REMARK  status: ('A' for Active; 'I' for Inactive)
REMARK    1  A    between atoms: O_3  and  C_21
REMARK    2  A    between atoms: O_3  and  C_27
REMARK    3  A    between atoms: O_4  and  C_28
REMARK    4  A    between atoms: C_15  and  C_20
REMARK    5  A    between atoms: C_17  and  C_21
REMARK    6  A    between atoms: C_27  and  C_28
REMARK                            x       y       z     vdW  Elec       q    Type
REMARK                         _______ _______ _______ _____ _____    ______ ____
ROOT
ATOM      1  O   UNL     1      -3.639   4.070  21.213  0.00  0.00    -0.268 OA
ATOM      2  O   UNL     1      -0.664   5.008  25.457  0.00  0.00    -0.273 OA
ATOM      6  N   UNL     1      -2.245   3.379  25.954  0.00  0.00    -0.299 N 
ATOM      7  N   UNL     1      -3.779   2.860  23.214  0.00  0.00    -0.311 N 
ATOM      8  C   UNL     1      -4.602   3.949  25.385  0.00  0.00    +0.027 C 
ATOM      9  C   UNL     1      -3.887   1.598  25.386  0.00  0.00    +0.054 C 
ATOM     10  C   UNL     1      -5.031   2.539  25.759  0.00  0.00    +0.018 C 
ATOM     11  C   UNL     1      -3.323   4.350  26.140  0.00  0.00    +0.113 C 
ATOM     12  C   UNL     1      -4.414   4.013  23.868  0.00  0.00    +0.130 C 
ATOM     13  C   UNL     1      -2.625   1.980  26.186  0.00  0.00    +0.117 C 
ATOM     14  C   UNL     1      -3.593   1.634  23.883  0.00  0.00    +0.034 A 
ATOM     15  C   UNL     1      -3.142   0.552  23.198  0.00  0.00    +0.002 A 
ATOM     16  C   UNL     1      -3.483   3.027  21.850  0.00  0.00    +0.252 A 
ATOM     17  C   UNL     1      -0.959   3.826  25.648  0.00  0.00    +0.241 C 
ATOM     18  C   UNL     1      -2.823   0.687  21.790  0.00  0.00    +0.015 A 
ATOM     19  C   UNL     1      -2.960   1.840  21.137  0.00  0.00    +0.071 A 
ENDROOT
BRANCH  15  20
ATOM     20  C   UNL     1      -2.950  -0.762  23.853  0.00  0.00    -0.016 A 
ATOM     22  C   UNL     1      -4.006  -1.671  23.914  0.00  0.00    +0.008 A 
ATOM     23  C   UNL     1      -1.714  -1.091  24.407  0.00  0.00    +0.008 A 
ATOM     24  C   UNL     1      -3.826  -2.909  24.529  0.00  0.00    +0.001 A 
ATOM     25  C   UNL     1      -1.532  -2.330  25.023  0.00  0.00    +0.001 A 
ATOM     26  C   UNL     1      -2.588  -3.239  25.084  0.00  0.00    +0.000 A 
ENDBRANCH  15  20
BRANCH  17  21
ATOM     21  C   UNL     1       0.114   2.772  25.543  0.00  0.00    +0.256 C 
BRANCH  21   3
ATOM      3  O   UNL     1       0.976   2.964  26.639  0.00  0.00    -0.359 OA
BRANCH   3  27
ATOM     27  C   UNL     1       0.480   2.344  27.825  0.00  0.00    +0.280 C 
BRANCH  27  28
ATOM      5  O   UNL     1       1.272   2.332  30.122  0.00  0.00    -0.248 OA
ATOM     28  C   UNL     1       1.492   2.476  28.928  0.00  0.00    +0.331 C 
BRANCH  28   4
ATOM      4  O   UNL     1       2.710   2.780  28.413  0.00  0.00    -0.479 OA
ATOM     29  H   UNL     1       3.115   2.014  27.954  0.00  0.00    +0.295 HD
ENDBRANCH  28   4
ENDBRANCH  27  28
ENDBRANCH   3  27
ENDBRANCH  21   3
ENDBRANCH  17  21
TORSDOF 6
ENDMDL
MODEL 4
REMARK VINA RESULT:       1.5      1.726      3.152
REMARK  Name = 26742298
REMARK  6 active torsions:
REMARK  status: ('A' for Active; 'I' for Inactive)
REMARK    1  A    between atoms: O_3  and  C_21
REMARK    2  A    between atoms: O_3  and  C_27
REMARK    3  A    between atoms: O_4  and  C_28
REMARK    4  A    between atoms: C_15  and  C_20
REMARK    5  A    between atoms: C_17  and  C_21
REMARK    6  A    between atoms: C_27  and  C_28
REMARK                            x       y       z     vdW  Elec       q    Type
REMARK                         _______ _______ _______ _____ _____    ______ ____
ROOT
ATOM      1  O   UNL     1      -2.989   4.803  24.083  0.00  0.00    -0.268 OA
ATOM      2  O   UNL     1       1.762   2.687  23.247  0.00  0.00    -0.273 OA
ATOM      6  N   UNL     1       0.627   1.453  24.857  0.00  0.00    -0.299 N 
ATOM      7  N   UNL     1      -2.249   2.801  25.049  0.00  0.00    -0.311 N 
ATOM      8  C   UNL     1      -0.330   2.761  26.748  0.00  0.00    +0.027 C 
ATOM      9  C   UNL     1      -1.403   0.661  26.059  0.00  0.00    +0.054 C 
ATOM     10  C   UNL     1      -1.010   1.505  27.270  0.00  0.00    +0.018 C 
ATOM     11  C   UNL     1       0.922   2.404  25.928  0.00  0.00    +0.113 C 
ATOM     12  C   UNL     1      -1.344   3.558  25.926  0.00  0.00    +0.130 C 
ATOM     13  C   UNL     1      -0.134   0.269  25.273  0.00  0.00    +0.117 C 
ATOM     14  C   UNL     1      -2.384   1.402  25.147  0.00  0.00    +0.034 A 
ATOM     15  C   UNL     1      -3.339   0.762  24.424  0.00  0.00    +0.002 A 
ATOM     16  C   UNL     1      -3.054   3.578  24.197  0.00  0.00    +0.252 A 
ATOM     17  C   UNL     1       1.124   1.682  23.574  0.00  0.00    +0.241 C 
ATOM     18  C   UNL     1      -4.185   1.530  23.531  0.00  0.00    +0.015 A 
ATOM     19  C   UNL     1      -4.063   2.850  23.395  0.00  0.00    +0.071 A 
ENDROOT
BRANCH  15  20
ATOM     20  C   UNL     1      -3.531  -0.703  24.508  0.00  0.00    -0.016 A 
ATOM     22  C   UNL     1      -3.124  -1.394  25.649  0.00  0.00    +0.008 A 
ATOM     23  C   UNL     1      -4.120  -1.392  23.448  0.00  0.00    +0.008 A 
ATOM     24  C   UNL     1      -3.306  -2.775  25.730  0.00  0.00    +0.001 A 
ATOM     25  C   UNL     1      -4.302  -2.773  23.529  0.00  0.00    +0.001 A 
ATOM     26  C   UNL     1      -3.895  -3.464  24.670  0.00  0.00    +0.000 A 
ENDBRANCH  15  20
BRANCH  17  21
ATOM     21  C   UNL     1       0.840   0.622  22.540  0.00  0.00    +0.256 C 
BRANCH  21   3
ATOM      3  O   UNL     1       1.922  -0.278  22.577  0.00  0.00    -0.359 OA
BRANCH   3  27
ATOM     27  C   UNL     1       3.161   0.362  22.272  0.00  0.00    +0.280 C 
BRANCH  27  28
ATOM      5  O   UNL     1       5.089   0.711  23.708  0.00  0.00    -0.248 OA
ATOM     28  C   UNL     1       4.192  -0.011  23.300  0.00  0.00    +0.331 C 
BRANCH  28   4
ATOM      4  O   UNL     1       3.989  -1.284  23.726  0.00  0.00    -0.479 OA
ATOM     29  H   UNL     1       4.588  -1.919  23.280  0.00  0.00    +0.295 HD
ENDBRANCH  28   4
ENDBRANCH  27  28
ENDBRANCH   3  27
ENDBRANCH  21   3
ENDBRANCH  17  21
TORSDOF 6
ENDMDL
MODEL 5
REMARK VINA RESULT:       1.8      2.835      5.218
REMARK  Name = 26742298
REMARK  6 active torsions:
REMARK  status: ('A' for Active; 'I' for Inactive)
REMARK    1  A    between atoms: O_3  and  C_21
REMARK    2  A    between atoms: O_3  and  C_27
REMARK    3  A    between atoms: O_4  and  C_28
REMARK    4  A    between atoms: C_15  and  C_20
REMARK    5  A    between atoms: C_17  and  C_21
REMARK    6  A    between atoms: C_27  and  C_28
REMARK                            x       y       z     vdW  Elec       q    Type
REMARK                         _______ _______ _______ _____ _____    ______ ____
ROOT
ATOM      1  O   UNL     1      -0.635  -2.542  25.216  0.00  0.00    -0.268 OA
ATOM      2  O   UNL     1       1.637   2.042  26.470  0.00  0.00    -0.273 OA
ATOM      6  N   UNL     1      -0.048   2.404  24.911  0.00  0.00    -0.299 N 
ATOM      7  N   UNL     1      -1.377  -0.453  24.459  0.00  0.00    -0.311 N 
ATOM      8  C   UNL     1       0.040   0.978  22.871  0.00  0.00    +0.027 C 
ATOM      9  C   UNL     1      -2.126   1.815  23.675  0.00  0.00    +0.054 C 
ATOM     10  C   UNL     1      -1.298   1.544  22.421  0.00  0.00    +0.018 C 
ATOM     11  C   UNL     1       0.776   1.975  23.782  0.00  0.00    +0.113 C 
ATOM     12  C   UNL     1      -0.209  -0.359  23.571  0.00  0.00    +0.130 C 
ATOM     13  C   UNL     1      -1.400   2.853  24.555  0.00  0.00    +0.117 C 
ATOM     14  C   UNL     1      -2.384   0.532  24.471  0.00  0.00    +0.034 A 
ATOM     15  C   UNL     1      -3.516   0.332  25.193  0.00  0.00    +0.002 A 
ATOM     16  C   UNL     1      -1.477  -1.643  25.201  0.00  0.00    +0.252 A 
ATOM     17  C   UNL     1       0.497   2.426  26.195  0.00  0.00    +0.241 C 
ATOM     18  C   UNL     1      -3.654  -0.881  25.974  0.00  0.00    +0.015 A 
ATOM     19  C   UNL     1      -2.706  -1.818  26.007  0.00  0.00    +0.071 A 
ENDROOT
BRANCH  15  20
ATOM     20  C   UNL     1      -4.610   1.329  25.221  0.00  0.00    -0.016 A 
ATOM     22  C   UNL     1      -4.368   2.616  25.700  0.00  0.00    +0.008 A 
ATOM     23  C   UNL     1      -5.882   0.982  24.767  0.00  0.00    +0.008 A 
ATOM     24  C   UNL     1      -5.398   3.557  25.725  0.00  0.00    +0.001 A 
ATOM     25  C   UNL     1      -6.913   1.922  24.791  0.00  0.00    +0.001 A 
ATOM     26  C   UNL     1      -6.670   3.210  25.270  0.00  0.00    +0.000 A 
ENDBRANCH  15  20
BRANCH  17  21
ATOM     21  C   UNL     1      -0.391   2.947  27.297  0.00  0.00    +0.256 C 
BRANCH  21   3
ATOM      3  O   UNL     1      -0.072   2.211  28.453  0.00  0.00    -0.359 OA
BRANCH   3  27
ATOM     27  C   UNL     1       0.652   2.991  29.403  0.00  0.00    +0.280 C 
BRANCH  27  28
ATOM      5  O   UNL     1       2.184   1.584  30.659  0.00  0.00    -0.248 OA
ATOM     28  C   UNL     1       1.964   2.326  29.713  0.00  0.00    +0.331 C 
BRANCH  28   4
ATOM      4  O   UNL     1       2.892   2.662  28.781  0.00  0.00    -0.479 OA
ATOM     29  H   UNL     1       3.806   2.535  29.112  0.00  0.00    +0.295 HD
ENDBRANCH  28   4
ENDBRANCH  27  28
ENDBRANCH   3  27
ENDBRANCH  21   3
ENDBRANCH  17  21
TORSDOF 6
ENDMDL
MODEL 6
REMARK VINA RESULT:       2.7      2.639      4.969
REMARK  Name = 26742298
REMARK  6 active torsions:
REMARK  status: ('A' for Active; 'I' for Inactive)
REMARK    1  A    between atoms: O_3  and  C_21
REMARK    2  A    between atoms: O_3  and  C_27
REMARK    3  A    between atoms: O_4  and  C_28
REMARK    4  A    between atoms: C_15  and  C_20
REMARK    5  A    between atoms: C_17  and  C_21
REMARK    6  A    between atoms: C_27  and  C_28
REMARK                            x       y       z     vdW  Elec       q    Type
REMARK                         _______ _______ _______ _____ _____    ______ ____
ROOT
ATOM      1  O   UNL     1       1.020   2.577  27.548  0.00  0.00    -0.268 OA
ATOM      2  O   UNL     1      -3.310   5.331  26.360  0.00  0.00    -0.273 OA
ATOM      6  N   UNL     1      -2.850   3.822  24.655  0.00  0.00    -0.299 N 
ATOM      7  N   UNL     1      -0.330   2.168  25.677  0.00  0.00    -0.311 N 
ATOM      8  C   UNL     1      -0.523   3.867  23.766  0.00  0.00    +0.027 C 
ATOM      9  C   UNL     1      -1.813   1.777  23.686  0.00  0.00    +0.054 C 
ATOM     10  C   UNL     1      -0.829   2.649  22.909  0.00  0.00    +0.018 C 
ATOM     11  C   UNL     1      -1.806   4.661  24.066  0.00  0.00    +0.113 C 
ATOM     12  C   UNL     1       0.171   3.398  25.046  0.00  0.00    +0.130 C 
ATOM     13  C   UNL     1      -3.114   2.568  23.937  0.00  0.00    +0.117 C 
ATOM     14  C   UNL     1      -1.219   1.299  25.013  0.00  0.00    +0.034 A 
ATOM     15  C   UNL     1      -1.537   0.103  25.571  0.00  0.00    +0.002 A 
ATOM     16  C   UNL     1       0.229   1.862  26.931  0.00  0.00    +0.252 A 
ATOM     17  C   UNL     1      -3.550   4.273  25.773  0.00  0.00    +0.241 C 
ATOM     18  C   UNL     1      -0.982  -0.247  26.865  0.00  0.00    +0.015 A 
ATOM     19  C   UNL     1      -0.163   0.567  27.530  0.00  0.00    +0.071 A 
ENDROOT
BRANCH  15  20
ATOM     20  C   UNL     1      -2.450  -0.851  24.903  0.00  0.00    -0.016 A 
ATOM     22  C   UNL     1      -2.184  -2.220  24.950  0.00  0.00    +0.008 A 
ATOM     23  C   UNL     1      -3.576  -0.383  24.227  0.00  0.00    +0.008 A 
ATOM     24  C   UNL     1      -3.044  -3.120  24.322  0.00  0.00    +0.001 A 
ATOM     25  C   UNL     1      -4.437  -1.283  23.598  0.00  0.00    +0.001 A 
ATOM     26  C   UNL     1      -4.171  -2.651  23.645  0.00  0.00    +0.000 A 
ENDBRANCH  15  20
BRANCH  17  21
ATOM     21  C   UNL     1      -4.659   3.386  26.279  0.00  0.00    +0.256 C 
BRANCH  21   3
ATOM      3  O   UNL     1      -5.756   3.582  25.419  0.00  0.00    -0.359 OA
BRANCH   3  27
ATOM     27  C   UNL     1      -6.379   2.350  25.056  0.00  0.00    +0.280 C 
BRANCH  27  28
ATOM      5  O   UNL     1      -5.291   0.492  26.181  0.00  0.00    -0.248 OA
ATOM     28  C   UNL     1      -6.174   1.336  26.146  0.00  0.00    +0.331 C 
BRANCH  28   4
ATOM      4  O   UNL     1      -7.118   1.486  27.109  0.00  0.00    -0.479 OA
ATOM     29  H   UNL     1      -7.554   0.636  27.330  0.00  0.00    +0.295 HD
ENDBRANCH  28   4
ENDBRANCH  27  28
ENDBRANCH   3  27
ENDBRANCH  21   3
ENDBRANCH  17  21
TORSDOF 6
ENDMDL
