MODEL 1
REMARK VINA RESULT:       8.4      0.000      0.000
REMARK  Name = 7051070
REMARK  12 active torsions:
REMARK  status: ('A' for Active; 'I' for Inactive)
REMARK    1  A    between atoms: O_3  and  C_15
REMARK    2  A    between atoms: O_4  and  C_20
REMARK    3  A    between atoms: N_8  and  C_26
REMARK    4  A    between atoms: N_8  and  C_27
REMARK    5  A    between atoms: C_10  and  C_18
REMARK    6  A    between atoms: C_12  and  C_20
REMARK    7  A    between atoms: C_12  and  C_21
REMARK    8  A    between atoms: C_13  and  C_23
REMARK    9  A    between atoms: C_23  and  C_24
REMARK   10  A    between atoms: C_26  and  C_29
REMARK   11  A    between atoms: C_27  and  C_30
REMARK   12  A    between atoms: C_28  and  C_31
REMARK                            x       y       z     vdW  Elec       q    Type
REMARK                         _______ _______ _______ _____ _____    ______ ____
ROOT
ATOM      1  S   UNL     1       0.527   2.389  25.718  0.00  0.00    -0.057 S 
ATOM      6  O   UNL     1       2.041  -0.049  22.052  0.00  0.00    -0.270 OA
ATOM      7  N   UNL     1      -0.191   1.208  23.531  0.00  0.00    -0.229 NA
ATOM      9  N   UNL     1       2.154   1.140  24.084  0.00  0.00    -0.261 N 
ATOM     10  C   UNL     1      -3.853   1.927  24.497  0.00  0.00    -0.019 C 
ATOM     11  C   UNL     1      -3.470   3.269  25.263  0.00  0.00    +0.011 C 
ATOM     12  C   UNL     1      -4.630   4.012  26.031  0.00  0.00    +0.021 C 
ATOM     13  C   UNL     1      -2.682   1.599  23.461  0.00  0.00    +0.054 C 
ATOM     14  C   UNL     1      -5.165   2.147  23.697  0.00  0.00    +0.010 C 
ATOM     15  C   UNL     1      -5.877   4.105  25.106  0.00  0.00    +0.123 C 
ATOM     16  C   UNL     1      -2.174   3.091  26.107  0.00  0.00    +0.049 C 
ATOM     17  C   UNL     1      -6.291   2.761  24.517  0.00  0.00    +0.032 C 
ATOM     18  C   UNL     1      -4.049   0.724  25.451  0.00  0.00    +0.012 C 
ATOM     19  C   UNL     1      -1.329   1.733  24.112  0.00  0.00    +0.058 A 
ATOM     21  C   UNL     1      -4.180   5.467  26.346  0.00  0.00    +0.016 C 
ATOM     22  C   UNL     1      -1.121   2.422  25.289  0.00  0.00    +0.015 A 
ATOM     25  C   UNL     1       0.846   1.485  24.292  0.00  0.00    +0.165 A 
ATOM     28  C   UNL     1       2.669   0.410  23.000  0.00  0.00    +0.250 C 
ATOM     39  H   UNL     1       2.786   1.504  24.790  0.00  0.00    +0.157 HD
ENDROOT
BRANCH  28  31
ATOM      2  F   UNL     1       8.232  -0.359  23.045  0.00  0.00    -0.205 F 
ATOM     31  C   UNL     1       4.141   0.205  23.013  0.00  0.00    +0.037 A 
ATOM     32  C   UNL     1       4.782  -0.324  21.892  0.00  0.00    +0.016 A 
ATOM     33  C   UNL     1       4.883   0.543  24.145  0.00  0.00    +0.016 A 
ATOM     34  C   UNL     1       6.164  -0.515  21.903  0.00  0.00    +0.039 A 
ATOM     35  C   UNL     1       6.265   0.352  24.156  0.00  0.00    +0.039 A 
ATOM     36  C   UNL     1       6.906  -0.176  23.034  0.00  0.00    +0.123 A 
ENDBRANCH  28  31
BRANCH  15   3
ATOM      3  O   UNL     1      -6.988   4.657  25.814  0.00  0.00    -0.391 OA
ATOM     37  H   UNL     1      -6.652   5.374  26.377  0.00  0.00    +0.210 HD
ENDBRANCH  15   3
BRANCH  12  20
ATOM     20  C   UNL     1      -5.001   3.387  27.393  0.00  0.00    +0.165 C 
BRANCH  20   4
ATOM      4  O   UNL     1      -6.081   2.506  27.185  0.00  0.00    -0.394 OA
ATOM     38  H   UNL     1      -5.938   1.732  27.756  0.00  0.00    +0.209 HD
ENDBRANCH  20   4
ENDBRANCH  12  20
BRANCH  13  23
ATOM     23  C   UNL     1      -2.827   0.252  22.740  0.00  0.00    +0.106 C 
BRANCH  23  24
ATOM      5  O   UNL     1      -4.728  -0.848  23.701  0.00  0.00    -0.276 OA
ATOM      8  N   UNL     1      -2.637  -1.669  24.279  0.00  0.00    -0.302 N 
ATOM     24  C   UNL     1      -3.498  -0.794  23.609  0.00  0.00    +0.216 C 
BRANCH   8  26
ATOM     26  C   UNL     1      -3.124  -2.731  25.152  0.00  0.00    +0.104 C 
ATOM     29  C   UNL     1      -3.877  -3.789  24.371  0.00  0.00    +0.024 C 
ENDBRANCH   8  26
BRANCH   8  27
ATOM     27  C   UNL     1      -1.183  -1.585  24.155  0.00  0.00    +0.104 C 
ATOM     30  C   UNL     1      -0.506  -1.644  25.508  0.00  0.00    +0.024 C 
ENDBRANCH   8  27
ENDBRANCH  23  24
ENDBRANCH  13  23
TORSDOF 8
ENDMDL
MODEL 2
REMARK VINA RESULT:       9.8      0.839      1.559
REMARK  Name = 7051070
REMARK  12 active torsions:
REMARK  status: ('A' for Active; 'I' for Inactive)
REMARK    1  A    between atoms: O_3  and  C_15
REMARK    2  A    between atoms: O_4  and  C_20
REMARK    3  A    between atoms: N_8  and  C_26
REMARK    4  A    between atoms: N_8  and  C_27
REMARK    5  A    between atoms: C_10  and  C_18
REMARK    6  A    between atoms: C_12  and  C_20
REMARK    7  A    between atoms: C_12  and  C_21
REMARK    8  A    between atoms: C_13  and  C_23
REMARK    9  A    between atoms: C_23  and  C_24
REMARK   10  A    between atoms: C_26  and  C_29
REMARK   11  A    between atoms: C_27  and  C_30
REMARK   12  A    between atoms: C_28  and  C_31
REMARK                            x       y       z     vdW  Elec       q    Type
REMARK                         _______ _______ _______ _____ _____    ______ ____
ROOT
ATOM      1  S   UNL     1       0.593   2.456  25.680  0.00  0.00    -0.057 S 
ATOM      6  O   UNL     1       2.105  -0.146  22.128  0.00  0.00    -0.270 OA
ATOM      7  N   UNL     1      -0.131   1.148  23.568  0.00  0.00    -0.229 NA
ATOM      9  N   UNL     1       2.221   1.151  24.093  0.00  0.00    -0.261 N 
ATOM     10  C   UNL     1      -3.794   1.854  24.544  0.00  0.00    -0.019 C 
ATOM     11  C   UNL     1      -3.426   3.241  25.234  0.00  0.00    +0.011 C 
ATOM     12  C   UNL     1      -4.589   4.003  25.977  0.00  0.00    +0.021 C 
ATOM     13  C   UNL     1      -2.629   1.492  23.512  0.00  0.00    +0.054 C 
ATOM     14  C   UNL     1      -5.119   2.008  23.752  0.00  0.00    +0.010 C 
ATOM     15  C   UNL     1      -5.849   4.025  25.065  0.00  0.00    +0.123 C 
ATOM     16  C   UNL     1      -2.116   3.131  26.068  0.00  0.00    +0.049 C 
ATOM     17  C   UNL     1      -6.246   2.645  24.553  0.00  0.00    +0.032 C 
ATOM     18  C   UNL     1      -3.956   0.700  25.563  0.00  0.00    +0.012 C 
ATOM     19  C   UNL     1      -1.271   1.684  24.137  0.00  0.00    +0.058 A 
ATOM     21  C   UNL     1      -4.161   5.480  26.208  0.00  0.00    +0.016 C 
ATOM     22  C   UNL     1      -1.061   2.438  25.273  0.00  0.00    +0.015 A 
ATOM     25  C   UNL     1       0.909   1.484  24.300  0.00  0.00    +0.165 A 
ATOM     28  C   UNL     1       2.736   0.373  23.043  0.00  0.00    +0.250 C 
ATOM     39  H   UNL     1       2.856   1.562  24.771  0.00  0.00    +0.157 HD
ENDROOT
BRANCH  28  31
ATOM      2  F   UNL     1       8.311  -0.301  23.057  0.00  0.00    -0.205 F 
ATOM     31  C   UNL     1       4.212   0.195  23.046  0.00  0.00    +0.037 A 
ATOM     32  C   UNL     1       4.950   0.506  24.188  0.00  0.00    +0.016 A 
ATOM     33  C   UNL     1       4.859  -0.283  21.907  0.00  0.00    +0.016 A 
ATOM     34  C   UNL     1       6.334   0.339  24.192  0.00  0.00    +0.039 A 
ATOM     35  C   UNL     1       6.244  -0.451  21.911  0.00  0.00    +0.039 A 
ATOM     36  C   UNL     1       6.982  -0.141  23.054  0.00  0.00    +0.123 A 
ENDBRANCH  28  31
BRANCH  15   3
ATOM      3  O   UNL     1      -6.961   4.595  25.758  0.00  0.00    -0.391 OA
ATOM     37  H   UNL     1      -6.770   4.548  26.709  0.00  0.00    +0.210 HD
ENDBRANCH  15   3
BRANCH  12  20
ATOM     20  C   UNL     1      -4.931   3.445  27.375  0.00  0.00    +0.165 C 
BRANCH  20   4
ATOM      4  O   UNL     1      -6.003   2.542  27.230  0.00  0.00    -0.394 OA
ATOM     38  H   UNL     1      -6.239   2.521  26.287  0.00  0.00    +0.209 HD
ENDBRANCH  20   4
ENDBRANCH  12  20
BRANCH  13  23
ATOM     23  C   UNL     1      -2.759   0.107  22.865  0.00  0.00    +0.106 C 
BRANCH  23  24
ATOM      5  O   UNL     1      -1.187  -1.047  24.260  0.00  0.00    -0.276 OA
ATOM      8  N   UNL     1      -3.315  -1.957  24.102  0.00  0.00    -0.302 N 
ATOM     24  C   UNL     1      -2.333  -1.007  23.803  0.00  0.00    +0.216 C 
BRANCH   8  26
ATOM     26  C   UNL     1      -3.066  -3.088  24.988  0.00  0.00    +0.104 C 
ATOM     29  C   UNL     1      -3.041  -2.658  26.441  0.00  0.00    +0.024 C 
ENDBRANCH   8  26
BRANCH   8  27
ATOM     27  C   UNL     1      -4.665  -1.888  23.547  0.00  0.00    +0.104 C 
ATOM     30  C   UNL     1      -5.191  -3.263  23.192  0.00  0.00    +0.024 C 
ENDBRANCH   8  27
ENDBRANCH  23  24
ENDBRANCH  13  23
TORSDOF 8
ENDMDL
