MODEL 1
REMARK VINA RESULT:      -4.6      0.000      0.000
REMARK  Name = 51136926
REMARK  3 active torsions:
REMARK  status: ('A' for Active; 'I' for Inactive)
REMARK    1  A    between atoms: N_3  and  C_12
REMARK    2  A    between atoms: C_7  and  C_11
REMARK    3  A    between atoms: C_13  and  C_14
REMARK                            x       y       z     vdW  Elec       q    Type
REMARK                         _______ _______ _______ _____ _____    ______ ____
ROOT
ATOM      2  O   UNL     1      -6.741 -10.522  17.338  0.00  0.00    -0.336 OA
ATOM      4  N   UNL     1      -6.789 -10.108  15.137  0.00  0.00    -0.189 NA
ATOM      5  N   UNL     1      -5.431 -10.705  16.878  0.00  0.00    -0.054 NA
ATOM     11  C   UNL     1      -7.476 -10.173  16.249  0.00  0.00    +0.245 A 
ATOM     13  C   UNL     1      -5.540 -10.443  15.572  0.00  0.00    +0.220 A 
ENDROOT
BRANCH  13  14
ATOM      1  F   UNL     1      -1.366 -10.664  11.998  0.00  0.00    -0.204 F 
ATOM      6  N   UNL     1      -4.711 -10.346  13.365  0.00  0.00    -0.249 NA
ATOM     14  C   UNL     1      -4.422 -10.509  14.676  0.00  0.00    +0.111 A 
ATOM     15  C   UNL     1      -3.144 -10.726  15.167  0.00  0.00    +0.034 A 
ATOM     16  C   UNL     1      -2.097 -10.781  14.254  0.00  0.00    +0.042 A 
ATOM     17  C   UNL     1      -3.667 -10.406  12.508  0.00  0.00    +0.149 A 
ATOM     18  C   UNL     1      -2.355 -10.619  12.898  0.00  0.00    +0.141 A 
ENDBRANCH  13  14
BRANCH  11   7
ATOM      3  N   UNL     1      -9.250  -9.597  17.896  0.00  0.00    -0.294 NA
ATOM      7  C   UNL     1      -8.949  -9.915  16.485  0.00  0.00    +0.146 C 
ATOM      8  C   UNL     1      -9.476  -8.705  15.690  0.00  0.00    +0.030 C 
ATOM      9  C   UNL     1     -10.108  -7.791  16.730  0.00  0.00    +0.017 C 
ATOM     10  C   UNL     1     -10.426  -8.725  17.881  0.00  0.00    +0.085 C 
ATOM     12  C   UNL     1      -9.456 -10.781  18.720  0.00  0.00    +0.105 C 
ENDBRANCH  11   7
TORSDOF 2
ENDMDL
MODEL 2
REMARK VINA RESULT:      -4.0     14.617     15.184
REMARK  Name = 51136926
REMARK  3 active torsions:
REMARK  status: ('A' for Active; 'I' for Inactive)
REMARK    1  A    between atoms: N_3  and  C_12
REMARK    2  A    between atoms: C_7  and  C_11
REMARK    3  A    between atoms: C_13  and  C_14
REMARK                            x       y       z     vdW  Elec       q    Type
REMARK                         _______ _______ _______ _____ _____    ______ ____
ROOT
ATOM      2  O   UNL     1      -2.585  -0.296  24.800  0.00  0.00    -0.336 OA
ATOM      4  N   UNL     1      -1.305   1.523  24.530  0.00  0.00    -0.189 NA
ATOM      5  N   UNL     1      -1.410  -0.735  24.175  0.00  0.00    -0.054 NA
ATOM     11  C   UNL     1      -2.440   1.044  24.972  0.00  0.00    +0.245 A 
ATOM     13  C   UNL     1      -0.706   0.395  24.049  0.00  0.00    +0.220 A 
ENDROOT
BRANCH  13  14
ATOM      1  F   UNL     1       4.331   0.662  21.858  0.00  0.00    -0.204 F 
ATOM      6  N   UNL     1       1.448   1.351  23.949  0.00  0.00    -0.249 NA
ATOM     14  C   UNL     1       0.595   0.430  23.448  0.00  0.00    +0.111 A 
ATOM     15  C   UNL     1       0.915  -0.446  22.422  0.00  0.00    +0.034 A 
ATOM     16  C   UNL     1       2.191  -0.369  21.875  0.00  0.00    +0.042 A 
ATOM     17  C   UNL     1       2.679   1.396  23.391  0.00  0.00    +0.149 A 
ATOM     18  C   UNL     1       3.096   0.567  22.363  0.00  0.00    +0.141 A 
ENDBRANCH  13  14
BRANCH  11   7
ATOM      3  N   UNL     1      -3.698   3.177  25.215  0.00  0.00    -0.294 NA
ATOM      7  C   UNL     1      -3.592   1.766  25.638  0.00  0.00    +0.146 C 
ATOM      8  C   UNL     1      -4.960   1.150  25.291  0.00  0.00    +0.030 C 
ATOM      9  C   UNL     1      -5.786   2.301  24.736  0.00  0.00    +0.017 C 
ATOM     10  C   UNL     1      -5.115   3.532  25.312  0.00  0.00    +0.085 C 
ATOM     12  C   UNL     1      -2.854   4.075  25.992  0.00  0.00    +0.105 C 
ENDBRANCH  11   7
TORSDOF 2
ENDMDL
MODEL 3
REMARK VINA RESULT:      -3.8     14.554     15.094
REMARK  Name = 51136926
REMARK  3 active torsions:
REMARK  status: ('A' for Active; 'I' for Inactive)
REMARK    1  A    between atoms: N_3  and  C_12
REMARK    2  A    between atoms: C_7  and  C_11
REMARK    3  A    between atoms: C_13  and  C_14
REMARK                            x       y       z     vdW  Elec       q    Type
REMARK                         _______ _______ _______ _____ _____    ______ ____
ROOT
ATOM      2  O   UNL     1      -2.442   0.395  24.955  0.00  0.00    -0.336 OA
ATOM      4  N   UNL     1      -1.485   1.746  23.446  0.00  0.00    -0.189 NA
ATOM      5  N   UNL     1      -1.146  -0.097  24.759  0.00  0.00    -0.054 NA
ATOM     11  C   UNL     1      -2.559   1.480  24.145  0.00  0.00    +0.245 A 
ATOM     13  C   UNL     1      -0.645   0.752  23.856  0.00  0.00    +0.220 A 
ENDROOT
BRANCH  13  14
ATOM      1  F   UNL     1       4.521   0.435  21.995  0.00  0.00    -0.204 F 
ATOM      6  N   UNL     1       1.587   1.518  23.833  0.00  0.00    -0.249 NA
ATOM     14  C   UNL     1       0.689   0.633  23.343  0.00  0.00    +0.111 A 
ATOM     15  C   UNL     1       0.994  -0.341  22.405  0.00  0.00    +0.034 A 
ATOM     16  C   UNL     1       2.302  -0.411  21.941  0.00  0.00    +0.042 A 
ATOM     17  C   UNL     1       2.849   1.418  23.358  0.00  0.00    +0.149 A 
ATOM     18  C   UNL     1       3.254   0.481  22.422  0.00  0.00    +0.141 A 
ENDBRANCH  13  14
BRANCH  11   7
ATOM      3  N   UNL     1      -4.737   1.784  25.308  0.00  0.00    -0.294 NA
ATOM      7  C   UNL     1      -3.890   2.203  24.173  0.00  0.00    +0.146 C 
ATOM      8  C   UNL     1      -3.735   3.726  24.340  0.00  0.00    +0.030 C 
ATOM      9  C   UNL     1      -4.579   4.080  25.557  0.00  0.00    +0.017 C 
ATOM     10  C   UNL     1      -5.572   2.938  25.647  0.00  0.00    +0.085 C 
ATOM     12  C   UNL     1      -5.533   0.597  25.024  0.00  0.00    +0.105 C 
ENDBRANCH  11   7
TORSDOF 2
ENDMDL
MODEL 4
REMARK VINA RESULT:      -3.8      2.805      3.781
REMARK  Name = 51136926
REMARK  3 active torsions:
REMARK  status: ('A' for Active; 'I' for Inactive)
REMARK    1  A    between atoms: N_3  and  C_12
REMARK    2  A    between atoms: C_7  and  C_11
REMARK    3  A    between atoms: C_13  and  C_14
REMARK                            x       y       z     vdW  Elec       q    Type
REMARK                         _______ _______ _______ _____ _____    ______ ____
ROOT
ATOM      2  O   UNL     1      -8.826  -9.630  14.312  0.00  0.00    -0.336 OA
ATOM      4  N   UNL     1      -6.699 -10.244  13.964  0.00  0.00    -0.189 NA
ATOM      5  N   UNL     1      -8.506  -9.210  13.014  0.00  0.00    -0.054 NA
ATOM     11  C   UNL     1      -7.707 -10.229  14.799  0.00  0.00    +0.245 A 
ATOM     13  C   UNL     1      -7.237  -9.608  12.883  0.00  0.00    +0.220 A 
ENDROOT
BRANCH  13  14
ATOM      1  F   UNL     1      -4.176  -8.774   8.390  0.00  0.00    -0.204 F 
ATOM      6  N   UNL     1      -5.135  -9.448  11.823  0.00  0.00    -0.249 NA
ATOM     14  C   UNL     1      -6.478  -9.384  11.687  0.00  0.00    +0.111 A 
ATOM     15  C   UNL     1      -7.124  -9.122  10.488  0.00  0.00    +0.034 A 
ATOM     16  C   UNL     1      -6.340  -8.912   9.359  0.00  0.00    +0.042 A 
ATOM     17  C   UNL     1      -4.406  -9.238  10.703  0.00  0.00    +0.149 A 
ATOM     18  C   UNL     1      -4.955  -8.970   9.460  0.00  0.00    +0.141 A 
ENDBRANCH  13  14
BRANCH  11   7
ATOM      3  N   UNL     1      -7.025  -9.975  17.178  0.00  0.00    -0.294 NA
ATOM      7  C   UNL     1      -7.796 -10.778  16.207  0.00  0.00    +0.146 C 
ATOM      8  C   UNL     1      -9.235 -10.780  16.756  0.00  0.00    +0.030 C 
ATOM      9  C   UNL     1      -9.163 -10.007  18.065  0.00  0.00    +0.017 C 
ATOM     10  C   UNL     1      -7.705 -10.120  18.466  0.00  0.00    +0.085 C 
ATOM     12  C   UNL     1      -5.621 -10.357  17.254  0.00  0.00    +0.105 C 
ENDBRANCH  11   7
TORSDOF 2
ENDMDL
MODEL 5
REMARK VINA RESULT:      -3.4      4.066      6.580
REMARK  Name = 51136926
REMARK  3 active torsions:
REMARK  status: ('A' for Active; 'I' for Inactive)
REMARK    1  A    between atoms: N_3  and  C_12
REMARK    2  A    between atoms: C_7  and  C_11
REMARK    3  A    between atoms: C_13  and  C_14
REMARK                            x       y       z     vdW  Elec       q    Type
REMARK                         _______ _______ _______ _____ _____    ______ ____
ROOT
ATOM      2  O   UNL     1      -5.533 -10.087  14.818  0.00  0.00    -0.336 OA
ATOM      4  N   UNL     1      -5.039 -10.135  12.633  0.00  0.00    -0.189 NA
ATOM      5  N   UNL     1      -6.696  -9.690  14.147  0.00  0.00    -0.054 NA
ATOM     11  C   UNL     1      -4.607 -10.330  13.853  0.00  0.00    +0.245 A 
ATOM     13  C   UNL     1      -6.325  -9.743  12.863  0.00  0.00    +0.220 A 
ENDROOT
BRANCH  13  14
ATOM      1  F   UNL     1      -9.595  -8.407   8.648  0.00  0.00    -0.204 F 
ATOM      6  N   UNL     1      -6.637  -8.859  10.698  0.00  0.00    -0.249 NA
ATOM     14  C   UNL     1      -7.215  -9.410  11.789  0.00  0.00    +0.111 A 
ATOM     15  C   UNL     1      -8.574  -9.655  11.905  0.00  0.00    +0.034 A 
ATOM     16  C   UNL     1      -9.391  -9.312  10.834  0.00  0.00    +0.042 A 
ATOM     17  C   UNL     1      -7.464  -8.540   9.677  0.00  0.00    +0.149 A 
ATOM     18  C   UNL     1      -8.833  -8.744   9.695  0.00  0.00    +0.141 A 
ENDBRANCH  13  14
BRANCH  11   7
ATOM      3  N   UNL     1      -2.142 -10.031  13.689  0.00  0.00    -0.294 NA
ATOM      7  C   UNL     1      -3.241 -10.781  14.328  0.00  0.00    +0.146 C 
ATOM      8  C   UNL     1      -3.036 -10.566  15.839  0.00  0.00    +0.030 C 
ATOM      9  C   UNL     1      -1.766  -9.735  15.953  0.00  0.00    +0.017 C 
ATOM     10  C   UNL     1      -1.040 -10.013  14.652  0.00  0.00    +0.085 C 
ATOM     12  C   UNL     1      -1.738 -10.587  12.404  0.00  0.00    +0.105 C 
ENDBRANCH  11   7
TORSDOF 2
ENDMDL
MODEL 6
REMARK VINA RESULT:      -3.3     15.059     15.621
REMARK  Name = 51136926
REMARK  3 active torsions:
REMARK  status: ('A' for Active; 'I' for Inactive)
REMARK    1  A    between atoms: N_3  and  C_12
REMARK    2  A    between atoms: C_7  and  C_11
REMARK    3  A    between atoms: C_13  and  C_14
REMARK                            x       y       z     vdW  Elec       q    Type
REMARK                         _______ _______ _______ _____ _____    ______ ____
ROOT
ATOM      2  O   UNL     1      -1.243  -0.083  23.894  0.00  0.00    -0.336 OA
ATOM      4  N   UNL     1       0.315   1.465  24.335  0.00  0.00    -0.189 NA
ATOM      5  N   UNL     1      -0.028  -0.615  23.446  0.00  0.00    -0.054 NA
ATOM     11  C   UNL     1      -0.952   1.143  24.403  0.00  0.00    +0.245 A 
ATOM     13  C   UNL     1       0.843   0.356  23.741  0.00  0.00    +0.220 A 
ENDROOT
BRANCH  13  14
ATOM      1  F   UNL     1       6.211  -0.227  22.695  0.00  0.00    -0.204 F 
ATOM      6  N   UNL     1       2.808  -0.950  23.724  0.00  0.00    -0.249 NA
ATOM     14  C   UNL     1       2.244   0.248  23.453  0.00  0.00    +0.111 A 
ATOM     15  C   UNL     1       2.935   1.331  22.932  0.00  0.00    +0.034 A 
ATOM     16  C   UNL     1       4.292   1.173  22.672  0.00  0.00    +0.042 A 
ATOM     17  C   UNL     1       4.129  -1.065  23.458  0.00  0.00    +0.149 A 
ATOM     18  C   UNL     1       4.908  -0.045  22.937  0.00  0.00    +0.141 A 
ENDBRANCH  13  14
BRANCH  11   7
ATOM      3  N   UNL     1      -2.155   3.320  24.450  0.00  0.00    -0.294 NA
ATOM      7  C   UNL     1      -2.115   1.936  24.961  0.00  0.00    +0.146 C 
ATOM      8  C   UNL     1      -3.481   1.337  24.578  0.00  0.00    +0.030 C 
ATOM      9  C   UNL     1      -4.241   2.474  23.911  0.00  0.00    +0.017 C 
ATOM     10  C   UNL     1      -3.564   3.719  24.448  0.00  0.00    +0.085 C 
ATOM     12  C   UNL     1      -1.326   4.241  25.217  0.00  0.00    +0.105 C 
ENDBRANCH  11   7
TORSDOF 2
ENDMDL
MODEL 7
REMARK VINA RESULT:      -3.0     15.557     17.115
REMARK  Name = 51136926
REMARK  3 active torsions:
REMARK  status: ('A' for Active; 'I' for Inactive)
REMARK    1  A    between atoms: N_3  and  C_12
REMARK    2  A    between atoms: C_7  and  C_11
REMARK    3  A    between atoms: C_13  and  C_14
REMARK                            x       y       z     vdW  Elec       q    Type
REMARK                         _______ _______ _______ _____ _____    ______ ____
ROOT
ATOM      2  O   UNL     1       0.800  -0.948  23.520  0.00  0.00    -0.336 OA
ATOM      4  N   UNL     1       1.065   1.267  23.735  0.00  0.00    -0.189 NA
ATOM      5  N   UNL     1      -0.421  -0.454  23.997  0.00  0.00    -0.054 NA
ATOM     11  C   UNL     1       1.618   0.130  23.393  0.00  0.00    +0.245 A 
ATOM     13  C   UNL     1      -0.185   0.858  24.098  0.00  0.00    +0.220 A 
ENDROOT
BRANCH  13  14
ATOM      1  F   UNL     1      -4.112   4.323  25.780  0.00  0.00    -0.204 F 
ATOM      6  N   UNL     1      -2.440   1.553  24.140  0.00  0.00    -0.249 NA
ATOM     14  C   UNL     1      -1.176   1.786  24.560  0.00  0.00    +0.111 A 
ATOM     15  C   UNL     1      -0.816   2.841  25.384  0.00  0.00    +0.034 A 
ATOM     16  C   UNL     1      -1.817   3.712  25.802  0.00  0.00    +0.042 A 
ATOM     17  C   UNL     1      -3.385   2.420  24.568  0.00  0.00    +0.149 A 
ATOM     18  C   UNL     1      -3.128   3.504  25.391  0.00  0.00    +0.141 A 
ENDBRANCH  13  14
BRANCH  11   7
ATOM      3  N   UNL     1       3.960   0.948  23.208  0.00  0.00    -0.294 NA
ATOM      7  C   UNL     1       3.018  -0.142  22.885  0.00  0.00    +0.146 C 
ATOM      8  C   UNL     1       3.644  -1.401  23.512  0.00  0.00    +0.030 C 
ATOM      9  C   UNL     1       4.962  -0.933  24.112  0.00  0.00    +0.017 C 
ATOM     10  C   UNL     1       5.281   0.328  23.334  0.00  0.00    +0.085 C 
ATOM     12  C   UNL     1       3.952   2.026  22.228  0.00  0.00    +0.105 C 
ENDBRANCH  11   7
TORSDOF 2
ENDMDL
MODEL 8
REMARK VINA RESULT:      -2.7     14.804     16.408
REMARK  Name = 51136926
REMARK  3 active torsions:
REMARK  status: ('A' for Active; 'I' for Inactive)
REMARK    1  A    between atoms: N_3  and  C_12
REMARK    2  A    between atoms: C_7  and  C_11
REMARK    3  A    between atoms: C_13  and  C_14
REMARK                            x       y       z     vdW  Elec       q    Type
REMARK                         _______ _______ _______ _____ _____    ______ ____
ROOT
ATOM      2  O   UNL     1       1.660   1.679  23.913  0.00  0.00    -0.336 OA
ATOM      4  N   UNL     1       0.486  -0.161  23.409  0.00  0.00    -0.189 NA
ATOM      5  N   UNL     1       0.345   1.932  24.323  0.00  0.00    -0.054 NA
ATOM     11  C   UNL     1       1.655   0.427  23.386  0.00  0.00    +0.245 A 
ATOM     13  C   UNL     1      -0.287   0.801  23.992  0.00  0.00    +0.220 A 
ENDROOT
BRANCH  13  14
ATOM      1  F   UNL     1      -5.686   0.206  24.852  0.00  0.00    -0.204 F 
ATOM      6  N   UNL     1      -2.479   1.673  24.001  0.00  0.00    -0.249 NA
ATOM     14  C   UNL     1      -1.687   0.601  24.229  0.00  0.00    +0.111 A 
ATOM     15  C   UNL     1      -2.154  -0.629  24.665  0.00  0.00    +0.034 A 
ATOM     16  C   UNL     1      -3.520  -0.768  24.880  0.00  0.00    +0.042 A 
ATOM     17  C   UNL     1      -3.802   1.499  24.221  0.00  0.00    +0.149 A 
ATOM     18  C   UNL     1      -4.367   0.312  24.656  0.00  0.00    +0.141 A 
ENDBRANCH  13  14
BRANCH  11   7
ATOM      3  N   UNL     1       4.092   0.849  23.113  0.00  0.00    -0.294 NA
ATOM      7  C   UNL     1       2.979  -0.090  22.863  0.00  0.00    +0.146 C 
ATOM      8  C   UNL     1       3.415  -1.403  23.540  0.00  0.00    +0.030 C 
ATOM      9  C   UNL     1       4.807  -1.125  24.089  0.00  0.00    +0.017 C 
ATOM     10  C   UNL     1       5.300   0.032  23.242  0.00  0.00    +0.085 C 
ATOM     12  C   UNL     1       4.228   1.868  22.080  0.00  0.00    +0.105 C 
ENDBRANCH  11   7
TORSDOF 2
ENDMDL
MODEL 9
REMARK VINA RESULT:      -2.6     14.850     16.504
REMARK  Name = 51136926
REMARK  3 active torsions:
REMARK  status: ('A' for Active; 'I' for Inactive)
REMARK    1  A    between atoms: N_3  and  C_12
REMARK    2  A    between atoms: C_7  and  C_11
REMARK    3  A    between atoms: C_13  and  C_14
REMARK                            x       y       z     vdW  Elec       q    Type
REMARK                         _______ _______ _______ _____ _____    ______ ____
ROOT
ATOM      2  O   UNL     1       0.797   2.178  24.307  0.00  0.00    -0.336 OA
ATOM      4  N   UNL     1      -0.723   0.604  23.830  0.00  0.00    -0.189 NA
ATOM      5  N   UNL     1      -0.442   2.704  24.694  0.00  0.00    -0.054 NA
ATOM     11  C   UNL     1       0.541   0.940  23.809  0.00  0.00    +0.245 A 
ATOM     13  C   UNL     1      -1.288   1.717  24.380  0.00  0.00    +0.220 A 
ENDROOT
BRANCH  13  14
ATOM      1  F   UNL     1      -6.718   1.905  25.233  0.00  0.00    -0.204 F 
ATOM      6  N   UNL     1      -3.368   0.638  24.657  0.00  0.00    -0.249 NA
ATOM     14  C   UNL     1      -2.702   1.813  24.604  0.00  0.00    +0.111 A 
ATOM     15  C   UNL     1      -3.304   3.053  24.751  0.00  0.00    +0.034 A 
ATOM     16  C   UNL     1      -4.677   3.089  24.965  0.00  0.00    +0.042 A 
ATOM     17  C   UNL     1      -4.702   0.713  24.867  0.00  0.00    +0.149 A 
ATOM     18  C   UNL     1      -5.397   1.901  25.026  0.00  0.00    +0.141 A 
ENDBRANCH  13  14
BRANCH  11   7
ATOM      3  N   UNL     1       1.832   0.129  21.842  0.00  0.00    -0.294 NA
ATOM      7  C   UNL     1       1.737   0.152  23.316  0.00  0.00    +0.146 C 
ATOM      8  C   UNL     1       3.077   0.748  23.786  0.00  0.00    +0.030 C 
ATOM      9  C   UNL     1       3.881   0.970  22.513  0.00  0.00    +0.017 C 
ATOM     10  C   UNL     1       3.255   0.009  21.522  0.00  0.00    +0.085 C 
ATOM     12  C   UNL     1       1.042  -0.932  21.232  0.00  0.00    +0.105 C 
ENDBRANCH  11   7
TORSDOF 2
ENDMDL
MODEL 10
REMARK VINA RESULT:      -2.1     15.272     16.068
REMARK  Name = 51136926
REMARK  3 active torsions:
REMARK  status: ('A' for Active; 'I' for Inactive)
REMARK    1  A    between atoms: N_3  and  C_12
REMARK    2  A    between atoms: C_7  and  C_11
REMARK    3  A    between atoms: C_13  and  C_14
REMARK                            x       y       z     vdW  Elec       q    Type
REMARK                         _______ _______ _______ _____ _____    ______ ____
ROOT
ATOM      2  O   UNL     1       0.006  -0.352  24.257  0.00  0.00    -0.336 OA
ATOM      4  N   UNL     1      -1.796   0.633  25.151  0.00  0.00    -0.189 NA
ATOM      5  N   UNL     1       0.227   1.028  24.158  0.00  0.00    -0.054 NA
ATOM     11  C   UNL     1      -1.207  -0.497  24.852  0.00  0.00    +0.245 A 
ATOM     13  C   UNL     1      -0.880   1.541  24.706  0.00  0.00    +0.220 A 
ENDROOT
BRANCH  13  14
ATOM      1  F   UNL     1      -1.876   6.923  25.243  0.00  0.00    -0.204 F 
ATOM      6  N   UNL     1      -2.231   3.319  25.466  0.00  0.00    -0.249 NA
ATOM     14  C   UNL     1      -1.100   2.953  24.823  0.00  0.00    +0.111 A 
ATOM     15  C   UNL     1      -0.183   3.849  24.295  0.00  0.00    +0.034 A 
ATOM     16  C   UNL     1      -0.446   5.207  24.436  0.00  0.00    +0.042 A 
ATOM     17  C   UNL     1      -2.452   4.648  25.583  0.00  0.00    +0.149 A 
ATOM     18  C   UNL     1      -1.600   5.623  25.091  0.00  0.00    +0.141 A 
ENDBRANCH  13  14
BRANCH  11   7
ATOM      3  N   UNL     1      -3.121  -1.989  25.400  0.00  0.00    -0.294 NA
ATOM      7  C   UNL     1      -1.682  -1.917  25.077  0.00  0.00    +0.146 C 
ATOM      8  C   UNL     1      -1.515  -2.804  23.829  0.00  0.00    +0.030 C 
ATOM      9  C   UNL     1      -2.899  -3.379  23.562  0.00  0.00    +0.017 C 
ATOM     10  C   UNL     1      -3.590  -3.285  24.908  0.00  0.00    +0.085 C 
ATOM     12  C   UNL     1      -3.402  -1.806  26.817  0.00  0.00    +0.105 C 
ENDBRANCH  11   7
TORSDOF 2
ENDMDL
