MODEL 1
REMARK VINA RESULT:       0.1      0.000      0.000
REMARK  Name = 45783593
REMARK  6 active torsions:
REMARK  status: ('A' for Active; 'I' for Inactive)
REMARK    1  A    between atoms: O_1  and  C_13
REMARK    2  A    between atoms: O_1  and  C_23
REMARK    3  A    between atoms: N_3  and  C_16
REMARK    4  A    between atoms: C_9  and  C_20
REMARK    5  A    between atoms: C_16  and  C_21
REMARK    6  A    between atoms: C_22  and  C_24
REMARK                            x       y       z     vdW  Elec       q    Type
REMARK                         _______ _______ _______ _____ _____    ______ ____
ROOT
ATOM      2  O   UNL     1      -3.282  -0.614  25.402  0.00  0.00    -0.336 OA
ATOM      4  N   UNL     1      -2.319   1.239  24.593  0.00  0.00    -0.190 NA
ATOM      6  N   UNL     1      -2.087  -1.027  24.800  0.00  0.00    -0.056 NA
ATOM     20  C   UNL     1      -3.342   0.733  25.236  0.00  0.00    +0.245 A 
ATOM     22  C   UNL     1      -1.577   0.122  24.347  0.00  0.00    +0.204 A 
ENDROOT
BRANCH  22  24
ATOM      8  N   UNL     1       1.829   1.236  23.356  0.00  0.00    -0.221 NA
ATOM     23  C   UNL     1       2.064   0.368  22.347  0.00  0.00    +0.215 A 
ATOM     24  C   UNL     1      -0.330   0.186  23.643  0.00  0.00    +0.041 A 
ATOM     25  C   UNL     1       1.167  -0.603  21.934  0.00  0.00    +0.068 A 
ATOM     27  C   UNL     1      -0.051  -0.689  22.599  0.00  0.00    +0.018 A 
ATOM     29  C   UNL     1       0.635   1.122  23.980  0.00  0.00    +0.126 A 
BRANCH  23   1
ATOM      1  O   UNL     1       3.271   0.472  21.707  0.00  0.00    -0.473 OA
BRANCH   1  13
ATOM     13  C   UNL     1       4.410  -0.019  22.406  0.00  0.00    +0.175 C 
ATOM     14  C   UNL     1       5.015   1.102  23.252  0.00  0.00    +0.044 C 
ATOM     15  C   UNL     1       4.010  -1.217  23.264  0.00  0.00    +0.044 C 
ATOM     17  C   UNL     1       6.182   0.601  24.096  0.00  0.00    +0.004 C 
ATOM     18  C   UNL     1       5.177  -1.718  24.109  0.00  0.00    +0.004 C 
ATOM     19  C   UNL     1       5.781  -0.598  24.952  0.00  0.00    +0.000 C 
ENDBRANCH   1  13
ENDBRANCH  23   1
ENDBRANCH  22  24
BRANCH  20   9
ATOM      3  N   UNL     1      -4.592   2.870  25.480  0.00  0.00    -0.284 NA
ATOM      9  C   UNL     1      -4.558   1.431  25.809  0.00  0.00    +0.146 C 
ATOM     10  C   UNL     1      -5.881   0.870  25.255  0.00  0.00    +0.030 C 
ATOM     11  C   UNL     1      -6.618   2.076  24.690  0.00  0.00    +0.017 C 
ATOM     12  C   UNL     1      -6.006   3.248  25.431  0.00  0.00    +0.085 C 
BRANCH   3  16
ATOM     16  C   UNL     1      -3.837   3.692  26.416  0.00  0.00    +0.159 C 
BRANCH  16  21
ATOM      5  N   UNL     1      -1.369   3.419  26.085  0.00  0.00    -0.347 N 
ATOM      7  N   UNL     1      -2.291   5.168  25.077  0.00  0.00    -0.239 NA
ATOM     21  C   UNL     1      -2.514   4.123  25.842  0.00  0.00    +0.121 A 
ATOM     26  C   UNL     1      -0.350   4.055  25.435  0.00  0.00    +0.104 A 
ATOM     28  C   UNL     1      -0.943   5.133  24.820  0.00  0.00    +0.130 A 
ATOM     30  H   UNL     1      -1.288   2.581  26.647  0.00  0.00    +0.167 HD
ENDBRANCH  16  21
ENDBRANCH   3  16
ENDBRANCH  20   9
TORSDOF 6
ENDMDL
MODEL 2
REMARK VINA RESULT:       1.3      1.637      3.312
REMARK  Name = 45783593
REMARK  6 active torsions:
REMARK  status: ('A' for Active; 'I' for Inactive)
REMARK    1  A    between atoms: O_1  and  C_13
REMARK    2  A    between atoms: O_1  and  C_23
REMARK    3  A    between atoms: N_3  and  C_16
REMARK    4  A    between atoms: C_9  and  C_20
REMARK    5  A    between atoms: C_16  and  C_21
REMARK    6  A    between atoms: C_22  and  C_24
REMARK                            x       y       z     vdW  Elec       q    Type
REMARK                         _______ _______ _______ _____ _____    ______ ____
ROOT
ATOM      2  O   UNL     1      -2.443   2.966  25.581  0.00  0.00    -0.336 OA
ATOM      4  N   UNL     1      -2.441   1.583  23.819  0.00  0.00    -0.190 NA
ATOM      6  N   UNL     1      -1.099   2.686  25.307  0.00  0.00    -0.056 NA
ATOM     20  C   UNL     1      -3.166   2.278  24.660  0.00  0.00    +0.245 A 
ATOM     22  C   UNL     1      -1.180   1.865  24.256  0.00  0.00    +0.204 A 
ENDROOT
BRANCH  22  24
ATOM      8  N   UNL     1       0.945  -0.413  22.227  0.00  0.00    -0.221 NA
ATOM     23  C   UNL     1       2.142   0.193  22.387  0.00  0.00    +0.215 A 
ATOM     24  C   UNL     1      -0.022   1.309  23.622  0.00  0.00    +0.041 A 
ATOM     25  C   UNL     1       2.334   1.342  23.137  0.00  0.00    +0.068 A 
ATOM     27  C   UNL     1       1.227   1.904  23.763  0.00  0.00    +0.018 A 
ATOM     29  C   UNL     1      -0.109   0.161  22.850  0.00  0.00    +0.126 A 
BRANCH  23   1
ATOM      1  O   UNL     1       3.217  -0.379  21.761  0.00  0.00    -0.473 OA
BRANCH   1  13
ATOM     13  C   UNL     1       4.431  -0.441  22.503  0.00  0.00    +0.175 C 
ATOM     14  C   UNL     1       4.766   0.945  23.055  0.00  0.00    +0.044 C 
ATOM     15  C   UNL     1       4.298  -1.474  23.620  0.00  0.00    +0.044 C 
ATOM     17  C   UNL     1       6.008   0.911  23.939  0.00  0.00    +0.004 C 
ATOM     18  C   UNL     1       5.540  -1.508  24.504  0.00  0.00    +0.004 C 
ATOM     19  C   UNL     1       5.875  -0.124  25.054  0.00  0.00    +0.000 C 
ENDBRANCH   1  13
ENDBRANCH  23   1
ENDBRANCH  22  24
BRANCH  20   9
ATOM      3  N   UNL     1      -5.309   1.283  25.440  0.00  0.00    -0.284 NA
ATOM      9  C   UNL     1      -4.672   2.417  24.742  0.00  0.00    +0.146 C 
ATOM     10  C   UNL     1      -5.111   3.663  25.534  0.00  0.00    +0.030 C 
ATOM     11  C   UNL     1      -6.041   3.136  26.619  0.00  0.00    +0.017 C 
ATOM     12  C   UNL     1      -6.524   1.812  26.063  0.00  0.00    +0.085 C 
BRANCH   3  16
ATOM     16  C   UNL     1      -5.589   0.153  24.565  0.00  0.00    +0.159 C 
BRANCH  16  21
ATOM      5  N   UNL     1      -3.626  -0.941  25.672  0.00  0.00    -0.347 N 
ATOM      7  N   UNL     1      -4.249  -1.815  23.729  0.00  0.00    -0.239 NA
ATOM     21  C   UNL     1      -4.498  -0.883  24.622  0.00  0.00    +0.121 A 
ATOM     26  C   UNL     1      -2.766  -1.976  25.434  0.00  0.00    +0.104 A 
ATOM     28  C   UNL     1      -3.169  -2.499  24.229  0.00  0.00    +0.130 A 
ATOM     30  H   UNL     1      -3.616  -0.330  26.478  0.00  0.00    +0.167 HD
ENDBRANCH  16  21
ENDBRANCH   3  16
ENDBRANCH  20   9
TORSDOF 6
ENDMDL
