MODEL 1
REMARK VINA RESULT:      -2.2      0.000      0.000
REMARK  Name = 26743040
REMARK  13 active torsions:
REMARK  status: ('A' for Active; 'I' for Inactive)
REMARK    1  A    between atoms: O_3  and  C_21
REMARK    2  A    between atoms: O_3  and  C_28
REMARK    3  A    between atoms: O_4  and  C_25
REMARK    4  A    between atoms: O_4  and  C_29
REMARK    5  A    between atoms: O_5  and  C_27
REMARK    6  A    between atoms: O_5  and  C_30
REMARK    7  A    between atoms: N_7  and  C_20
REMARK    8  A    between atoms: C_9  and  C_15
REMARK    9  A    between atoms: C_10  and  C_14
REMARK   10  A    between atoms: C_14  and  C_16
REMARK   11  A    between atoms: C_15  and  C_17
REMARK   12  A    between atoms: C_19  and  C_21
REMARK   13  A    between atoms: C_20  and  C_22
REMARK                            x       y       z     vdW  Elec       q    Type
REMARK                         _______ _______ _______ _____ _____    ______ ____
ROOT
ATOM      6  N   UNL     1      -1.552   0.871  25.778  0.00  0.00    -0.316 NA
ATOM      9  C   UNL     1      -0.491  -1.657  24.686  0.00  0.00    +0.004 C 
ATOM     10  C   UNL     1      -0.081  -0.271  24.134  0.00  0.00    +0.012 C 
ATOM     11  C   UNL     1      -0.959  -1.500  26.142  0.00  0.00    +0.019 C 
ATOM     12  C   UNL     1      -1.180   0.780  24.365  0.00  0.00    +0.085 C 
ATOM     13  C   UNL     1      -2.021  -0.411  26.299  0.00  0.00    +0.081 C 
ATOM     31  H   UNL     1      -2.286   1.568  25.889  0.00  0.00    +0.122 HD
ENDROOT
BRANCH  10  14
ATOM     14  C   UNL     1       0.325  -0.308  22.661  0.00  0.00    +0.064 C 
BRANCH  14  16
ATOM      2  O   UNL     1       3.688   0.209  21.486  0.00  0.00    -0.357 OA
ATOM      8  N   UNL     1       2.367  -0.182  21.302  0.00  0.00    -0.083 NA
ATOM     16  C   UNL     1       1.781   0.011  22.486  0.00  0.00    +0.084 A 
ATOM     18  C   UNL     1       2.673   0.518  23.447  0.00  0.00    +0.073 A 
ATOM     19  C   UNL     1       3.858   0.623  22.767  0.00  0.00    +0.163 A 
BRANCH  19  21
ATOM     21  C   UNL     1       5.205   1.074  23.136  0.00  0.00    +0.236 C 
BRANCH  21   3
ATOM      3  O   UNL     1       5.598   0.495  24.383  0.00  0.00    -0.375 OA
ATOM     28  C   UNL     1       5.585  -0.922  24.317  0.00  0.00    +0.194 C 
ENDBRANCH  21   3
ENDBRANCH  19  21
ENDBRANCH  14  16
ENDBRANCH  10  14
BRANCH   9  15
ATOM     15  C   UNL     1      -1.555  -2.374  23.846  0.00  0.00    +0.099 C 
BRANCH  15  17
ATOM      1  O   UNL     1      -3.410  -2.956  25.286  0.00  0.00    -0.276 OA
ATOM      7  N   UNL     1      -3.605  -1.136  23.854  0.00  0.00    -0.311 N 
ATOM     17  C   UNL     1      -2.945  -2.215  24.425  0.00  0.00    +0.214 C 
ATOM     32  H   UNL     1      -3.132  -0.565  23.159  0.00  0.00    +0.149 HD
BRANCH   7  20
ATOM     20  C   UNL     1      -4.950  -0.753  24.218  0.00  0.00    +0.139 C 
BRANCH  20  22
ATOM     22  C   UNL     1      -5.021   0.673  24.683  0.00  0.00    -0.027 A 
ATOM     23  C   UNL     1      -4.147   1.623  24.155  0.00  0.00    +0.054 A 
ATOM     24  C   UNL     1      -5.963   1.048  25.640  0.00  0.00    +0.009 A 
ATOM     25  C   UNL     1      -4.214   2.948  24.585  0.00  0.00    +0.162 A 
ATOM     26  C   UNL     1      -6.030   2.373  26.071  0.00  0.00    +0.050 A 
ATOM     27  C   UNL     1      -5.156   3.323  25.543  0.00  0.00    +0.162 A 
BRANCH  25   4
ATOM      4  O   UNL     1      -3.356   3.867  24.062  0.00  0.00    -0.491 OA
ATOM     29  C   UNL     1      -2.249   4.257  24.874  0.00  0.00    +0.277 C 
ENDBRANCH  25   4
BRANCH  27   5
ATOM      5  O   UNL     1      -5.232   4.614  25.972  0.00  0.00    -0.491 OA
ATOM     30  C   UNL     1      -6.298   5.408  25.452  0.00  0.00    +0.277 C 
ENDBRANCH  27   5
ENDBRANCH  20  22
ENDBRANCH   7  20
ENDBRANCH  15  17
ENDBRANCH   9  15
TORSDOF 10
ENDMDL
MODEL 2
REMARK VINA RESULT:      -1.7      1.907      4.937
REMARK  Name = 26743040
REMARK  13 active torsions:
REMARK  status: ('A' for Active; 'I' for Inactive)
REMARK    1  A    between atoms: O_3  and  C_21
REMARK    2  A    between atoms: O_3  and  C_28
REMARK    3  A    between atoms: O_4  and  C_25
REMARK    4  A    between atoms: O_4  and  C_29
REMARK    5  A    between atoms: O_5  and  C_27
REMARK    6  A    between atoms: O_5  and  C_30
REMARK    7  A    between atoms: N_7  and  C_20
REMARK    8  A    between atoms: C_9  and  C_15
REMARK    9  A    between atoms: C_10  and  C_14
REMARK   10  A    between atoms: C_14  and  C_16
REMARK   11  A    between atoms: C_15  and  C_17
REMARK   12  A    between atoms: C_19  and  C_21
REMARK   13  A    between atoms: C_20  and  C_22
REMARK                            x       y       z     vdW  Elec       q    Type
REMARK                         _______ _______ _______ _____ _____    ______ ____
ROOT
ATOM      6  N   UNL     1       0.058   5.197  24.560  0.00  0.00    -0.316 NA
ATOM      9  C   UNL     1      -2.593   4.189  25.377  0.00  0.00    +0.004 C 
ATOM     10  C   UNL     1      -1.367   3.264  25.191  0.00  0.00    +0.012 C 
ATOM     11  C   UNL     1      -2.103   5.615  25.682  0.00  0.00    +0.019 C 
ATOM     12  C   UNL     1      -0.363   3.847  24.183  0.00  0.00    +0.085 C 
ATOM     13  C   UNL     1      -1.078   6.111  24.663  0.00  0.00    +0.081 C 
ATOM     31  H   UNL     1       0.714   5.552  23.867  0.00  0.00    +0.122 HD
ENDROOT
BRANCH  10  14
ATOM     14  C   UNL     1      -1.749   1.835  24.802  0.00  0.00    +0.064 C 
BRANCH  14  16
ATOM      2  O   UNL     1       0.211  -0.021  22.421  0.00  0.00    -0.357 OA
ATOM      8  N   UNL     1      -1.001   0.412  22.945  0.00  0.00    -0.083 NA
ATOM     16  C   UNL     1      -0.672   1.184  23.985  0.00  0.00    +0.084 A 
ATOM     18  C   UNL     1       0.719   1.275  24.163  0.00  0.00    +0.073 A 
ATOM     19  C   UNL     1       1.228   0.500  23.155  0.00  0.00    +0.163 A 
BRANCH  19  21
ATOM     21  C   UNL     1       2.588   0.142  22.736  0.00  0.00    +0.236 C 
BRANCH  21   3
ATOM      3  O   UNL     1       3.517   1.144  23.155  0.00  0.00    -0.375 OA
ATOM     28  C   UNL     1       4.829   0.616  23.262  0.00  0.00    +0.194 C 
ENDBRANCH  21   3
ENDBRANCH  19  21
ENDBRANCH  14  16
ENDBRANCH  10  14
BRANCH   9  15
ATOM     15  C   UNL     1      -3.562   4.190  24.189  0.00  0.00    +0.099 C 
BRANCH  15  17
ATOM      1  O   UNL     1      -3.967   2.127  22.991  0.00  0.00    -0.276 OA
ATOM      7  N   UNL     1      -5.064   2.512  25.004  0.00  0.00    -0.311 N 
ATOM     17  C   UNL     1      -4.199   2.834  23.968  0.00  0.00    +0.214 C 
ATOM     32  H   UNL     1      -5.178   3.153  25.783  0.00  0.00    +0.149 HD
BRANCH   7  20
ATOM     20  C   UNL     1      -5.810   1.276  25.052  0.00  0.00    +0.139 C 
BRANCH  20  22
ATOM     22  C   UNL     1      -4.915   0.075  24.949  0.00  0.00    -0.027 A 
ATOM     23  C   UNL     1      -3.944  -0.156  25.923  0.00  0.00    +0.054 A 
ATOM     24  C   UNL     1      -5.057  -0.812  23.882  0.00  0.00    +0.009 A 
ATOM     25  C   UNL     1      -3.113  -1.272  25.829  0.00  0.00    +0.162 A 
ATOM     26  C   UNL     1      -4.226  -1.929  23.788  0.00  0.00    +0.050 A 
ATOM     27  C   UNL     1      -3.255  -2.159  24.762  0.00  0.00    +0.162 A 
BRANCH  25   4
ATOM      4  O   UNL     1      -2.169  -1.488  26.787  0.00  0.00    -0.491 OA
ATOM     29  C   UNL     1      -0.887  -0.897  26.577  0.00  0.00    +0.277 C 
ENDBRANCH  25   4
BRANCH  27   5
ATOM      5  O   UNL     1      -2.451  -3.254  24.659  0.00  0.00    -0.491 OA
ATOM     30  C   UNL     1      -1.271  -3.120  23.869  0.00  0.00    +0.277 C 
ENDBRANCH  27   5
ENDBRANCH  20  22
ENDBRANCH   7  20
ENDBRANCH  15  17
ENDBRANCH   9  15
TORSDOF 10
ENDMDL
MODEL 3
REMARK VINA RESULT:      -1.5      1.817      2.681
REMARK  Name = 26743040
REMARK  13 active torsions:
REMARK  status: ('A' for Active; 'I' for Inactive)
REMARK    1  A    between atoms: O_3  and  C_21
REMARK    2  A    between atoms: O_3  and  C_28
REMARK    3  A    between atoms: O_4  and  C_25
REMARK    4  A    between atoms: O_4  and  C_29
REMARK    5  A    between atoms: O_5  and  C_27
REMARK    6  A    between atoms: O_5  and  C_30
REMARK    7  A    between atoms: N_7  and  C_20
REMARK    8  A    between atoms: C_9  and  C_15
REMARK    9  A    between atoms: C_10  and  C_14
REMARK   10  A    between atoms: C_14  and  C_16
REMARK   11  A    between atoms: C_15  and  C_17
REMARK   12  A    between atoms: C_19  and  C_21
REMARK   13  A    between atoms: C_20  and  C_22
REMARK                            x       y       z     vdW  Elec       q    Type
REMARK                         _______ _______ _______ _____ _____    ______ ____
ROOT
ATOM      6  N   UNL     1      -1.636  -0.591  26.560  0.00  0.00    -0.316 NA
ATOM      9  C   UNL     1      -2.444  -2.132  24.176  0.00  0.00    +0.004 C 
ATOM     10  C   UNL     1      -1.121  -1.333  24.248  0.00  0.00    +0.012 C 
ATOM     11  C   UNL     1      -2.889  -2.493  25.604  0.00  0.00    +0.019 C 
ATOM     12  C   UNL     1      -1.222  -0.153  25.227  0.00  0.00    +0.085 C 
ATOM     13  C   UNL     1      -2.926  -1.277  26.529  0.00  0.00    +0.081 C 
ATOM     31  H   UNL     1      -1.700   0.218  27.177  0.00  0.00    +0.122 HD
ENDROOT
BRANCH  10  14
ATOM     14  C   UNL     1      -0.636  -0.855  22.878  0.00  0.00    +0.064 C 
BRANCH  14  16
ATOM      2  O   UNL     1       2.053   1.431  23.587  0.00  0.00    -0.357 OA
ATOM      8  N   UNL     1       0.730   1.019  23.689  0.00  0.00    -0.083 NA
ATOM     16  C   UNL     1       0.666  -0.116  22.987  0.00  0.00    +0.084 A 
ATOM     18  C   UNL     1       1.906  -0.467  22.425  0.00  0.00    +0.073 A 
ATOM     19  C   UNL     1       2.743   0.539  22.832  0.00  0.00    +0.163 A 
BRANCH  19  21
ATOM     21  C   UNL     1       4.167   0.823  22.620  0.00  0.00    +0.236 C 
BRANCH  21   3
ATOM      3  O   UNL     1       4.878   0.748  23.859  0.00  0.00    -0.375 OA
ATOM     28  C   UNL     1       5.380  -0.559  24.085  0.00  0.00    +0.194 C 
ENDBRANCH  21   3
ENDBRANCH  19  21
ENDBRANCH  14  16
ENDBRANCH  10  14
BRANCH   9  15
ATOM     15  C   UNL     1      -3.568  -1.412  23.422  0.00  0.00    +0.099 C 
BRANCH  15  17
ATOM      1  O   UNL     1      -2.992   0.932  23.592  0.00  0.00    -0.276 OA
ATOM      7  N   UNL     1      -4.878   0.137  24.694  0.00  0.00    -0.311 N 
ATOM     17  C   UNL     1      -3.752   0.015  23.892  0.00  0.00    +0.214 C 
ATOM     32  H   UNL     1      -5.460  -0.675  24.873  0.00  0.00    +0.149 HD
BRANCH   7  20
ATOM     20  C   UNL     1      -5.293   1.389  25.283  0.00  0.00    +0.139 C 
BRANCH  20  22
ATOM     22  C   UNL     1      -4.229   2.441  25.176  0.00  0.00    -0.027 A 
ATOM     23  C   UNL     1      -3.142   2.425  26.050  0.00  0.00    +0.054 A 
ATOM     24  C   UNL     1      -4.324   3.435  24.202  0.00  0.00    +0.009 A 
ATOM     25  C   UNL     1      -2.151   3.402  25.950  0.00  0.00    +0.162 A 
ATOM     26  C   UNL     1      -3.334   4.411  24.102  0.00  0.00    +0.050 A 
ATOM     27  C   UNL     1      -2.247   4.395  24.976  0.00  0.00    +0.162 A 
BRANCH  25   4
ATOM      4  O   UNL     1      -1.093   3.374  26.808  0.00  0.00    -0.491 OA
ATOM     29  C   UNL     1       0.018   2.557  26.441  0.00  0.00    +0.277 C 
ENDBRANCH  25   4
BRANCH  27   5
ATOM      5  O   UNL     1      -1.286   5.354  24.867  0.00  0.00    -0.491 OA
ATOM     30  C   UNL     1      -0.185   5.074  24.005  0.00  0.00    +0.277 C 
ENDBRANCH  27   5
ENDBRANCH  20  22
ENDBRANCH   7  20
ENDBRANCH  15  17
ENDBRANCH   9  15
TORSDOF 10
ENDMDL
MODEL 4
REMARK VINA RESULT:      -1.4      2.044      7.183
REMARK  Name = 26743040
REMARK  13 active torsions:
REMARK  status: ('A' for Active; 'I' for Inactive)
REMARK    1  A    between atoms: O_3  and  C_21
REMARK    2  A    between atoms: O_3  and  C_28
REMARK    3  A    between atoms: O_4  and  C_25
REMARK    4  A    between atoms: O_4  and  C_29
REMARK    5  A    between atoms: O_5  and  C_27
REMARK    6  A    between atoms: O_5  and  C_30
REMARK    7  A    between atoms: N_7  and  C_20
REMARK    8  A    between atoms: C_9  and  C_15
REMARK    9  A    between atoms: C_10  and  C_14
REMARK   10  A    between atoms: C_14  and  C_16
REMARK   11  A    between atoms: C_15  and  C_17
REMARK   12  A    between atoms: C_19  and  C_21
REMARK   13  A    between atoms: C_20  and  C_22
REMARK                            x       y       z     vdW  Elec       q    Type
REMARK                         _______ _______ _______ _____ _____    ______ ____
ROOT
ATOM      6  N   UNL     1      -6.798   2.643  25.245  0.00  0.00    -0.316 NA
ATOM      9  C   UNL     1      -4.223   4.045  24.911  0.00  0.00    +0.004 C 
ATOM     10  C   UNL     1      -4.606   2.793  24.088  0.00  0.00    +0.012 C 
ATOM     11  C   UNL     1      -5.507   4.744  25.388  0.00  0.00    +0.019 C 
ATOM     12  C   UNL     1      -5.604   1.899  24.843  0.00  0.00    +0.085 C 
ATOM     13  C   UNL     1      -6.467   3.786  26.093  0.00  0.00    +0.081 C 
ATOM     31  H   UNL     1      -7.430   2.022  25.749  0.00  0.00    +0.122 HD
ENDROOT
BRANCH  10  14
ATOM     14  C   UNL     1      -3.393   1.980  23.635  0.00  0.00    +0.064 C 
BRANCH  14  16
ATOM      2  O   UNL     1      -3.269  -0.946  25.728  0.00  0.00    -0.357 OA
ATOM      8  N   UNL     1      -3.176   0.425  25.524  0.00  0.00    -0.083 NA
ATOM     16  C   UNL     1      -3.411   0.597  24.221  0.00  0.00    +0.084 A 
ATOM     18  C   UNL     1      -3.657  -0.617  23.557  0.00  0.00    +0.073 A 
ATOM     19  C   UNL     1      -3.555  -1.556  24.550  0.00  0.00    +0.163 A 
BRANCH  19  21
ATOM     21  C   UNL     1      -3.689  -3.017  24.584  0.00  0.00    +0.236 C 
BRANCH  21   3
ATOM      3  O   UNL     1      -2.566  -3.634  23.950  0.00  0.00    -0.375 OA
ATOM     28  C   UNL     1      -1.355  -2.987  24.309  0.00  0.00    +0.194 C 
ENDBRANCH  21   3
ENDBRANCH  19  21
ENDBRANCH  14  16
ENDBRANCH  10  14
BRANCH   9  15
ATOM     15  C   UNL     1      -3.291   3.754  26.093  0.00  0.00    +0.099 C 
BRANCH  15  17
ATOM      1  O   UNL     1      -1.401   4.974  25.204  0.00  0.00    -0.276 OA
ATOM      7  N   UNL     1      -1.073   2.851  26.093  0.00  0.00    -0.311 N 
ATOM     17  C   UNL     1      -1.833   3.957  25.738  0.00  0.00    +0.214 C 
ATOM     32  H   UNL     1      -1.516   2.060  26.549  0.00  0.00    +0.149 HD
BRANCH   7  20
ATOM     20  C   UNL     1       0.352   2.770  25.868  0.00  0.00    +0.139 C 
BRANCH  20  22
ATOM     22  C   UNL     1       0.691   1.828  24.749  0.00  0.00    -0.027 A 
ATOM     23  C   UNL     1       1.940   1.898  24.134  0.00  0.00    +0.054 A 
ATOM     24  C   UNL     1      -0.242   0.881  24.327  0.00  0.00    +0.009 A 
ATOM     25  C   UNL     1       2.257   1.023  23.096  0.00  0.00    +0.162 A 
ATOM     26  C   UNL     1       0.075   0.006  23.288  0.00  0.00    +0.050 A 
ATOM     27  C   UNL     1       1.324   0.076  22.673  0.00  0.00    +0.162 A 
BRANCH  25   4
ATOM      4  O   UNL     1       3.482   1.100  22.503  0.00  0.00    -0.491 OA
ATOM     29  C   UNL     1       4.561   0.433  23.157  0.00  0.00    +0.277 C 
ENDBRANCH  25   4
BRANCH  27   5
ATOM      5  O   UNL     1       1.621  -0.786  21.660  0.00  0.00    -0.491 OA
ATOM     30  C   UNL     1       0.652  -0.927  20.624  0.00  0.00    +0.277 C 
ENDBRANCH  27   5
ENDBRANCH  20  22
ENDBRANCH   7  20
ENDBRANCH  15  17
ENDBRANCH   9  15
TORSDOF 10
ENDMDL
MODEL 5
REMARK VINA RESULT:      -1.2      2.387      4.873
REMARK  Name = 26743040
REMARK  13 active torsions:
REMARK  status: ('A' for Active; 'I' for Inactive)
REMARK    1  A    between atoms: O_3  and  C_21
REMARK    2  A    between atoms: O_3  and  C_28
REMARK    3  A    between atoms: O_4  and  C_25
REMARK    4  A    between atoms: O_4  and  C_29
REMARK    5  A    between atoms: O_5  and  C_27
REMARK    6  A    between atoms: O_5  and  C_30
REMARK    7  A    between atoms: N_7  and  C_20
REMARK    8  A    between atoms: C_9  and  C_15
REMARK    9  A    between atoms: C_10  and  C_14
REMARK   10  A    between atoms: C_14  and  C_16
REMARK   11  A    between atoms: C_15  and  C_17
REMARK   12  A    between atoms: C_19  and  C_21
REMARK   13  A    between atoms: C_20  and  C_22
REMARK                            x       y       z     vdW  Elec       q    Type
REMARK                         _______ _______ _______ _____ _____    ______ ____
ROOT
ATOM      6  N   UNL     1       3.503   1.041  22.270  0.00  0.00    -0.316 NA
ATOM      9  C   UNL     1       0.875  -0.166  22.861  0.00  0.00    +0.004 C 
ATOM     10  C   UNL     1       1.331   1.184  23.466  0.00  0.00    +0.012 C 
ATOM     11  C   UNL     1       1.638  -0.410  21.548  0.00  0.00    +0.019 C 
ATOM     12  C   UNL     1       2.862   1.273  23.566  0.00  0.00    +0.085 C 
ATOM     13  C   UNL     1       3.150  -0.265  21.716  0.00  0.00    +0.081 C 
ATOM     31  H   UNL     1       4.514   1.099  22.378  0.00  0.00    +0.122 HD
ENDROOT
BRANCH  10  14
ATOM     14  C   UNL     1       0.686   1.481  24.820  0.00  0.00    +0.064 C 
BRANCH  14  16
ATOM      2  O   UNL     1      -0.677   4.737  24.118  0.00  0.00    -0.357 OA
ATOM      8  N   UNL     1       0.205   3.693  23.868  0.00  0.00    -0.083 NA
ATOM     16  C   UNL     1      -0.083   2.770  24.789  0.00  0.00    +0.084 A 
ATOM     18  C   UNL     1      -1.127   3.171  25.640  0.00  0.00    +0.073 A 
ATOM     19  C   UNL     1      -1.465   4.415  25.175  0.00  0.00    +0.163 A 
BRANCH  19  21
ATOM     21  C   UNL     1      -2.462   5.414  25.578  0.00  0.00    +0.236 C 
BRANCH  21   3
ATOM      3  O   UNL     1      -3.671   4.771  25.988  0.00  0.00    -0.375 OA
ATOM     28  C   UNL     1      -3.555   4.250  27.303  0.00  0.00    +0.194 C 
ENDBRANCH  21   3
ENDBRANCH  19  21
ENDBRANCH  14  16
ENDBRANCH  10  14
BRANCH   9  15
ATOM     15  C   UNL     1       1.028  -1.360  23.811  0.00  0.00    +0.099 C 
BRANCH  15  17
ATOM      1  O   UNL     1      -0.226  -1.706  25.850  0.00  0.00    -0.276 OA
ATOM      7  N   UNL     1      -1.340  -1.711  23.810  0.00  0.00    -0.311 N 
ATOM     17  C   UNL     1      -0.223  -1.609  24.626  0.00  0.00    +0.214 C 
ATOM     32  H   UNL     1      -1.243  -1.597  22.805  0.00  0.00    +0.149 HD
BRANCH   7  20
ATOM     20  C   UNL     1      -2.670  -1.950  24.321  0.00  0.00    +0.139 C 
BRANCH  20  22
ATOM     22  C   UNL     1      -3.445  -0.675  24.489  0.00  0.00    -0.027 A 
ATOM     23  C   UNL     1      -3.181   0.415  23.661  0.00  0.00    +0.054 A 
ATOM     24  C   UNL     1      -4.430  -0.582  25.472  0.00  0.00    +0.009 A 
ATOM     25  C   UNL     1      -3.902   1.599  23.815  0.00  0.00    +0.162 A 
ATOM     26  C   UNL     1      -5.151   0.602  25.627  0.00  0.00    +0.050 A 
ATOM     27  C   UNL     1      -4.887   1.693  24.798  0.00  0.00    +0.162 A 
BRANCH  25   4
ATOM      4  O   UNL     1      -3.637   2.657  22.999  0.00  0.00    -0.491 OA
ATOM     29  C   UNL     1      -2.631   2.471  22.004  0.00  0.00    +0.277 C 
ENDBRANCH  25   4
BRANCH  27   5
ATOM      5  O   UNL     1      -5.599   2.843  24.959  0.00  0.00    -0.491 OA
ATOM     30  C   UNL     1      -6.522   2.888  26.045  0.00  0.00    +0.277 C 
ENDBRANCH  27   5
ENDBRANCH  20  22
ENDBRANCH   7  20
ENDBRANCH  15  17
ENDBRANCH   9  15
TORSDOF 10
ENDMDL
MODEL 6
REMARK VINA RESULT:      -0.7      2.017      5.281
REMARK  Name = 26743040
REMARK  13 active torsions:
REMARK  status: ('A' for Active; 'I' for Inactive)
REMARK    1  A    between atoms: O_3  and  C_21
REMARK    2  A    between atoms: O_3  and  C_28
REMARK    3  A    between atoms: O_4  and  C_25
REMARK    4  A    between atoms: O_4  and  C_29
REMARK    5  A    between atoms: O_5  and  C_27
REMARK    6  A    between atoms: O_5  and  C_30
REMARK    7  A    between atoms: N_7  and  C_20
REMARK    8  A    between atoms: C_9  and  C_15
REMARK    9  A    between atoms: C_10  and  C_14
REMARK   10  A    between atoms: C_14  and  C_16
REMARK   11  A    between atoms: C_15  and  C_17
REMARK   12  A    between atoms: C_19  and  C_21
REMARK   13  A    between atoms: C_20  and  C_22
REMARK                            x       y       z     vdW  Elec       q    Type
REMARK                         _______ _______ _______ _____ _____    ______ ____
ROOT
ATOM      6  N   UNL     1      -0.500   5.651  24.842  0.00  0.00    -0.316 NA
ATOM      9  C   UNL     1      -2.945   4.163  25.561  0.00  0.00    +0.004 C 
ATOM     10  C   UNL     1      -1.560   3.485  25.437  0.00  0.00    +0.012 C 
ATOM     11  C   UNL     1      -2.747   5.657  25.869  0.00  0.00    +0.019 C 
ATOM     12  C   UNL     1      -0.641   4.245  24.465  0.00  0.00    +0.085 C 
ATOM     13  C   UNL     1      -1.792   6.334  24.887  0.00  0.00    +0.081 C 
ATOM     31  H   UNL     1       0.106   6.122  24.172  0.00  0.00    +0.122 HD
ENDROOT
BRANCH  10  14
ATOM     14  C   UNL     1      -1.648   2.009  25.050  0.00  0.00    +0.064 C 
BRANCH  14  16
ATOM      2  O   UNL     1       1.755   1.339  24.086  0.00  0.00    -0.357 OA
ATOM      8  N   UNL     1       0.803   1.966  24.880  0.00  0.00    -0.083 NA
ATOM     16  C   UNL     1      -0.373   1.532  24.416  0.00  0.00    +0.084 A 
ATOM     18  C   UNL     1      -0.226   0.639  23.341  0.00  0.00    +0.073 A 
ATOM     19  C   UNL     1       1.131   0.553  23.173  0.00  0.00    +0.163 A 
BRANCH  19  21
ATOM     21  C   UNL     1       1.995  -0.188  22.246  0.00  0.00    +0.236 C 
BRANCH  21   3
ATOM      3  O   UNL     1       3.303  -0.342  22.802  0.00  0.00    -0.375 OA
ATOM     28  C   UNL     1       4.130   0.766  22.484  0.00  0.00    +0.194 C 
ENDBRANCH  21   3
ENDBRANCH  19  21
ENDBRANCH  14  16
ENDBRANCH  10  14
BRANCH   9  15
ATOM     15  C   UNL     1      -3.845   3.974  24.333  0.00  0.00    +0.099 C 
BRANCH  15  17
ATOM      1  O   UNL     1      -3.863   1.889  23.106  0.00  0.00    -0.276 OA
ATOM      7  N   UNL     1      -4.956   2.018  25.154  0.00  0.00    -0.311 N 
ATOM     17  C   UNL     1      -4.203   2.522  24.102  0.00  0.00    +0.214 C 
ATOM     32  H   UNL     1      -5.174   2.613  25.948  0.00  0.00    +0.149 HD
BRANCH   7  20
ATOM     20  C   UNL     1      -5.438   0.657  25.197  0.00  0.00    +0.139 C 
BRANCH  20  22
ATOM     22  C   UNL     1      -4.314  -0.337  25.194  0.00  0.00    -0.027 A 
ATOM     23  C   UNL     1      -4.347  -1.424  24.320  0.00  0.00    +0.054 A 
ATOM     24  C   UNL     1      -3.236  -0.175  26.064  0.00  0.00    +0.009 A 
ATOM     25  C   UNL     1      -3.302  -2.348  24.316  0.00  0.00    +0.162 A 
ATOM     26  C   UNL     1      -2.191  -1.099  26.060  0.00  0.00    +0.050 A 
ATOM     27  C   UNL     1      -2.224  -2.185  25.186  0.00  0.00    +0.162 A 
BRANCH  25   4
ATOM      4  O   UNL     1      -3.344  -3.404  23.456  0.00  0.00    -0.491 OA
ATOM     29  C   UNL     1      -4.580  -3.643  22.785  0.00  0.00    +0.277 C 
ENDBRANCH  25   4
BRANCH  27   5
ATOM      5  O   UNL     1      -1.196  -3.080  25.191  0.00  0.00    -0.491 OA
ATOM     30  C   UNL     1       0.121  -2.554  25.341  0.00  0.00    +0.277 C 
ENDBRANCH  27   5
ENDBRANCH  20  22
ENDBRANCH   7  20
ENDBRANCH  15  17
ENDBRANCH   9  15
TORSDOF 10
ENDMDL
MODEL 7
REMARK VINA RESULT:      -0.6      2.584      3.792
REMARK  Name = 26743040
REMARK  13 active torsions:
REMARK  status: ('A' for Active; 'I' for Inactive)
REMARK    1  A    between atoms: O_3  and  C_21
REMARK    2  A    between atoms: O_3  and  C_28
REMARK    3  A    between atoms: O_4  and  C_25
REMARK    4  A    between atoms: O_4  and  C_29
REMARK    5  A    between atoms: O_5  and  C_27
REMARK    6  A    between atoms: O_5  and  C_30
REMARK    7  A    between atoms: N_7  and  C_20
REMARK    8  A    between atoms: C_9  and  C_15
REMARK    9  A    between atoms: C_10  and  C_14
REMARK   10  A    between atoms: C_14  and  C_16
REMARK   11  A    between atoms: C_15  and  C_17
REMARK   12  A    between atoms: C_19  and  C_21
REMARK   13  A    between atoms: C_20  and  C_22
REMARK                            x       y       z     vdW  Elec       q    Type
REMARK                         _______ _______ _______ _____ _____    ______ ____
ROOT
ATOM      6  N   UNL     1       2.654   1.040  23.058  0.00  0.00    -0.316 NA
ATOM      9  C   UNL     1      -0.076  -0.083  23.076  0.00  0.00    +0.004 C 
ATOM     10  C   UNL     1       0.230   1.378  23.483  0.00  0.00    +0.012 C 
ATOM     11  C   UNL     1       1.037  -0.586  22.141  0.00  0.00    +0.019 C 
ATOM     12  C   UNL     1       1.664   1.531  24.018  0.00  0.00    +0.085 C 
ATOM     13  C   UNL     1       2.433  -0.365  22.721  0.00  0.00    +0.081 C 
ATOM     31  H   UNL     1       3.588   1.149  23.451  0.00  0.00    +0.122 HD
ENDROOT
BRANCH  10  14
ATOM     14  C   UNL     1      -0.779   1.945  24.482  0.00  0.00    +0.064 C 
BRANCH  14  16
ATOM      2  O   UNL     1       1.141   3.404  27.154  0.00  0.00    -0.357 OA
ATOM      8  N   UNL     1       0.720   3.348  25.831  0.00  0.00    -0.083 NA
ATOM     16  C   UNL     1      -0.119   2.309  25.780  0.00  0.00    +0.084 A 
ATOM     18  C   UNL     1      -0.265   1.678  27.028  0.00  0.00    +0.073 A 
ATOM     19  C   UNL     1       0.548   2.406  27.857  0.00  0.00    +0.163 A 
BRANCH  19  21
ATOM     21  C   UNL     1       0.884   2.319  29.283  0.00  0.00    +0.236 C 
BRANCH  21   3
ATOM      3  O   UNL     1       2.265   1.988  29.448  0.00  0.00    -0.375 OA
ATOM     28  C   UNL     1       3.100   3.082  29.101  0.00  0.00    +0.194 C 
ENDBRANCH  21   3
ENDBRANCH  19  21
ENDBRANCH  14  16
ENDBRANCH  10  14
BRANCH   9  15
ATOM     15  C   UNL     1      -0.261  -1.036  24.263  0.00  0.00    +0.099 C 
BRANCH  15  17
ATOM      1  O   UNL     1      -1.964  -1.198  25.974  0.00  0.00    -0.276 OA
ATOM      7  N   UNL     1      -2.592  -0.796  23.772  0.00  0.00    -0.311 N 
ATOM     17  C   UNL     1      -1.679  -1.024  24.792  0.00  0.00    +0.214 C 
ATOM     32  H   UNL     1      -2.261  -0.644  22.824  0.00  0.00    +0.149 HD
BRANCH   7  20
ATOM     20  C   UNL     1      -4.019  -0.736  23.990  0.00  0.00    +0.139 C 
BRANCH  20  22
ATOM     22  C   UNL     1      -4.444   0.586  24.561  0.00  0.00    -0.027 A 
ATOM     23  C   UNL     1      -3.802   1.757  24.162  0.00  0.00    +0.054 A 
ATOM     24  C   UNL     1      -5.484   0.643  25.490  0.00  0.00    +0.009 A 
ATOM     25  C   UNL     1      -4.198   2.986  24.690  0.00  0.00    +0.162 A 
ATOM     26  C   UNL     1      -5.880   1.872  26.018  0.00  0.00    +0.050 A 
ATOM     27  C   UNL     1      -5.237   3.043  25.619  0.00  0.00    +0.162 A 
BRANCH  25   4
ATOM      4  O   UNL     1      -3.563   4.124  24.291  0.00  0.00    -0.491 OA
ATOM     29  C   UNL     1      -2.607   4.682  25.191  0.00  0.00    +0.277 C 
ENDBRANCH  25   4
BRANCH  27   5
ATOM      5  O   UNL     1      -5.634   4.237  26.142  0.00  0.00    -0.491 OA
ATOM     30  C   UNL     1      -6.323   5.130  25.270  0.00  0.00    +0.277 C 
ENDBRANCH  27   5
ENDBRANCH  20  22
ENDBRANCH   7  20
ENDBRANCH  15  17
ENDBRANCH   9  15
TORSDOF 10
ENDMDL
MODEL 8
REMARK VINA RESULT:      -0.6      2.080      7.755
REMARK  Name = 26743040
REMARK  13 active torsions:
REMARK  status: ('A' for Active; 'I' for Inactive)
REMARK    1  A    between atoms: O_3  and  C_21
REMARK    2  A    between atoms: O_3  and  C_28
REMARK    3  A    between atoms: O_4  and  C_25
REMARK    4  A    between atoms: O_4  and  C_29
REMARK    5  A    between atoms: O_5  and  C_27
REMARK    6  A    between atoms: O_5  and  C_30
REMARK    7  A    between atoms: N_7  and  C_20
REMARK    8  A    between atoms: C_9  and  C_15
REMARK    9  A    between atoms: C_10  and  C_14
REMARK   10  A    between atoms: C_14  and  C_16
REMARK   11  A    between atoms: C_15  and  C_17
REMARK   12  A    between atoms: C_19  and  C_21
REMARK   13  A    between atoms: C_20  and  C_22
REMARK                            x       y       z     vdW  Elec       q    Type
REMARK                         _______ _______ _______ _____ _____    ______ ____
ROOT
ATOM      6  N   UNL     1      -1.893   5.699  25.330  0.00  0.00    -0.316 NA
ATOM      9  C   UNL     1      -1.866   2.880  24.457  0.00  0.00    +0.004 C 
ATOM     10  C   UNL     1      -3.175   3.678  24.668  0.00  0.00    +0.012 C 
ATOM     11  C   UNL     1      -0.721   3.864  24.163  0.00  0.00    +0.019 C 
ATOM     12  C   UNL     1      -2.993   4.807  25.697  0.00  0.00    +0.085 C 
ATOM     13  C   UNL     1      -0.627   4.979  25.204  0.00  0.00    +0.081 C 
ATOM     31  H   UNL     1      -1.798   6.426  26.037  0.00  0.00    +0.122 HD
ENDROOT
BRANCH  10  14
ATOM     14  C   UNL     1      -4.362   2.792  25.048  0.00  0.00    +0.064 C 
BRANCH  14  16
ATOM      2  O   UNL     1      -3.679  -0.159  23.103  0.00  0.00    -0.357 OA
ATOM      8  N   UNL     1      -3.689   1.218  23.286  0.00  0.00    -0.083 NA
ATOM     16  C   UNL     1      -4.202   1.401  24.506  0.00  0.00    +0.084 A 
ATOM     18  C   UNL     1      -4.530   0.188  25.135  0.00  0.00    +0.073 A 
ATOM     19  C   UNL     1      -4.182  -0.762  24.211  0.00  0.00    +0.163 A 
BRANCH  19  21
ATOM     21  C   UNL     1      -4.245  -2.228  24.188  0.00  0.00    +0.236 C 
BRANCH  21   3
ATOM      3  O   UNL     1      -3.274  -2.780  25.080  0.00  0.00    -0.375 OA
ATOM     28  C   UNL     1      -2.009  -2.904  24.449  0.00  0.00    +0.194 C 
ENDBRANCH  21   3
ENDBRANCH  19  21
ENDBRANCH  14  16
ENDBRANCH  10  14
BRANCH   9  15
ATOM     15  C   UNL     1      -1.504   1.955  25.625  0.00  0.00    +0.099 C 
BRANCH  15  17
ATOM      1  O   UNL     1      -0.556  -0.253  25.905  0.00  0.00    -0.276 OA
ATOM      7  N   UNL     1      -0.516   0.749  23.808  0.00  0.00    -0.311 N 
ATOM     17  C   UNL     1      -0.813   0.690  25.162  0.00  0.00    +0.214 C 
ATOM     32  H   UNL     1      -0.785   1.566  23.267  0.00  0.00    +0.149 HD
BRANCH   7  20
ATOM     20  C   UNL     1       0.146  -0.322  23.099  0.00  0.00    +0.139 C 
BRANCH  20  22
ATOM     22  C   UNL     1       1.638  -0.154  23.095  0.00  0.00    -0.027 A 
ATOM     23  C   UNL     1       2.461  -1.228  23.433  0.00  0.00    +0.054 A 
ATOM     24  C   UNL     1       2.202   1.075  22.751  0.00  0.00    +0.009 A 
ATOM     25  C   UNL     1       3.847  -1.073  23.428  0.00  0.00    +0.162 A 
ATOM     26  C   UNL     1       3.588   1.229  22.745  0.00  0.00    +0.050 A 
ATOM     27  C   UNL     1       4.411   0.155  23.083  0.00  0.00    +0.162 A 
BRANCH  25   4
ATOM      4  O   UNL     1       4.641  -2.130  23.758  0.00  0.00    -0.491 OA
ATOM     29  C   UNL     1       5.829  -1.842  24.495  0.00  0.00    +0.277 C 
ENDBRANCH  25   4
BRANCH  27   5
ATOM      5  O   UNL     1       5.763   0.319  23.074  0.00  0.00    -0.491 OA
ATOM     30  C   UNL     1       6.326   1.130  24.104  0.00  0.00    +0.277 C 
ENDBRANCH  27   5
ENDBRANCH  20  22
ENDBRANCH   7  20
ENDBRANCH  15  17
ENDBRANCH   9  15
TORSDOF 10
ENDMDL
MODEL 9
REMARK VINA RESULT:       1.5      2.603      6.375
REMARK  Name = 26743040
REMARK  13 active torsions:
REMARK  status: ('A' for Active; 'I' for Inactive)
REMARK    1  A    between atoms: O_3  and  C_21
REMARK    2  A    between atoms: O_3  and  C_28
REMARK    3  A    between atoms: O_4  and  C_25
REMARK    4  A    between atoms: O_4  and  C_29
REMARK    5  A    between atoms: O_5  and  C_27
REMARK    6  A    between atoms: O_5  and  C_30
REMARK    7  A    between atoms: N_7  and  C_20
REMARK    8  A    between atoms: C_9  and  C_15
REMARK    9  A    between atoms: C_10  and  C_14
REMARK   10  A    between atoms: C_14  and  C_16
REMARK   11  A    between atoms: C_15  and  C_17
REMARK   12  A    between atoms: C_19  and  C_21
REMARK   13  A    between atoms: C_20  and  C_22
REMARK                            x       y       z     vdW  Elec       q    Type
REMARK                         _______ _______ _______ _____ _____    ______ ____
ROOT
ATOM      6  N   UNL     1      -5.177  -2.806  23.383  0.00  0.00    -0.316 NA
ATOM      9  C   UNL     1      -2.754  -2.655  25.061  0.00  0.00    +0.004 C 
ATOM     10  C   UNL     1      -3.676  -1.438  24.811  0.00  0.00    +0.012 C 
ATOM     11  C   UNL     1      -3.567  -3.947  24.868  0.00  0.00    +0.019 C 
ATOM     12  C   UNL     1      -4.422  -1.556  23.472  0.00  0.00    +0.085 C 
ATOM     13  C   UNL     1      -4.313  -3.974  23.535  0.00  0.00    +0.081 C 
ATOM     31  H   UNL     1      -5.650  -2.852  22.481  0.00  0.00    +0.122 HD
ENDROOT
BRANCH  10  14
ATOM     14  C   UNL     1      -2.938  -0.101  24.899  0.00  0.00    +0.064 C 
BRANCH  14  16
ATOM      2  O   UNL     1      -4.823   2.876  24.161  0.00  0.00    -0.357 OA
ATOM      8  N   UNL     1      -3.808   1.966  23.895  0.00  0.00    -0.083 NA
ATOM     16  C   UNL     1      -3.896   1.055  24.868  0.00  0.00    +0.084 A 
ATOM     18  C   UNL     1      -4.937   1.335  25.769  0.00  0.00    +0.073 A 
ATOM     19  C   UNL     1      -5.488   2.490  25.280  0.00  0.00    +0.163 A 
BRANCH  19  21
ATOM     21  C   UNL     1      -6.601   3.346  25.708  0.00  0.00    +0.236 C 
BRANCH  21   3
ATOM      3  O   UNL     1      -6.246   4.725  25.578  0.00  0.00    -0.375 OA
ATOM     28  C   UNL     1      -4.872   4.931  25.866  0.00  0.00    +0.194 C 
ENDBRANCH  21   3
ENDBRANCH  19  21
ENDBRANCH  14  16
ENDBRANCH  10  14
BRANCH   9  15
ATOM     15  C   UNL     1      -1.491  -2.672  24.191  0.00  0.00    +0.099 C 
BRANCH  15  17
ATOM      1  O   UNL     1      -0.134  -1.393  25.732  0.00  0.00    -0.276 OA
ATOM      7  N   UNL     1      -0.116  -0.848  23.472  0.00  0.00    -0.311 N 
ATOM     17  C   UNL     1      -0.513  -1.584  24.580  0.00  0.00    +0.214 C 
ATOM     32  H   UNL     1      -0.470  -1.093  22.552  0.00  0.00    +0.149 HD
BRANCH   7  20
ATOM     20  C   UNL     1       0.812   0.255  23.550  0.00  0.00    +0.139 C 
BRANCH  20  22
ATOM     22  C   UNL     1       0.172   1.490  24.114  0.00  0.00    -0.027 A 
ATOM     23  C   UNL     1       0.253   1.755  25.481  0.00  0.00    +0.054 A 
ATOM     24  C   UNL     1      -0.503   2.373  23.272  0.00  0.00    +0.009 A 
ATOM     25  C   UNL     1      -0.341   2.903  26.006  0.00  0.00    +0.162 A 
ATOM     26  C   UNL     1      -1.097   3.521  23.797  0.00  0.00    +0.050 A 
ATOM     27  C   UNL     1      -1.016   3.786  25.164  0.00  0.00    +0.162 A 
BRANCH  25   4
ATOM      4  O   UNL     1      -0.253   3.152  27.342  0.00  0.00    -0.491 OA
ATOM     29  C   UNL     1       0.602   2.302  28.105  0.00  0.00    +0.277 C 
ENDBRANCH  25   4
BRANCH  27   5
ATOM      5  O   UNL     1      -1.599   4.911  25.663  0.00  0.00    -0.491 OA
ATOM     30  C   UNL     1      -1.385   6.126  24.946  0.00  0.00    +0.277 C 
ENDBRANCH  27   5
ENDBRANCH  20  22
ENDBRANCH   7  20
ENDBRANCH  15  17
ENDBRANCH   9  15
TORSDOF 10
ENDMDL
MODEL 10
REMARK VINA RESULT:       1.7      2.018      8.040
REMARK  Name = 26743040
REMARK  13 active torsions:
REMARK  status: ('A' for Active; 'I' for Inactive)
REMARK    1  A    between atoms: O_3  and  C_21
REMARK    2  A    between atoms: O_3  and  C_28
REMARK    3  A    between atoms: O_4  and  C_25
REMARK    4  A    between atoms: O_4  and  C_29
REMARK    5  A    between atoms: O_5  and  C_27
REMARK    6  A    between atoms: O_5  and  C_30
REMARK    7  A    between atoms: N_7  and  C_20
REMARK    8  A    between atoms: C_9  and  C_15
REMARK    9  A    between atoms: C_10  and  C_14
REMARK   10  A    between atoms: C_14  and  C_16
REMARK   11  A    between atoms: C_15  and  C_17
REMARK   12  A    between atoms: C_19  and  C_21
REMARK   13  A    between atoms: C_20  and  C_22
REMARK                            x       y       z     vdW  Elec       q    Type
REMARK                         _______ _______ _______ _____ _____    ______ ____
ROOT
ATOM      6  N   UNL     1      -3.493  -3.292  24.517  0.00  0.00    -0.316 NA
ATOM      9  C   UNL     1      -2.850  -0.412  24.550  0.00  0.00    +0.004 C 
ATOM     10  C   UNL     1      -4.283  -0.952  24.776  0.00  0.00    +0.012 C 
ATOM     11  C   UNL     1      -1.837  -1.506  24.927  0.00  0.00    +0.019 C 
ATOM     12  C   UNL     1      -4.492  -2.312  24.089  0.00  0.00    +0.085 C 
ATOM     13  C   UNL     1      -2.132  -2.838  24.239  0.00  0.00    +0.081 C 
ATOM     31  H   UNL     1      -3.659  -4.175  24.036  0.00  0.00    +0.122 HD
ENDROOT
BRANCH  10  14
ATOM     14  C   UNL     1      -5.369   0.037  24.351  0.00  0.00    +0.064 C 
BRANCH  14  16
ATOM      2  O   UNL     1      -5.537   2.959  26.446  0.00  0.00    -0.357 OA
ATOM      8  N   UNL     1      -5.956   1.688  26.072  0.00  0.00    -0.083 NA
ATOM     16  C   UNL     1      -5.192   1.367  25.025  0.00  0.00    +0.084 A 
ATOM     18  C   UNL     1      -4.281   2.385  24.696  0.00  0.00    +0.073 A 
ATOM     19  C   UNL     1      -4.539   3.363  25.619  0.00  0.00    +0.163 A 
BRANCH  19  21
ATOM     21  C   UNL     1      -3.976   4.694  25.874  0.00  0.00    +0.236 C 
BRANCH  21   3
ATOM      3  O   UNL     1      -2.618   4.584  26.310  0.00  0.00    -0.375 OA
ATOM     28  C   UNL     1      -1.716   4.902  25.263  0.00  0.00    +0.194 C 
ENDBRANCH  21   3
ENDBRANCH  19  21
ENDBRANCH  14  16
ENDBRANCH  10  14
BRANCH   9  15
ATOM     15  C   UNL     1      -2.593   0.102  23.128  0.00  0.00    +0.099 C 
BRANCH  15  17
ATOM      1  O   UNL     1      -2.033   2.416  22.699  0.00  0.00    -0.276 OA
ATOM      7  N   UNL     1      -0.429   1.004  23.615  0.00  0.00    -0.311 N 
ATOM     17  C   UNL     1      -1.685   1.313  23.111  0.00  0.00    +0.214 C 
ATOM     32  H   UNL     1      -0.238   0.065  23.952  0.00  0.00    +0.149 HD
BRANCH   7  20
ATOM     20  C   UNL     1       0.639   1.971  23.715  0.00  0.00    +0.139 C 
BRANCH  20  22
ATOM     22  C   UNL     1       1.976   1.366  23.399  0.00  0.00    -0.027 A 
ATOM     23  C   UNL     1       2.178  -0.004  23.567  0.00  0.00    +0.054 A 
ATOM     24  C   UNL     1       3.015   2.172  22.935  0.00  0.00    +0.009 A 
ATOM     25  C   UNL     1       3.419  -0.568  23.272  0.00  0.00    +0.162 A 
ATOM     26  C   UNL     1       4.256   1.608  22.640  0.00  0.00    +0.050 A 
ATOM     27  C   UNL     1       4.459   0.238  22.808  0.00  0.00    +0.162 A 
BRANCH  25   4
ATOM      4  O   UNL     1       3.604  -1.907  23.439  0.00  0.00    -0.491 OA
ATOM     29  C   UNL     1       4.797  -2.318  24.106  0.00  0.00    +0.277 C 
ENDBRANCH  25   4
BRANCH  27   5
ATOM      5  O   UNL     1       5.675  -0.300  22.515  0.00  0.00    -0.491 OA
ATOM     30  C   UNL     1       6.750   0.008  23.401  0.00  0.00    +0.277 C 
ENDBRANCH  27   5
ENDBRANCH  20  22
ENDBRANCH   7  20
ENDBRANCH  15  17
ENDBRANCH   9  15
TORSDOF 10
ENDMDL
