MODEL 1
REMARK VINA RESULT:      -3.3      0.000      0.000
REMARK  Name = 26744309
REMARK  5 active torsions:
REMARK  status: ('A' for Active; 'I' for Inactive)
REMARK    1  A    between atoms: O_1  and  C_15
REMARK    2  A    between atoms: N_5  and  C_9
REMARK    3  A    between atoms: N_8  and  C_24
REMARK    4  A    between atoms: C_10  and  C_19
REMARK    5  A    between atoms: C_20  and  C_21
REMARK                            x       y       z     vdW  Elec       q    Type
REMARK                         _______ _______ _______ _____ _____    ______ ____
ROOT
ATOM      2  O   UNL     1      -1.073   2.298  25.164  0.00  0.00    -0.336 OA
ATOM      6  N   UNL     1      -1.081   1.017  23.326  0.00  0.00    -0.190 NA
ATOM      7  N   UNL     1       0.268   2.009  24.885  0.00  0.00    -0.056 NA
ATOM     19  C   UNL     1      -1.800   1.675  24.199  0.00  0.00    +0.245 A 
ATOM     20  C   UNL     1       0.182   1.251  23.788  0.00  0.00    +0.202 A 
ENDROOT
BRANCH  20  21
ATOM     21  C   UNL     1       1.337   0.710  23.131  0.00  0.00    +0.025 A 
ATOM     22  C   UNL     1       2.599   0.844  23.711  0.00  0.00    +0.044 A 
ATOM     23  C   UNL     1       1.197   0.048  21.911  0.00  0.00    +0.012 A 
ATOM     24  C   UNL     1       3.720   0.317  23.070  0.00  0.00    +0.127 A 
ATOM     25  C   UNL     1       2.319  -0.478  21.271  0.00  0.00    +0.003 A 
ATOM     26  C   UNL     1       3.580  -0.345  21.850  0.00  0.00    +0.033 A 
BRANCH  24   8
ATOM      3  O   UNL     1       5.093   0.908  24.827  0.00  0.00    -0.126 OA
ATOM      4  O   UNL     1       6.017   0.115  23.000  0.00  0.00    -0.126 OA
ATOM      8  N   UNL     1       5.005   0.453  23.661  0.00  0.00    +0.056 N 
ENDBRANCH  24   8
ENDBRANCH  20  21
BRANCH  19  10
ATOM      5  N   UNL     1      -3.880   1.214  25.487  0.00  0.00    -0.286 NA
ATOM     10  C   UNL     1      -3.304   1.836  24.278  0.00  0.00    +0.149 C 
ATOM     11  C   UNL     1      -5.075   1.987  25.820  0.00  0.00    +0.116 C 
ATOM     14  C   UNL     1      -3.742   3.310  24.345  0.00  0.00    +0.061 C 
ATOM     15  C   UNL     1      -4.598   3.411  25.602  0.00  0.00    +0.130 C 
BRANCH   5   9
ATOM      9  C   UNL     1      -4.173  -0.208  25.321  0.00  0.00    +0.058 C 
ATOM     12  C   UNL     1      -4.300  -0.542  23.830  0.00  0.00    +0.019 C 
ATOM     13  C   UNL     1      -3.076  -1.048  25.985  0.00  0.00    +0.019 C 
ATOM     16  C   UNL     1      -4.531  -2.037  23.613  0.00  0.00    +0.002 C 
ATOM     17  C   UNL     1      -3.310  -2.541  25.765  0.00  0.00    +0.002 C 
ATOM     18  C   UNL     1      -3.447  -2.878  24.283  0.00  0.00    +0.000 C 
ENDBRANCH   5   9
BRANCH  15   1
ATOM      1  O   UNL     1      -5.677   4.302  25.404  0.00  0.00    -0.390 OA
ATOM     27  H   UNL     1      -5.302   5.169  25.172  0.00  0.00    +0.210 HD
ENDBRANCH  15   1
ENDBRANCH  19  10
TORSDOF 5
ENDMDL
MODEL 2
REMARK VINA RESULT:      -1.0      1.645      3.468
REMARK  Name = 26744309
REMARK  5 active torsions:
REMARK  status: ('A' for Active; 'I' for Inactive)
REMARK    1  A    between atoms: O_1  and  C_15
REMARK    2  A    between atoms: N_5  and  C_9
REMARK    3  A    between atoms: N_8  and  C_24
REMARK    4  A    between atoms: C_10  and  C_19
REMARK    5  A    between atoms: C_20  and  C_21
REMARK                            x       y       z     vdW  Elec       q    Type
REMARK                         _______ _______ _______ _____ _____    ______ ____
ROOT
ATOM      2  O   UNL     1      -0.852   1.171  25.224  0.00  0.00    -0.336 OA
ATOM      6  N   UNL     1      -0.326  -0.496  23.823  0.00  0.00    -0.190 NA
ATOM      7  N   UNL     1       0.426   1.464  24.732  0.00  0.00    -0.056 NA
ATOM     19  C   UNL     1      -1.221   0.001  24.639  0.00  0.00    +0.245 A 
ATOM     20  C   UNL     1       0.667   0.437  23.913  0.00  0.00    +0.202 A 
ENDROOT
BRANCH  20  21
ATOM     21  C   UNL     1       1.888   0.310  23.171  0.00  0.00    +0.025 A 
ATOM     22  C   UNL     1       3.116   0.392  23.827  0.00  0.00    +0.044 A 
ATOM     23  C   UNL     1       1.846   0.103  21.791  0.00  0.00    +0.012 A 
ATOM     24  C   UNL     1       4.303   0.268  23.104  0.00  0.00    +0.127 A 
ATOM     25  C   UNL     1       3.033  -0.021  21.069  0.00  0.00    +0.003 A 
ATOM     26  C   UNL     1       4.261   0.061  21.725  0.00  0.00    +0.033 A 
BRANCH  24   8
ATOM      3  O   UNL     1       6.582  -0.068  23.189  0.00  0.00    -0.126 OA
ATOM      4  O   UNL     1       5.596   0.844  24.925  0.00  0.00    -0.126 OA
ATOM      8  N   UNL     1       5.553   0.352  23.771  0.00  0.00    +0.056 N 
ENDBRANCH  24   8
ENDBRANCH  20  21
BRANCH  19  10
ATOM      5  N   UNL     1      -3.687   0.218  24.386  0.00  0.00    -0.286 NA
ATOM     10  C   UNL     1      -2.585  -0.540  25.012  0.00  0.00    +0.149 C 
ATOM     11  C   UNL     1      -4.789  -0.726  24.208  0.00  0.00    +0.116 C 
ATOM     14  C   UNL     1      -2.795  -1.994  24.552  0.00  0.00    +0.061 C 
ATOM     15  C   UNL     1      -4.065  -1.962  23.710  0.00  0.00    +0.130 C 
BRANCH   5   9
ATOM      9  C   UNL     1      -4.089   1.394  25.156  0.00  0.00    +0.058 C 
ATOM     12  C   UNL     1      -3.656   2.668  24.423  0.00  0.00    +0.019 C 
ATOM     13  C   UNL     1      -5.605   1.374  25.383  0.00  0.00    +0.019 C 
ATOM     16  C   UNL     1      -4.126   3.921  25.160  0.00  0.00    +0.002 C 
ATOM     17  C   UNL     1      -6.072   2.629  26.120  0.00  0.00    +0.002 C 
ATOM     18  C   UNL     1      -5.633   3.901  25.400  0.00  0.00    +0.000 C 
ENDBRANCH   5   9
BRANCH  15   1
ATOM      1  O   UNL     1      -4.828  -3.135  23.909  0.00  0.00    -0.390 OA
ATOM     27  H   UNL     1      -4.212  -3.887  23.924  0.00  0.00    +0.210 HD
ENDBRANCH  15   1
ENDBRANCH  19  10
TORSDOF 5
ENDMDL
MODEL 3
REMARK VINA RESULT:      -0.2     15.297     18.132
REMARK  Name = 26744309
REMARK  5 active torsions:
REMARK  status: ('A' for Active; 'I' for Inactive)
REMARK    1  A    between atoms: O_1  and  C_15
REMARK    2  A    between atoms: N_5  and  C_9
REMARK    3  A    between atoms: N_8  and  C_24
REMARK    4  A    between atoms: C_10  and  C_19
REMARK    5  A    between atoms: C_20  and  C_21
REMARK                            x       y       z     vdW  Elec       q    Type
REMARK                         _______ _______ _______ _____ _____    ______ ____
ROOT
ATOM      2  O   UNL     1      -2.808  -9.195  10.073  0.00  0.00    -0.336 OA
ATOM      6  N   UNL     1      -4.456  -9.853  11.441  0.00  0.00    -0.190 NA
ATOM      7  N   UNL     1      -4.000  -9.031   9.355  0.00  0.00    -0.056 NA
ATOM     19  C   UNL     1      -3.166  -9.683  11.290  0.00  0.00    +0.245 A 
ATOM     20  C   UNL     1      -4.925  -9.439  10.228  0.00  0.00    +0.202 A 
ENDROOT
BRANCH  20  21
ATOM     21  C   UNL     1      -6.326  -9.448   9.920  0.00  0.00    +0.025 A 
ATOM     22  C   UNL     1      -6.968  -8.266   9.549  0.00  0.00    +0.044 A 
ATOM     23  C   UNL     1      -7.047 -10.640   9.990  0.00  0.00    +0.012 A 
ATOM     24  C   UNL     1      -8.330  -8.276   9.249  0.00  0.00    +0.127 A 
ATOM     25  C   UNL     1      -8.409 -10.650   9.690  0.00  0.00    +0.003 A 
ATOM     26  C   UNL     1      -9.051  -9.469   9.319  0.00  0.00    +0.033 A 
BRANCH  24   8
ATOM      3  O   UNL     1      -8.306  -6.147   8.366  0.00  0.00    -0.126 OA
ATOM      4  O   UNL     1     -10.221  -6.970   9.053  0.00  0.00    -0.126 OA
ATOM      8  N   UNL     1      -8.984  -7.074   8.871  0.00  0.00    +0.056 N 
ENDBRANCH  24   8
ENDBRANCH  20  21
BRANCH  19  10
ATOM      5  N   UNL     1      -1.484  -8.711  12.845  0.00  0.00    -0.286 NA
ATOM     10  C   UNL     1      -2.042  -9.951  12.268  0.00  0.00    +0.149 C 
ATOM     11  C   UNL     1      -0.994  -9.059  14.177  0.00  0.00    +0.116 C 
ATOM     14  C   UNL     1      -2.495 -10.781  13.483  0.00  0.00    +0.061 C 
ATOM     15  C   UNL     1      -2.108  -9.948  14.698  0.00  0.00    +0.130 C 
BRANCH   5   9
ATOM      9  C   UNL     1      -0.441  -8.108  12.016  0.00  0.00    +0.058 C 
ATOM     12  C   UNL     1       0.511  -7.287  12.892  0.00  0.00    +0.019 C 
ATOM     13  C   UNL     1       0.315  -9.202  11.252  0.00  0.00    +0.019 C 
ATOM     16  C   UNL     1       1.659  -6.703  12.071  0.00  0.00    +0.002 C 
ATOM     17  C   UNL     1       1.462  -8.614  10.432  0.00  0.00    +0.002 C 
ATOM     18  C   UNL     1       2.407  -7.786  11.299  0.00  0.00    +0.000 C 
ENDBRANCH   5   9
BRANCH  15   1
ATOM      1  O   UNL     1      -1.668 -10.776  15.755  0.00  0.00    -0.390 OA
ATOM     27  H   UNL     1      -1.577 -11.677  15.402  0.00  0.00    +0.210 HD
ENDBRANCH  15   1
ENDBRANCH  19  10
TORSDOF 5
ENDMDL
MODEL 4
REMARK VINA RESULT:       0.5      1.935      3.742
REMARK  Name = 26744309
REMARK  5 active torsions:
REMARK  status: ('A' for Active; 'I' for Inactive)
REMARK    1  A    between atoms: O_1  and  C_15
REMARK    2  A    between atoms: N_5  and  C_9
REMARK    3  A    between atoms: N_8  and  C_24
REMARK    4  A    between atoms: C_10  and  C_19
REMARK    5  A    between atoms: C_20  and  C_21
REMARK                            x       y       z     vdW  Elec       q    Type
REMARK                         _______ _______ _______ _____ _____    ______ ____
ROOT
ATOM      2  O   UNL     1      -0.965  -1.376  25.107  0.00  0.00    -0.336 OA
ATOM      6  N   UNL     1      -0.427   0.487  23.983  0.00  0.00    -0.190 NA
ATOM      7  N   UNL     1       0.290  -1.615  24.532  0.00  0.00    -0.056 NA
ATOM     19  C   UNL     1      -1.315  -0.117  24.734  0.00  0.00    +0.245 A 
ATOM     20  C   UNL     1       0.539  -0.473  23.886  0.00  0.00    +0.202 A 
ENDROOT
BRANCH  20  21
ATOM     21  C   UNL     1       1.741  -0.257  23.135  0.00  0.00    +0.025 A 
ATOM     22  C   UNL     1       2.966  -0.140  23.793  0.00  0.00    +0.044 A 
ATOM     23  C   UNL     1       1.686  -0.165  21.744  0.00  0.00    +0.012 A 
ATOM     24  C   UNL     1       4.134   0.070  23.060  0.00  0.00    +0.127 A 
ATOM     25  C   UNL     1       2.855   0.045  21.012  0.00  0.00    +0.003 A 
ATOM     26  C   UNL     1       4.079   0.161  21.669  0.00  0.00    +0.033 A 
BRANCH  24   8
ATOM      3  O   UNL     1       6.413  -0.261  23.177  0.00  0.00    -0.126 OA
ATOM      4  O   UNL     1       5.416   0.740  24.857  0.00  0.00    -0.126 OA
ATOM      8  N   UNL     1       5.381   0.188  23.730  0.00  0.00    +0.056 N 
ENDBRANCH  24   8
ENDBRANCH  20  21
BRANCH  19  10
ATOM      5  N   UNL     1      -3.059   1.653  24.589  0.00  0.00    -0.286 NA
ATOM     10  C   UNL     1      -2.651   0.389  25.235  0.00  0.00    +0.149 C 
ATOM     11  C   UNL     1      -4.521   1.656  24.574  0.00  0.00    +0.116 C 
ATOM     14  C   UNL     1      -3.804  -0.590  24.948  0.00  0.00    +0.061 C 
ATOM     15  C   UNL     1      -4.833   0.226  24.176  0.00  0.00    +0.130 C 
BRANCH   5   9
ATOM      9  C   UNL     1      -2.513   2.839  25.247  0.00  0.00    +0.058 C 
ATOM     12  C   UNL     1      -1.378   3.427  24.401  0.00  0.00    +0.019 C 
ATOM     13  C   UNL     1      -3.626   3.869  25.471  0.00  0.00    +0.019 C 
ATOM     16  C   UNL     1      -0.832   4.714  25.018  0.00  0.00    +0.002 C 
ATOM     17  C   UNL     1      -3.077   5.154  26.088  0.00  0.00    +0.002 C 
ATOM     18  C   UNL     1      -1.939   5.737  25.255  0.00  0.00    +0.000 C 
ENDBRANCH   5   9
BRANCH  15   1
ATOM      1  O   UNL     1      -6.146  -0.147  24.543  0.00  0.00    -0.390 OA
ATOM     27  H   UNL     1      -6.217  -1.110  24.436  0.00  0.00    +0.210 HD
ENDBRANCH  15   1
ENDBRANCH  19  10
TORSDOF 5
ENDMDL
MODEL 5
REMARK VINA RESULT:       0.7      1.954      7.193
REMARK  Name = 26744309
REMARK  5 active torsions:
REMARK  status: ('A' for Active; 'I' for Inactive)
REMARK    1  A    between atoms: O_1  and  C_15
REMARK    2  A    between atoms: N_5  and  C_9
REMARK    3  A    between atoms: N_8  and  C_24
REMARK    4  A    between atoms: C_10  and  C_19
REMARK    5  A    between atoms: C_20  and  C_21
REMARK                            x       y       z     vdW  Elec       q    Type
REMARK                         _______ _______ _______ _____ _____    ______ ____
ROOT
ATOM      2  O   UNL     1       0.204   3.077  24.677  0.00  0.00    -0.336 OA
ATOM      6  N   UNL     1      -1.598   1.746  24.689  0.00  0.00    -0.190 NA
ATOM      7  N   UNL     1      -0.891   3.904  24.959  0.00  0.00    -0.056 NA
ATOM     19  C   UNL     1      -0.301   1.823  24.532  0.00  0.00    +0.245 A 
ATOM     20  C   UNL     1      -1.916   3.047  24.949  0.00  0.00    +0.202 A 
ENDROOT
BRANCH  20  21
ATOM     21  C   UNL     1      -3.268   3.458  25.193  0.00  0.00    +0.025 A 
ATOM     22  C   UNL     1      -4.282   2.504  25.292  0.00  0.00    +0.044 A 
ATOM     23  C   UNL     1      -3.570   4.813  25.334  0.00  0.00    +0.012 A 
ATOM     24  C   UNL     1      -5.596   2.905  25.530  0.00  0.00    +0.127 A 
ATOM     25  C   UNL     1      -4.885   5.213  25.572  0.00  0.00    +0.003 A 
ATOM     26  C   UNL     1      -5.898   4.260  25.671  0.00  0.00    +0.033 A 
BRANCH  24   8
ATOM      3  O   UNL     1      -6.957   1.512  26.764  0.00  0.00    -0.126 OA
ATOM      4  O   UNL     1      -7.182   1.525  24.581  0.00  0.00    -0.126 OA
ATOM      8  N   UNL     1      -6.628   1.934  25.630  0.00  0.00    +0.056 N 
ENDBRANCH  24   8
ENDBRANCH  20  21
BRANCH  19  10
ATOM      5  N   UNL     1       0.237  -0.166  23.137  0.00  0.00    -0.286 NA
ATOM     10  C   UNL     1       0.696   0.727  24.219  0.00  0.00    +0.149 C 
ATOM     11  C   UNL     1       1.440  -0.658  22.468  0.00  0.00    +0.116 C 
ATOM     14  C   UNL     1       2.049   1.275  23.730  0.00  0.00    +0.061 C 
ATOM     15  C   UNL     1       2.288   0.597  22.387  0.00  0.00    +0.130 C 
BRANCH   5   9
ATOM      9  C   UNL     1      -0.614  -1.257  23.611  0.00  0.00    +0.058 C 
ATOM     12  C   UNL     1      -0.274  -1.585  25.069  0.00  0.00    +0.019 C 
ATOM     13  C   UNL     1      -2.089  -0.870  23.460  0.00  0.00    +0.019 C 
ATOM     16  C   UNL     1      -1.196  -2.670  25.624  0.00  0.00    +0.002 C 
ATOM     17  C   UNL     1      -3.008  -1.957  24.016  0.00  0.00    +0.002 C 
ATOM     18  C   UNL     1      -2.667  -2.295  25.465  0.00  0.00    +0.000 C 
ENDBRANCH   5   9
BRANCH  15   1
ATOM      1  O   UNL     1       3.658   0.296  22.213  0.00  0.00    -0.390 OA
ATOM     27  H   UNL     1       3.784   0.029  21.287  0.00  0.00    +0.210 HD
ENDBRANCH  15   1
ENDBRANCH  19  10
TORSDOF 5
ENDMDL
