MODEL 1
REMARK VINA RESULT:      -4.6      0.000      0.000
REMARK  Name = 75536872
REMARK  4 active torsions:
REMARK  status: ('A' for Active; 'I' for Inactive)
REMARK    1  A    between atoms: O_6  and  C_14
REMARK    2  A    between atoms: O_6  and  C_17
REMARK    3  A    between atoms: C_8  and  C_11
REMARK    4  A    between atoms: C_22  and  C_23
REMARK                            x       y       z     vdW  Elec       q    Type
REMARK                         _______ _______ _______ _____ _____    ______ ____
ROOT
ATOM      4  O   UNL     1      -0.182  -0.614  25.166  0.00  0.00    -0.375 OA
ATOM      5  O   UNL     1       3.634   1.887  22.791  0.00  0.00    -0.275 OA
ATOM      7  N   UNL     1       1.903   0.375  23.211  0.00  0.00    -0.295 N 
ATOM     11  C   UNL     1       3.245   0.744  23.014  0.00  0.00    +0.219 C 
ATOM     12  C   UNL     1       0.873   1.415  23.176  0.00  0.00    +0.154 C 
ATOM     13  C   UNL     1       1.507  -1.014  23.473  0.00  0.00    +0.136 C 
ATOM     14  C   UNL     1       0.323   1.723  24.568  0.00  0.00    +0.216 C 
ATOM     15  C   UNL     1       0.065  -1.239  23.911  0.00  0.00    +0.179 C 
ATOM     16  C   UNL     1      -0.706   0.703  25.051  0.00  0.00    +0.206 C 
ENDROOT
BRANCH  11   8
ATOM      8  C   UNL     1       4.272  -0.341  23.106  0.00  0.00    +0.075 C 
ATOM      9  C   UNL     1       5.711   0.040  23.041  0.00  0.00    +0.013 C 
ATOM     10  C   UNL     1       5.110  -0.418  24.335  0.00  0.00    +0.013 C 
ENDBRANCH  11   8
BRANCH  14   6
ATOM      6  O   UNL     1      -0.297   3.006  24.521  0.00  0.00    -0.485 OA
BRANCH   6  17
ATOM     17  C   UNL     1      -1.639   3.049  24.783  0.00  0.00    +0.121 A 
ATOM     18  C   UNL     1      -2.110   3.749  25.894  0.00  0.00    +0.046 A 
ATOM     19  C   UNL     1      -2.536   2.394  23.939  0.00  0.00    +0.046 A 
ATOM     20  C   UNL     1      -3.479   3.793  26.162  0.00  0.00    +0.016 A 
ATOM     21  C   UNL     1      -3.904   2.439  24.207  0.00  0.00    +0.016 A 
ATOM     22  C   UNL     1      -4.376   3.138  25.319  0.00  0.00    +0.055 A 
BRANCH  22  23
ATOM      1  F   UNL     1      -6.353   4.450  25.620  0.00  0.00    -0.166 F 
ATOM      2  F   UNL     1      -6.177   2.647  26.814  0.00  0.00    -0.166 F 
ATOM      3  F   UNL     1      -6.576   2.501  24.681  0.00  0.00    -0.166 F 
ATOM     23  C   UNL     1      -5.839   3.185  25.604  0.00  0.00    +0.417 C 
ENDBRANCH  22  23
ENDBRANCH   6  17
ENDBRANCH  14   6
TORSDOF 4
ENDMDL
MODEL 2
REMARK VINA RESULT:      -3.2      5.093      8.415
REMARK  Name = 75536872
REMARK  4 active torsions:
REMARK  status: ('A' for Active; 'I' for Inactive)
REMARK    1  A    between atoms: O_6  and  C_14
REMARK    2  A    between atoms: O_6  and  C_17
REMARK    3  A    between atoms: C_8  and  C_11
REMARK    4  A    between atoms: C_22  and  C_23
REMARK                            x       y       z     vdW  Elec       q    Type
REMARK                         _______ _______ _______ _____ _____    ______ ____
ROOT
ATOM      4  O   UNL     1      -0.125   2.685  25.660  0.00  0.00    -0.375 OA
ATOM      5  O   UNL     1      -4.149   0.198  23.639  0.00  0.00    -0.275 OA
ATOM      7  N   UNL     1      -2.724   1.922  24.313  0.00  0.00    -0.295 N 
ATOM     11  C   UNL     1      -3.894   1.146  24.376  0.00  0.00    +0.219 C 
ATOM     12  C   UNL     1      -1.705   1.583  23.318  0.00  0.00    +0.154 C 
ATOM     13  C   UNL     1      -2.484   3.046  25.227  0.00  0.00    +0.136 C 
ATOM     14  C   UNL     1      -0.475   0.939  23.957  0.00  0.00    +0.216 C 
ATOM     15  C   UNL     1      -1.082   3.642  25.218  0.00  0.00    +0.179 C 
ATOM     16  C   UNL     1       0.472   1.949  24.600  0.00  0.00    +0.206 C 
ENDROOT
BRANCH  11   8
ATOM      8  C   UNL     1      -4.889   1.495  25.438  0.00  0.00    +0.075 C 
ATOM      9  C   UNL     1      -5.530   2.839  25.395  0.00  0.00    +0.013 C 
ATOM     10  C   UNL     1      -6.323   1.614  25.053  0.00  0.00    +0.013 C 
ENDBRANCH  11   8
BRANCH  14   6
ATOM      6  O   UNL     1       0.234   0.239  22.936  0.00  0.00    -0.485 OA
BRANCH   6  17
ATOM     17  C   UNL     1       1.592   0.152  23.080  0.00  0.00    +0.121 A 
ATOM     18  C   UNL     1       2.172  -1.042  23.509  0.00  0.00    +0.046 A 
ATOM     19  C   UNL     1       2.395   1.257  22.797  0.00  0.00    +0.046 A 
ATOM     20  C   UNL     1       3.557  -1.130  23.656  0.00  0.00    +0.016 A 
ATOM     21  C   UNL     1       3.779   1.167  22.944  0.00  0.00    +0.016 A 
ATOM     22  C   UNL     1       4.361  -0.026  23.373  0.00  0.00    +0.055 A 
BRANCH  22  23
ATOM      1  F   UNL     1       6.430   1.061  23.876  0.00  0.00    -0.166 F 
ATOM      2  F   UNL     1       6.486  -0.524  22.396  0.00  0.00    -0.166 F 
ATOM      3  F   UNL     1       6.209  -1.010  24.497  0.00  0.00    -0.166 F 
ATOM     23  C   UNL     1       5.840  -0.121  23.531  0.00  0.00    +0.417 C 
ENDBRANCH  22  23
ENDBRANCH   6  17
ENDBRANCH  14   6
TORSDOF 4
ENDMDL
MODEL 3
REMARK VINA RESULT:      -2.6      2.346      4.369
REMARK  Name = 75536872
REMARK  4 active torsions:
REMARK  status: ('A' for Active; 'I' for Inactive)
REMARK    1  A    between atoms: O_6  and  C_14
REMARK    2  A    between atoms: O_6  and  C_17
REMARK    3  A    between atoms: C_8  and  C_11
REMARK    4  A    between atoms: C_22  and  C_23
REMARK                            x       y       z     vdW  Elec       q    Type
REMARK                         _______ _______ _______ _____ _____    ______ ____
ROOT
ATOM      4  O   UNL     1       0.759  -0.677  23.395  0.00  0.00    -0.375 OA
ATOM      5  O   UNL     1      -3.924  -0.292  25.487  0.00  0.00    -0.275 OA
ATOM      7  N   UNL     1      -1.673  -0.837  25.187  0.00  0.00    -0.295 N 
ATOM     11  C   UNL     1      -3.046  -1.123  25.278  0.00  0.00    +0.219 C 
ATOM     12  C   UNL     1      -1.231   0.552  25.325  0.00  0.00    +0.154 C 
ATOM     13  C   UNL     1      -0.674  -1.883  24.935  0.00  0.00    +0.136 C 
ATOM     14  C   UNL     1      -0.789   1.146  23.988  0.00  0.00    +0.216 C 
ATOM     15  C   UNL     1       0.739  -1.411  24.615  0.00  0.00    +0.179 C 
ATOM     16  C   UNL     1       0.620   0.727  23.576  0.00  0.00    +0.206 C 
ENDROOT
BRANCH  11   8
ATOM      8  C   UNL     1      -3.462  -2.548  25.083  0.00  0.00    +0.075 C 
ATOM      9  C   UNL     1      -4.371  -2.871  23.948  0.00  0.00    +0.013 C 
ATOM     10  C   UNL     1      -2.930  -3.284  23.901  0.00  0.00    +0.013 C 
ENDBRANCH  11   8
BRANCH  14   6
ATOM      6  O   UNL     1      -0.822   2.567  24.108  0.00  0.00    -0.485 OA
BRANCH   6  17
ATOM     17  C   UNL     1      -2.023   3.127  24.451  0.00  0.00    +0.121 A 
ATOM     18  C   UNL     1      -2.110   3.961  25.565  0.00  0.00    +0.046 A 
ATOM     19  C   UNL     1      -3.158   2.863  23.685  0.00  0.00    +0.046 A 
ATOM     20  C   UNL     1      -3.334   4.532  25.914  0.00  0.00    +0.016 A 
ATOM     21  C   UNL     1      -4.382   3.433  24.035  0.00  0.00    +0.016 A 
ATOM     22  C   UNL     1      -4.471   4.268  25.150  0.00  0.00    +0.055 A 
BRANCH  22  23
ATOM      1  F   UNL     1      -6.276   5.728  24.578  0.00  0.00    -0.166 F 
ATOM      2  F   UNL     1      -5.733   5.611  26.674  0.00  0.00    -0.166 F 
ATOM      3  F   UNL     1      -6.754   3.943  25.724  0.00  0.00    -0.166 F 
ATOM     23  C   UNL     1      -5.779   4.877  25.523  0.00  0.00    +0.417 C 
ENDBRANCH  22  23
ENDBRANCH   6  17
ENDBRANCH  14   6
TORSDOF 4
ENDMDL
MODEL 4
REMARK VINA RESULT:      -2.2      4.550      7.084
REMARK  Name = 75536872
REMARK  4 active torsions:
REMARK  status: ('A' for Active; 'I' for Inactive)
REMARK    1  A    between atoms: O_6  and  C_14
REMARK    2  A    between atoms: O_6  and  C_17
REMARK    3  A    between atoms: C_8  and  C_11
REMARK    4  A    between atoms: C_22  and  C_23
REMARK                            x       y       z     vdW  Elec       q    Type
REMARK                         _______ _______ _______ _____ _____    ______ ____
ROOT
ATOM      4  O   UNL     1      -4.869   2.967  26.192  0.00  0.00    -0.375 OA
ATOM      5  O   UNL     1      -2.241  -0.873  24.002  0.00  0.00    -0.275 OA
ATOM      7  N   UNL     1      -3.855   0.774  24.372  0.00  0.00    -0.295 N 
ATOM     11  C   UNL     1      -3.393  -0.549  24.275  0.00  0.00    +0.219 C 
ATOM     12  C   UNL     1      -2.907   1.870  24.158  0.00  0.00    +0.154 C 
ATOM     13  C   UNL     1      -5.249   1.091  24.703  0.00  0.00    +0.136 C 
ATOM     14  C   UNL     1      -2.548   2.579  25.463  0.00  0.00    +0.216 C 
ATOM     15  C   UNL     1      -5.559   2.549  25.018  0.00  0.00    +0.179 C 
ATOM     16  C   UNL     1      -3.611   3.572  25.924  0.00  0.00    +0.206 C 
ENDROOT
BRANCH  11   8
ATOM      8  C   UNL     1      -4.381  -1.640  24.549  0.00  0.00    +0.075 C 
ATOM      9  C   UNL     1      -4.547  -2.716  23.533  0.00  0.00    +0.013 C 
ATOM     10  C   UNL     1      -3.864  -3.008  24.835  0.00  0.00    +0.013 C 
ENDBRANCH  11   8
BRANCH  14   6
ATOM      6  O   UNL     1      -1.326   3.284  25.257  0.00  0.00    -0.485 OA
BRANCH   6  17
ATOM     17  C   UNL     1      -0.315   2.596  24.643  0.00  0.00    +0.121 A 
ATOM     18  C   UNL     1      -0.200   1.217  24.826  0.00  0.00    +0.046 A 
ATOM     19  C   UNL     1       0.599   3.272  23.835  0.00  0.00    +0.046 A 
ATOM     20  C   UNL     1       0.831   0.515  24.200  0.00  0.00    +0.016 A 
ATOM     21  C   UNL     1       1.629   2.569  23.210  0.00  0.00    +0.016 A 
ATOM     22  C   UNL     1       1.745   1.190  23.392  0.00  0.00    +0.055 A 
BRANCH  22  23
ATOM      1  F   UNL     1       3.116  -0.766  23.302  0.00  0.00    -0.166 F 
ATOM      2  F   UNL     1       4.039   1.108  22.719  0.00  0.00    -0.166 F 
ATOM      3  F   UNL     1       2.576   0.167  21.414  0.00  0.00    -0.166 F 
ATOM     23  C   UNL     1       2.846   0.440  22.724  0.00  0.00    +0.417 C 
ENDBRANCH  22  23
ENDBRANCH   6  17
ENDBRANCH  14   6
TORSDOF 4
ENDMDL
MODEL 5
REMARK VINA RESULT:      -2.0      3.953      6.866
REMARK  Name = 75536872
REMARK  4 active torsions:
REMARK  status: ('A' for Active; 'I' for Inactive)
REMARK    1  A    between atoms: O_6  and  C_14
REMARK    2  A    between atoms: O_6  and  C_17
REMARK    3  A    between atoms: C_8  and  C_11
REMARK    4  A    between atoms: C_22  and  C_23
REMARK                            x       y       z     vdW  Elec       q    Type
REMARK                         _______ _______ _______ _____ _____    ______ ____
ROOT
ATOM      4  O   UNL     1      -0.205   4.434  25.876  0.00  0.00    -0.375 OA
ATOM      5  O   UNL     1      -4.415   1.794  24.549  0.00  0.00    -0.275 OA
ATOM      7  N   UNL     1      -2.632   3.302  24.471  0.00  0.00    -0.295 N 
ATOM     11  C   UNL     1      -3.987   2.944  24.575  0.00  0.00    +0.219 C 
ATOM     12  C   UNL     1      -1.631   2.241  24.343  0.00  0.00    +0.154 C 
ATOM     13  C   UNL     1      -2.190   4.701  24.509  0.00  0.00    +0.136 C 
ATOM     14  C   UNL     1      -0.821   2.062  25.627  0.00  0.00    +0.216 C 
ATOM     15  C   UNL     1      -0.690   4.937  24.635  0.00  0.00    +0.179 C 
ATOM     16  C   UNL     1       0.284   3.101  25.796  0.00  0.00    +0.206 C 
ENDROOT
BRANCH  11   8
ATOM      8  C   UNL     1      -4.975   4.055  24.753  0.00  0.00    +0.075 C 
ATOM      9  C   UNL     1      -6.257   3.756  25.451  0.00  0.00    +0.013 C 
ATOM     10  C   UNL     1      -5.205   4.582  26.128  0.00  0.00    +0.013 C 
ENDBRANCH  11   8
BRANCH  14   6
ATOM      6  O   UNL     1      -0.224   0.767  25.591  0.00  0.00    -0.485 OA
BRANCH   6  17
ATOM     17  C   UNL     1      -1.038  -0.275  25.237  0.00  0.00    +0.121 A 
ATOM     18  C   UNL     1      -2.318  -0.376  25.783  0.00  0.00    +0.046 A 
ATOM     19  C   UNL     1      -0.588  -1.234  24.330  0.00  0.00    +0.046 A 
ATOM     20  C   UNL     1      -3.147  -1.438  25.422  0.00  0.00    +0.016 A 
ATOM     21  C   UNL     1      -1.418  -2.295  23.970  0.00  0.00    +0.016 A 
ATOM     22  C   UNL     1      -2.698  -2.398  24.516  0.00  0.00    +0.055 A 
BRANCH  22  23
ATOM      1  F   UNL     1      -2.982  -4.444  23.311  0.00  0.00    -0.166 F 
ATOM      2  F   UNL     1      -4.712  -3.145  23.464  0.00  0.00    -0.166 F 
ATOM      3  F   UNL     1      -4.024  -4.245  25.208  0.00  0.00    -0.166 F 
ATOM     23  C   UNL     1      -3.584  -3.533  24.130  0.00  0.00    +0.417 C 
ENDBRANCH  22  23
ENDBRANCH   6  17
ENDBRANCH  14   6
TORSDOF 4
ENDMDL
MODEL 6
REMARK VINA RESULT:      -1.9      5.023      7.897
REMARK  Name = 75536872
REMARK  4 active torsions:
REMARK  status: ('A' for Active; 'I' for Inactive)
REMARK    1  A    between atoms: O_6  and  C_14
REMARK    2  A    between atoms: O_6  and  C_17
REMARK    3  A    between atoms: C_8  and  C_11
REMARK    4  A    between atoms: C_22  and  C_23
REMARK                            x       y       z     vdW  Elec       q    Type
REMARK                         _______ _______ _______ _____ _____    ______ ____
ROOT
ATOM      4  O   UNL     1      -1.800  -1.172  24.825  0.00  0.00    -0.375 OA
ATOM      5  O   UNL     1      -0.272   3.687  24.106  0.00  0.00    -0.275 OA
ATOM      7  N   UNL     1      -0.681   1.623  25.121  0.00  0.00    -0.295 N 
ATOM     11  C   UNL     1      -0.888   2.997  24.914  0.00  0.00    +0.219 C 
ATOM     12  C   UNL     1       0.323   0.930  24.311  0.00  0.00    +0.154 C 
ATOM     13  C   UNL     1      -1.456   0.858  26.106  0.00  0.00    +0.136 C 
ATOM     14  C   UNL     1      -0.316   0.022  23.262  0.00  0.00    +0.216 C 
ATOM     15  C   UNL     1      -1.309  -0.657  26.059  0.00  0.00    +0.179 C 
ATOM     16  C   UNL     1      -0.796  -1.312  23.828  0.00  0.00    +0.206 C 
ENDROOT
BRANCH  11   8
ATOM      8  C   UNL     1      -1.958   3.658  25.727  0.00  0.00    +0.075 C 
ATOM      9  C   UNL     1      -2.352   5.052  25.379  0.00  0.00    +0.013 C 
ATOM     10  C   UNL     1      -3.279   3.911  25.086  0.00  0.00    +0.013 C 
ENDBRANCH  11   8
BRANCH  14   6
ATOM      6  O   UNL     1       0.659  -0.238  22.254  0.00  0.00    -0.485 OA
BRANCH   6  17
ATOM     17  C   UNL     1       1.970  -0.194  22.643  0.00  0.00    +0.121 A 
ATOM     18  C   UNL     1       2.548  -1.296  23.275  0.00  0.00    +0.046 A 
ATOM     19  C   UNL     1       2.729   0.952  22.408  0.00  0.00    +0.046 A 
ATOM     20  C   UNL     1       3.884  -1.251  23.671  0.00  0.00    +0.016 A 
ATOM     21  C   UNL     1       4.066   0.997  22.805  0.00  0.00    +0.016 A 
ATOM     22  C   UNL     1       4.644  -0.105  23.436  0.00  0.00    +0.055 A 
BRANCH  22  23
ATOM      1  F   UNL     1       6.458   1.160  24.344  0.00  0.00    -0.166 F 
ATOM      2  F   UNL     1       6.952  -0.334  22.852  0.00  0.00    -0.166 F 
ATOM      3  F   UNL     1       6.357  -0.951  24.851  0.00  0.00    -0.166 F 
ATOM     23  C   UNL     1       6.073  -0.056  23.860  0.00  0.00    +0.417 C 
ENDBRANCH  22  23
ENDBRANCH   6  17
ENDBRANCH  14   6
TORSDOF 4
ENDMDL
MODEL 7
REMARK VINA RESULT:      -1.7      5.023      8.144
REMARK  Name = 75536872
REMARK  4 active torsions:
REMARK  status: ('A' for Active; 'I' for Inactive)
REMARK    1  A    between atoms: O_6  and  C_14
REMARK    2  A    between atoms: O_6  and  C_17
REMARK    3  A    between atoms: C_8  and  C_11
REMARK    4  A    between atoms: C_22  and  C_23
REMARK                            x       y       z     vdW  Elec       q    Type
REMARK                         _______ _______ _______ _____ _____    ______ ____
ROOT
ATOM      4  O   UNL     1      -0.947  -1.774  25.177  0.00  0.00    -0.375 OA
ATOM      5  O   UNL     1      -3.560   2.312  23.463  0.00  0.00    -0.275 OA
ATOM      7  N   UNL     1      -2.381   0.872  24.876  0.00  0.00    -0.295 N 
ATOM     11  C   UNL     1      -3.530   1.538  24.415  0.00  0.00    +0.219 C 
ATOM     12  C   UNL     1      -1.115   1.081  24.172  0.00  0.00    +0.154 C 
ATOM     13  C   UNL     1      -2.418  -0.043  26.024  0.00  0.00    +0.136 C 
ATOM     14  C   UNL     1      -0.710  -0.141  23.348  0.00  0.00    +0.216 C 
ATOM     15  C   UNL     1      -1.170  -0.882  26.264  0.00  0.00    +0.179 C 
ATOM     16  C   UNL     1      -0.076  -1.250  24.183  0.00  0.00    +0.206 C 
ENDROOT
BRANCH  11   8
ATOM      8  C   UNL     1      -4.815   1.259  25.131  0.00  0.00    +0.075 C 
ATOM      9  C   UNL     1      -5.449   2.364  25.904  0.00  0.00    +0.013 C 
ATOM     10  C   UNL     1      -6.062   1.893  24.620  0.00  0.00    +0.013 C 
ENDBRANCH  11   8
BRANCH  14   6
ATOM      6  O   UNL     1       0.235   0.285  22.367  0.00  0.00    -0.485 OA
BRANCH   6  17
ATOM     17  C   UNL     1       1.556   0.212  22.715  0.00  0.00    +0.121 A 
ATOM     18  C   UNL     1       2.310   1.379  22.838  0.00  0.00    +0.046 A 
ATOM     19  C   UNL     1       2.148  -1.029  22.947  0.00  0.00    +0.046 A 
ATOM     20  C   UNL     1       3.657   1.304  23.193  0.00  0.00    +0.016 A 
ATOM     21  C   UNL     1       3.495  -1.103  23.301  0.00  0.00    +0.016 A 
ATOM     22  C   UNL     1       4.250   0.063  23.424  0.00  0.00    +0.055 A 
BRANCH  22  23
ATOM      1  F   UNL     1       5.954  -0.961  24.753  0.00  0.00    -0.166 F 
ATOM      2  F   UNL     1       6.188   1.150  24.310  0.00  0.00    -0.166 F 
ATOM      3  F   UNL     1       6.494  -0.328  22.745  0.00  0.00    -0.166 F 
ATOM     23  C   UNL     1       5.690  -0.017  23.803  0.00  0.00    +0.417 C 
ENDBRANCH  22  23
ENDBRANCH   6  17
ENDBRANCH  14   6
TORSDOF 4
ENDMDL
MODEL 8
REMARK VINA RESULT:      -1.6      4.400      7.299
REMARK  Name = 75536872
REMARK  4 active torsions:
REMARK  status: ('A' for Active; 'I' for Inactive)
REMARK    1  A    between atoms: O_6  and  C_14
REMARK    2  A    between atoms: O_6  and  C_17
REMARK    3  A    between atoms: C_8  and  C_11
REMARK    4  A    between atoms: C_22  and  C_23
REMARK                            x       y       z     vdW  Elec       q    Type
REMARK                         _______ _______ _______ _____ _____    ______ ____
ROOT
ATOM      4  O   UNL     1      -5.715   1.657  24.641  0.00  0.00    -0.375 OA
ATOM      5  O   UNL     1      -1.032   3.663  25.355  0.00  0.00    -0.275 OA
ATOM      7  N   UNL     1      -3.248   3.026  25.732  0.00  0.00    -0.295 N 
ATOM     11  C   UNL     1      -2.217   3.951  25.494  0.00  0.00    +0.219 C 
ATOM     12  C   UNL     1      -2.915   1.602  25.803  0.00  0.00    +0.154 C 
ATOM     13  C   UNL     1      -4.648   3.441  25.889  0.00  0.00    +0.136 C 
ATOM     14  C   UNL     1      -3.391   0.841  24.566  0.00  0.00    +0.216 C 
ATOM     15  C   UNL     1      -5.689   2.330  25.895  0.00  0.00    +0.179 C 
ATOM     16  C   UNL     1      -4.879   0.506  24.597  0.00  0.00    +0.206 C 
ENDROOT
BRANCH  11   8
ATOM      8  C   UNL     1      -2.606   5.392  25.379  0.00  0.00    +0.075 C 
ATOM      9  C   UNL     1      -1.581   6.367  24.912  0.00  0.00    +0.013 C 
ATOM     10  C   UNL     1      -2.722   5.987  24.018  0.00  0.00    +0.013 C 
ENDBRANCH  11   8
BRANCH  14   6
ATOM      6  O   UNL     1      -2.653  -0.378  24.491  0.00  0.00    -0.485 OA
BRANCH   6  17
ATOM     17  C   UNL     1      -1.356  -0.285  24.067  0.00  0.00    +0.121 A 
ATOM     18  C   UNL     1      -0.490  -1.366  24.231  0.00  0.00    +0.046 A 
ATOM     19  C   UNL     1      -0.900   0.890  23.469  0.00  0.00    +0.046 A 
ATOM     20  C   UNL     1       0.834  -1.271  23.799  0.00  0.00    +0.016 A 
ATOM     21  C   UNL     1       0.423   0.984  23.037  0.00  0.00    +0.016 A 
ATOM     22  C   UNL     1       1.290  -0.097  23.202  0.00  0.00    +0.055 A 
BRANCH  22  23
ATOM      1  F   UNL     1       3.505  -0.997  23.206  0.00  0.00    -0.166 F 
ATOM      2  F   UNL     1       3.322   1.162  23.121  0.00  0.00    -0.166 F 
ATOM      3  F   UNL     1       2.817  -0.039  21.380  0.00  0.00    -0.166 F 
ATOM     23  C   UNL     1       2.704   0.005  22.740  0.00  0.00    +0.417 C 
ENDBRANCH  22  23
ENDBRANCH   6  17
ENDBRANCH  14   6
TORSDOF 4
ENDMDL
MODEL 9
REMARK VINA RESULT:      -1.1      4.682      7.492
REMARK  Name = 75536872
REMARK  4 active torsions:
REMARK  status: ('A' for Active; 'I' for Inactive)
REMARK    1  A    between atoms: O_6  and  C_14
REMARK    2  A    between atoms: O_6  and  C_17
REMARK    3  A    between atoms: C_8  and  C_11
REMARK    4  A    between atoms: C_22  and  C_23
REMARK                            x       y       z     vdW  Elec       q    Type
REMARK                         _______ _______ _______ _____ _____    ______ ____
ROOT
ATOM      4  O   UNL     1      -4.312  -0.321  23.956  0.00  0.00    -0.375 OA
ATOM      5  O   UNL     1      -0.448   2.893  25.050  0.00  0.00    -0.275 OA
ATOM      7  N   UNL     1      -2.434   1.676  25.234  0.00  0.00    -0.295 N 
ATOM     11  C   UNL     1      -1.675   2.847  25.065  0.00  0.00    +0.219 C 
ATOM     12  C   UNL     1      -1.735   0.398  25.383  0.00  0.00    +0.154 C 
ATOM     13  C   UNL     1      -3.902   1.694  25.242  0.00  0.00    +0.136 C 
ATOM     14  C   UNL     1      -1.859  -0.470  24.132  0.00  0.00    +0.216 C 
ATOM     15  C   UNL     1      -4.598   0.340  25.184  0.00  0.00    +0.179 C 
ATOM     16  C   UNL     1      -3.196  -1.199  24.031  0.00  0.00    +0.206 C 
ENDROOT
BRANCH  11   8
ATOM      8  C   UNL     1      -2.426   4.126  24.866  0.00  0.00    +0.075 C 
ATOM      9  C   UNL     1      -2.770   4.939  26.066  0.00  0.00    +0.013 C 
ATOM     10  C   UNL     1      -1.714   5.411  25.113  0.00  0.00    +0.013 C 
ENDBRANCH  11   8
BRANCH  14   6
ATOM      6  O   UNL     1      -0.814  -1.441  24.167  0.00  0.00    -0.485 OA
BRANCH   6  17
ATOM     17  C   UNL     1       0.441  -1.004  23.843  0.00  0.00    +0.121 A 
ATOM     18  C   UNL     1       0.602   0.164  23.097  0.00  0.00    +0.046 A 
ATOM     19  C   UNL     1       1.560  -1.727  24.258  0.00  0.00    +0.046 A 
ATOM     20  C   UNL     1       1.882   0.609  22.766  0.00  0.00    +0.016 A 
ATOM     21  C   UNL     1       2.839  -1.281  23.927  0.00  0.00    +0.016 A 
ATOM     22  C   UNL     1       3.001  -0.113  23.181  0.00  0.00    +0.055 A 
BRANCH  22  23
ATOM      1  F   UNL     1       5.324  -0.609  22.911  0.00  0.00    -0.166 F 
ATOM      2  F   UNL     1       4.820   1.376  23.625  0.00  0.00    -0.166 F 
ATOM      3  F   UNL     1       4.444   0.841  21.551  0.00  0.00    -0.166 F 
ATOM     23  C   UNL     1       4.369   0.362  22.827  0.00  0.00    +0.417 C 
ENDBRANCH  22  23
ENDBRANCH   6  17
ENDBRANCH  14   6
TORSDOF 4
ENDMDL
