MODEL 1
REMARK VINA RESULT:       3.6      0.000      0.000
REMARK  Name = 51137928
REMARK  4 active torsions:
REMARK  status: ('A' for Active; 'I' for Inactive)
REMARK    1  A    between atoms: C_7  and  C_11
REMARK    2  A    between atoms: C_14  and  C_16
REMARK    3  A    between atoms: C_18  and  C_24
REMARK    4  A    between atoms: C_21  and  C_25
REMARK                            x       y       z     vdW  Elec       q    Type
REMARK                         _______ _______ _______ _____ _____    ______ ____
ROOT
ATOM      2  N   UNL     1      -2.493   0.577  25.154  0.00  0.00    -0.314 N 
ATOM      4  N   UNL     1      -4.361   1.709  24.287  0.00  0.00    -0.239 NA
ATOM      7  C   UNL     1      -1.271  -1.299  24.359  0.00  0.00    +0.095 C 
ATOM      8  C   UNL     1      -0.917  -1.037  25.825  0.00  0.00    +0.033 C 
ATOM      9  C   UNL     1      -2.596  -0.528  24.200  0.00  0.00    +0.119 C 
ATOM     10  C   UNL     1      -1.371   0.402  26.070  0.00  0.00    +0.107 C 
ATOM     12  C   UNL     1      -3.355   1.653  25.188  0.00  0.00    +0.121 A 
ATOM     13  C   UNL     1      -3.127   2.616  26.157  0.00  0.00    +0.045 A 
ATOM     15  C   UNL     1      -3.989   3.706  26.206  0.00  0.00    +0.024 A 
ATOM     17  C   UNL     1      -5.177   2.784  24.364  0.00  0.00    +0.131 A 
ATOM     18  C   UNL     1      -5.035   3.800  25.295  0.00  0.00    +0.070 A 
ENDROOT
BRANCH   7  11
ATOM      1  O   UNL     1       1.113  -0.862  23.965  0.00  0.00    -0.420 OA
ATOM      3  N   UNL     1      -0.173  -0.586  22.155  0.00  0.00    -0.112 NA
ATOM      5  N   UNL     1       1.133  -0.311  21.797  0.00  0.00    -0.107 NA
ATOM     11  C   UNL     1      -0.138  -0.903  23.428  0.00  0.00    +0.222 A 
ATOM     14  C   UNL     1       1.849  -0.485  22.883  0.00  0.00    +0.248 A 
BRANCH  14  16
ATOM     16  C   UNL     1       3.259  -0.342  23.103  0.00  0.00    +0.038 A 
ATOM     19  C   UNL     1       3.981  -1.379  23.693  0.00  0.00    +0.013 A 
ATOM     20  C   UNL     1       3.908   0.833  22.728  0.00  0.00    +0.013 A 
ATOM     21  C   UNL     1       6.001  -0.065  23.533  0.00  0.00    -0.050 A 
ATOM     22  C   UNL     1       5.351  -1.241  23.909  0.00  0.00    +0.004 A 
ATOM     23  C   UNL     1       5.279   0.972  22.943  0.00  0.00    +0.004 A 
ATOM     25  C   UNL     1       7.467   0.083  23.763  0.00  0.00    +0.044 C 
ENDBRANCH  14  16
ENDBRANCH   7  11
BRANCH  18  24
ATOM      6  N   UNL     1      -6.667   5.807  25.339  0.00  0.00    -0.191 NA
ATOM     24  C   UNL     1      -5.934   4.907  25.319  0.00  0.00    +0.101 C 
ENDBRANCH  18  24
TORSDOF 3
ENDMDL
MODEL 2
REMARK VINA RESULT:       6.5      1.704      2.011
REMARK  Name = 51137928
REMARK  4 active torsions:
REMARK  status: ('A' for Active; 'I' for Inactive)
REMARK    1  A    between atoms: C_7  and  C_11
REMARK    2  A    between atoms: C_14  and  C_16
REMARK    3  A    between atoms: C_18  and  C_24
REMARK    4  A    between atoms: C_21  and  C_25
REMARK                            x       y       z     vdW  Elec       q    Type
REMARK                         _______ _______ _______ _____ _____    ______ ____
ROOT
ATOM      2  N   UNL     1      -4.010   0.009  24.358  0.00  0.00    -0.314 N 
ATOM      4  N   UNL     1      -4.244   2.287  23.832  0.00  0.00    -0.239 NA
ATOM      7  C   UNL     1      -2.640  -1.696  23.430  0.00  0.00    +0.095 C 
ATOM      8  C   UNL     1      -3.737  -2.328  24.292  0.00  0.00    +0.033 C 
ATOM      9  C   UNL     1      -3.198  -0.283  23.176  0.00  0.00    +0.119 C 
ATOM     10  C   UNL     1      -4.229  -1.181  25.174  0.00  0.00    +0.107 C 
ATOM     12  C   UNL     1      -4.513   1.256  24.664  0.00  0.00    +0.121 A 
ATOM     13  C   UNL     1      -5.270   1.368  25.818  0.00  0.00    +0.045 A 
ATOM     15  C   UNL     1      -5.786   2.619  26.139  0.00  0.00    +0.024 A 
ATOM     17  C   UNL     1      -4.761   3.488  24.177  0.00  0.00    +0.131 A 
ATOM     18  C   UNL     1      -5.530   3.704  25.308  0.00  0.00    +0.070 A 
ENDROOT
BRANCH   7  11
ATOM      1  O   UNL     1      -0.232  -1.216  23.443  0.00  0.00    -0.420 OA
ATOM      3  N   UNL     1      -0.948  -2.324  25.250  0.00  0.00    -0.112 NA
ATOM      5  N   UNL     1       0.413  -2.120  25.385  0.00  0.00    -0.107 NA
ATOM     11  C   UNL     1      -1.281  -1.780  24.103  0.00  0.00    +0.222 A 
ATOM     14  C   UNL     1       0.788  -1.470  24.309  0.00  0.00    +0.248 A 
BRANCH  14  16
ATOM     16  C   UNL     1       2.081  -0.996  23.910  0.00  0.00    +0.038 A 
ATOM     19  C   UNL     1       3.221  -1.740  24.215  0.00  0.00    +0.013 A 
ATOM     20  C   UNL     1       2.200   0.209  23.217  0.00  0.00    +0.013 A 
ATOM     21  C   UNL     1       4.598  -0.075  23.136  0.00  0.00    -0.050 A 
ATOM     22  C   UNL     1       4.479  -1.280  23.828  0.00  0.00    +0.004 A 
ATOM     23  C   UNL     1       3.459   0.669  22.831  0.00  0.00    +0.004 A 
ATOM     25  C   UNL     1       5.943   0.418  22.722  0.00  0.00    +0.044 C 
ENDBRANCH  14  16
ENDBRANCH   7  11
BRANCH  18  24
ATOM      6  N   UNL     1      -6.462   6.054  25.859  0.00  0.00    -0.191 NA
ATOM     24  C   UNL     1      -6.044   4.999  25.612  0.00  0.00    +0.101 C 
ENDBRANCH  18  24
TORSDOF 3
ENDMDL
MODEL 3
REMARK VINA RESULT:       6.8      2.026      8.901
REMARK  Name = 51137928
REMARK  4 active torsions:
REMARK  status: ('A' for Active; 'I' for Inactive)
REMARK    1  A    between atoms: C_7  and  C_11
REMARK    2  A    between atoms: C_14  and  C_16
REMARK    3  A    between atoms: C_18  and  C_24
REMARK    4  A    between atoms: C_21  and  C_25
REMARK                            x       y       z     vdW  Elec       q    Type
REMARK                         _______ _______ _______ _____ _____    ______ ____
ROOT
ATOM      2  N   UNL     1       1.755  -0.615  22.969  0.00  0.00    -0.314 N 
ATOM      4  N   UNL     1       3.793  -1.370  23.862  0.00  0.00    -0.239 NA
ATOM      7  C   UNL     1      -0.490  -1.289  23.361  0.00  0.00    +0.095 C 
ATOM      8  C   UNL     1      -0.421  -0.441  22.088  0.00  0.00    +0.033 C 
ATOM      9  C   UNL     1       0.980  -1.711  23.552  0.00  0.00    +0.119 C 
ATOM     10  C   UNL     1       0.914   0.295  22.198  0.00  0.00    +0.107 C 
ATOM     12  C   UNL     1       3.117  -0.462  23.123  0.00  0.00    +0.121 A 
ATOM     13  C   UNL     1       3.706   0.626  22.502  0.00  0.00    +0.045 A 
ATOM     15  C   UNL     1       5.079   0.793  22.647  0.00  0.00    +0.024 A 
ATOM     17  C   UNL     1       5.126  -1.175  23.982  0.00  0.00    +0.131 A 
ATOM     18  C   UNL     1       5.809  -0.120  23.399  0.00  0.00    +0.070 A 
ENDROOT
BRANCH   7  11
ATOM      1  O   UNL     1      -2.037   0.436  24.176  0.00  0.00    -0.420 OA
ATOM      3  N   UNL     1      -0.952  -0.654  25.802  0.00  0.00    -0.112 NA
ATOM      5  N   UNL     1      -1.782   0.279  26.393  0.00  0.00    -0.107 NA
ATOM     11  C   UNL     1      -1.133  -0.527  24.507  0.00  0.00    +0.222 A 
ATOM     14  C   UNL     1      -2.396   0.892  25.408  0.00  0.00    +0.248 A 
BRANCH  14  16
ATOM     16  C   UNL     1      -3.367   1.947  25.427  0.00  0.00    +0.038 A 
ATOM     19  C   UNL     1      -4.725   1.646  25.319  0.00  0.00    +0.013 A 
ATOM     20  C   UNL     1      -2.954   3.273  25.554  0.00  0.00    +0.013 A 
ATOM     21  C   UNL     1      -5.258   3.998  25.464  0.00  0.00    -0.050 A 
ATOM     22  C   UNL     1      -5.670   2.671  25.337  0.00  0.00    +0.004 A 
ATOM     23  C   UNL     1      -3.900   4.298  25.572  0.00  0.00    +0.004 A 
ATOM     25  C   UNL     1      -6.268   5.094  25.483  0.00  0.00    +0.044 C 
ENDBRANCH  14  16
ENDBRANCH   7  11
BRANCH  18  24
ATOM      6  N   UNL     1       8.365   0.144  23.703  0.00  0.00    -0.191 NA
ATOM     24  C   UNL     1       7.218   0.026  23.567  0.00  0.00    +0.101 C 
ENDBRANCH  18  24
TORSDOF 3
ENDMDL
