MODEL 1
REMARK VINA RESULT:      -3.6      0.000      0.000
REMARK  Name = 45783541
REMARK  9 active torsions:
REMARK  status: ('A' for Active; 'I' for Inactive)
REMARK    1  A    between atoms: O_2  and  C_25
REMARK    2  A    between atoms: O_2  and  C_26
REMARK    3  A    between atoms: O_3  and  C_27
REMARK    4  A    between atoms: O_3  and  C_28
REMARK    5  A    between atoms: N_4  and  C_12
REMARK    6  A    between atoms: C_8  and  C_13
REMARK    7  A    between atoms: C_12  and  C_14
REMARK    8  A    between atoms: C_17  and  C_20
REMARK    9  A    between atoms: C_26  and  C_27
REMARK                            x       y       z     vdW  Elec       q    Type
REMARK                         _______ _______ _______ _____ _____    ______ ____
ROOT
ATOM      1  O   UNL     1      -2.486   3.255  25.507  0.00  0.00    -0.336 OA
ATOM      5  N   UNL     1      -2.361   1.694  23.905  0.00  0.00    -0.190 NA
ATOM      6  N   UNL     1      -1.123   2.983  25.333  0.00  0.00    -0.056 NA
ATOM     13  C   UNL     1      -3.144   2.454  24.629  0.00  0.00    +0.245 A 
ATOM     17  C   UNL     1      -1.131   2.053  24.373  0.00  0.00    +0.204 A 
ENDROOT
BRANCH  17  20
ATOM      7  N   UNL     1       2.449   1.638  23.456  0.00  0.00    -0.221 NA
ATOM     20  C   UNL     1       0.072   1.463  23.861  0.00  0.00    +0.041 A 
ATOM     22  C   UNL     1       0.061   0.196  23.288  0.00  0.00    +0.018 A 
ATOM     23  C   UNL     1       1.281   2.136  23.921  0.00  0.00    +0.126 A 
ATOM     24  C   UNL     1       1.242  -0.351  22.799  0.00  0.00    +0.068 A 
ATOM     25  C   UNL     1       2.399   0.404  22.905  0.00  0.00    +0.215 A 
BRANCH  25   2
ATOM      2  O   UNL     1       3.576  -0.112  22.431  0.00  0.00    -0.474 OA
BRANCH   2  26
ATOM     26  C   UNL     1       4.737   0.694  22.587  0.00  0.00    +0.258 C 
BRANCH  26  27
ATOM     27  C   UNL     1       5.799  -0.105  23.317  0.00  0.00    +0.200 C 
BRANCH  27   3
ATOM      3  O   UNL     1       5.197  -0.789  24.410  0.00  0.00    -0.380 OA
ATOM     28  C   UNL     1       4.747  -2.082  24.029  0.00  0.00    +0.194 C 
ENDBRANCH  27   3
ENDBRANCH  26  27
ENDBRANCH   2  26
ENDBRANCH  25   2
ENDBRANCH  17  20
BRANCH  13   8
ATOM      4  N   UNL     1      -5.309   1.429  25.304  0.00  0.00    -0.287 NA
ATOM      8  C   UNL     1      -4.654   2.560  24.619  0.00  0.00    +0.146 C 
ATOM      9  C   UNL     1      -5.167   3.812  25.354  0.00  0.00    +0.030 C 
ATOM     10  C   UNL     1      -6.148   3.289  26.394  0.00  0.00    +0.017 C 
ATOM     11  C   UNL     1      -6.569   1.943  25.841  0.00  0.00    +0.085 C 
BRANCH   4  12
ATOM     12  C   UNL     1      -5.512   0.273  24.440  0.00  0.00    +0.120 C 
BRANCH  12  14
ATOM     14  C   UNL     1      -4.449  -0.773  24.644  0.00  0.00    -0.033 A 
ATOM     15  C   UNL     1      -4.329  -1.831  23.742  0.00  0.00    +0.005 A 
ATOM     16  C   UNL     1      -3.584  -0.687  25.736  0.00  0.00    +0.005 A 
ATOM     18  C   UNL     1      -3.343  -2.800  23.931  0.00  0.00    +0.000 A 
ATOM     19  C   UNL     1      -2.600  -1.655  25.924  0.00  0.00    +0.000 A 
ATOM     21  C   UNL     1      -2.479  -2.713  25.022  0.00  0.00    +0.000 A 
ENDBRANCH  12  14
ENDBRANCH   4  12
ENDBRANCH  13   8
TORSDOF 8
ENDMDL
MODEL 2
REMARK VINA RESULT:      -2.2      1.886      3.735
REMARK  Name = 45783541
REMARK  9 active torsions:
REMARK  status: ('A' for Active; 'I' for Inactive)
REMARK    1  A    between atoms: O_2  and  C_25
REMARK    2  A    between atoms: O_2  and  C_26
REMARK    3  A    between atoms: O_3  and  C_27
REMARK    4  A    between atoms: O_3  and  C_28
REMARK    5  A    between atoms: N_4  and  C_12
REMARK    6  A    between atoms: C_8  and  C_13
REMARK    7  A    between atoms: C_12  and  C_14
REMARK    8  A    between atoms: C_17  and  C_20
REMARK    9  A    between atoms: C_26  and  C_27
REMARK                            x       y       z     vdW  Elec       q    Type
REMARK                         _______ _______ _______ _____ _____    ______ ____
ROOT
ATOM      1  O   UNL     1      -3.409  -0.763  24.913  0.00  0.00    -0.336 OA
ATOM      5  N   UNL     1      -2.266   1.148  24.671  0.00  0.00    -0.190 NA
ATOM      6  N   UNL     1      -2.177  -1.115  24.347  0.00  0.00    -0.056 NA
ATOM     13  C   UNL     1      -3.379   0.586  25.070  0.00  0.00    +0.245 A 
ATOM     17  C   UNL     1      -1.560   0.065  24.235  0.00  0.00    +0.204 A 
ENDROOT
BRANCH  17  20
ATOM      7  N   UNL     1       1.469  -0.629  22.192  0.00  0.00    -0.221 NA
ATOM     20  C   UNL     1      -0.239   0.195  23.691  0.00  0.00    +0.041 A 
ATOM     22  C   UNL     1       0.605   1.221  24.100  0.00  0.00    +0.018 A 
ATOM     23  C   UNL     1       0.236  -0.695  22.743  0.00  0.00    +0.126 A 
ATOM     24  C   UNL     1       1.881   1.324  23.557  0.00  0.00    +0.068 A 
ATOM     25  C   UNL     1       2.262   0.382  22.615  0.00  0.00    +0.215 A 
BRANCH  25   2
ATOM      2  O   UNL     1       3.514   0.460  22.063  0.00  0.00    -0.474 OA
BRANCH   2  26
ATOM     26  C   UNL     1       4.527   1.065  22.858  0.00  0.00    +0.258 C 
BRANCH  26  27
ATOM     27  C   UNL     1       5.603   0.039  23.152  0.00  0.00    +0.200 C 
BRANCH  27   3
ATOM      3  O   UNL     1       5.234  -0.703  24.308  0.00  0.00    -0.380 OA
ATOM     28  C   UNL     1       4.575  -1.913  23.962  0.00  0.00    +0.194 C 
ENDBRANCH  27   3
ENDBRANCH  26  27
ENDBRANCH   2  26
ENDBRANCH  25   2
ENDBRANCH  17  20
BRANCH  13   8
ATOM      4  N   UNL     1      -4.673   2.679  25.440  0.00  0.00    -0.287 NA
ATOM      8  C   UNL     1      -4.613   1.223  25.674  0.00  0.00    +0.146 C 
ATOM      9  C   UNL     1      -5.920   0.677  25.070  0.00  0.00    +0.030 C 
ATOM     10  C   UNL     1      -6.674   1.904  24.578  0.00  0.00    +0.017 C 
ATOM     11  C   UNL     1      -6.091   3.035  25.401  0.00  0.00    +0.085 C 
BRANCH   4  12
ATOM     12  C   UNL     1      -3.942   3.451  26.438  0.00  0.00    +0.120 C 
BRANCH  12  14
ATOM     14  C   UNL     1      -2.642   3.983  25.894  0.00  0.00    -0.033 A 
ATOM     15  C   UNL     1      -1.448   3.314  26.162  0.00  0.00    +0.005 A 
ATOM     16  C   UNL     1      -2.632   5.146  25.123  0.00  0.00    +0.005 A 
ATOM     18  C   UNL     1      -0.244   3.807  25.657  0.00  0.00    +0.000 A 
ATOM     19  C   UNL     1      -1.429   5.637  24.618  0.00  0.00    +0.000 A 
ATOM     21  C   UNL     1      -0.235   4.968  24.886  0.00  0.00    +0.000 A 
ENDBRANCH  12  14
ENDBRANCH   4  12
ENDBRANCH  13   8
TORSDOF 8
ENDMDL
MODEL 3
REMARK VINA RESULT:      -0.1      1.470      3.543
REMARK  Name = 45783541
REMARK  9 active torsions:
REMARK  status: ('A' for Active; 'I' for Inactive)
REMARK    1  A    between atoms: O_2  and  C_25
REMARK    2  A    between atoms: O_2  and  C_26
REMARK    3  A    between atoms: O_3  and  C_27
REMARK    4  A    between atoms: O_3  and  C_28
REMARK    5  A    between atoms: N_4  and  C_12
REMARK    6  A    between atoms: C_8  and  C_13
REMARK    7  A    between atoms: C_12  and  C_14
REMARK    8  A    between atoms: C_17  and  C_20
REMARK    9  A    between atoms: C_26  and  C_27
REMARK                            x       y       z     vdW  Elec       q    Type
REMARK                         _______ _______ _______ _____ _____    ______ ____
ROOT
ATOM      1  O   UNL     1      -2.105   0.358  25.939  0.00  0.00    -0.336 OA
ATOM      5  N   UNL     1      -1.346  -0.765  24.155  0.00  0.00    -0.190 NA
ATOM      6  N   UNL     1      -0.856   0.913  25.632  0.00  0.00    -0.056 NA
ATOM     13  C   UNL     1      -2.316  -0.623  25.023  0.00  0.00    +0.245 A 
ATOM     17  C   UNL     1      -0.472   0.198  24.570  0.00  0.00    +0.204 A 
ENDROOT
BRANCH  17  20
ATOM      7  N   UNL     1       2.566  -0.445  22.524  0.00  0.00    -0.221 NA
ATOM     20  C   UNL     1       0.777   0.420  23.901  0.00  0.00    +0.041 A 
ATOM     22  C   UNL     1       1.411   1.657  23.961  0.00  0.00    +0.018 A 
ATOM     23  C   UNL     1       1.390  -0.588  23.176  0.00  0.00    +0.126 A 
ATOM     24  C   UNL     1       2.622   1.843  23.304  0.00  0.00    +0.068 A 
ATOM     25  C   UNL     1       3.153   0.771  22.606  0.00  0.00    +0.215 A 
BRANCH  25   2
ATOM      2  O   UNL     1       4.345   0.929  21.949  0.00  0.00    -0.474 OA
BRANCH   2  26
ATOM     26  C   UNL     1       5.449   0.174  22.434  0.00  0.00    +0.258 C 
BRANCH  26  27
ATOM     27  C   UNL     1       5.722   0.566  23.873  0.00  0.00    +0.200 C 
BRANCH  27   3
ATOM      3  O   UNL     1       5.484  -0.558  24.713  0.00  0.00    -0.380 OA
ATOM     28  C   UNL     1       5.153  -1.713  23.956  0.00  0.00    +0.194 C 
ENDBRANCH  27   3
ENDBRANCH  26  27
ENDBRANCH   2  26
ENDBRANCH  25   2
ENDBRANCH  17  20
BRANCH  13   8
ATOM      4  N   UNL     1      -4.660  -0.877  24.224  0.00  0.00    -0.287 NA
ATOM      8  C   UNL     1      -3.619  -1.386  25.139  0.00  0.00    +0.146 C 
ATOM      9  C   UNL     1      -3.470  -2.874  24.772  0.00  0.00    +0.030 C 
ATOM     10  C   UNL     1      -4.508  -3.122  23.687  0.00  0.00    +0.017 C 
ATOM     11  C   UNL     1      -5.520  -2.016  23.902  0.00  0.00    +0.085 C 
BRANCH   4  12
ATOM     12  C   UNL     1      -5.413   0.241  24.777  0.00  0.00    +0.120 C 
BRANCH  12  14
ATOM     14  C   UNL     1      -4.689   1.548  24.600  0.00  0.00    -0.033 A 
ATOM     15  C   UNL     1      -3.876   1.750  23.485  0.00  0.00    +0.005 A 
ATOM     16  C   UNL     1      -4.831   2.559  25.552  0.00  0.00    +0.005 A 
ATOM     18  C   UNL     1      -3.206   2.963  23.320  0.00  0.00    +0.000 A 
ATOM     19  C   UNL     1      -4.161   3.771  25.387  0.00  0.00    +0.000 A 
ATOM     21  C   UNL     1      -3.348   3.973  24.271  0.00  0.00    +0.000 A 
ENDBRANCH  12  14
ENDBRANCH   4  12
ENDBRANCH  13   8
TORSDOF 8
ENDMDL
