MODEL 1
REMARK VINA RESULT:      -1.1      0.000      0.000
REMARK  Name = 51137880
REMARK  6 active torsions:
REMARK  status: ('A' for Active; 'I' for Inactive)
REMARK    1  A    between atoms: O_1  and  C_25
REMARK    2  A    between atoms: N_3  and  C_11
REMARK    3  A    between atoms: N_4  and  C_15
REMARK    4  A    between atoms: C_6  and  C_10
REMARK    5  A    between atoms: C_11  and  C_13
REMARK    6  A    between atoms: C_24  and  C_25
REMARK                            x       y       z     vdW  Elec       q    Type
REMARK                         _______ _______ _______ _____ _____    ______ ____
ROOT
ATOM      3  N   UNL     1      -4.086  -9.977  13.735  0.00  0.00    -0.297 NA
ATOM      6  C   UNL     1      -6.146  -9.205  12.922  0.00  0.00    +0.070 C 
ATOM      7  C   UNL     1      -6.368  -9.984  14.231  0.00  0.00    +0.028 C 
ATOM      8  C   UNL     1      -4.729  -9.589  12.477  0.00  0.00    +0.096 C 
ATOM      9  C   UNL     1      -5.086 -10.781  14.437  0.00  0.00    +0.085 C 
ENDROOT
BRANCH   6  10
ATOM      4  N   UNL     1      -7.015  -9.033  10.562  0.00  0.00    -0.330 N 
ATOM      5  N   UNL     1      -8.333 -10.068  12.023  0.00  0.00    -0.232 NA
ATOM     10  C   UNL     1      -7.186  -9.450  11.854  0.00  0.00    +0.115 A 
ATOM     12  C   UNL     1      -8.127  -9.407   9.851  0.00  0.00    +0.069 A 
ATOM     14  C   UNL     1      -8.934 -10.051  10.785  0.00  0.00    +0.089 A 
ATOM     15  C   UNL     1      -5.870  -8.325  10.037  0.00  0.00    +0.150 C 
ATOM     16  C   UNL     1      -8.484  -9.241   8.513  0.00  0.00    +0.028 A 
ATOM     19  C   UNL     1     -10.175 -10.567  10.377  0.00  0.00    +0.030 A 
ATOM     20  C   UNL     1      -9.723  -9.761   8.124  0.00  0.00    +0.002 A 
ATOM     21  C   UNL     1     -10.555 -10.412   9.037  0.00  0.00    +0.002 A 
ENDBRANCH   6  10
BRANCH   3  11
ATOM     11  C   UNL     1      -2.842 -10.701  13.523  0.00  0.00    +0.119 C 
BRANCH  11  13
ATOM     13  C   UNL     1      -1.720  -9.783  13.116  0.00  0.00    -0.033 A 
ATOM     17  C   UNL     1      -1.103  -8.971  14.068  0.00  0.00    +0.006 A 
ATOM     18  C   UNL     1      -1.298  -9.744  11.786  0.00  0.00    +0.006 A 
ATOM     22  C   UNL     1      -0.064  -8.121  13.691  0.00  0.00    +0.015 A 
ATOM     23  C   UNL     1      -0.258  -8.894  11.410  0.00  0.00    +0.015 A 
ATOM     24  C   UNL     1       0.358  -8.082  12.363  0.00  0.00    +0.059 A 
BRANCH  24  25
ATOM      2  O   UNL     1       1.569  -6.019  12.321  0.00  0.00    -0.245 OA
ATOM     25  C   UNL     1       1.443  -7.197  11.969  0.00  0.00    +0.337 C 
BRANCH  25   1
ATOM      1  O   UNL     1       2.341  -7.805  11.147  0.00  0.00    -0.477 OA
ATOM     26  H   UNL     1       1.991  -7.912  10.238  0.00  0.00    +0.295 HD
ENDBRANCH  25   1
ENDBRANCH  24  25
ENDBRANCH  11  13
ENDBRANCH   3  11
TORSDOF 5
ENDMDL
MODEL 2
REMARK VINA RESULT:      -1.0     15.479     18.000
REMARK  Name = 51137880
REMARK  6 active torsions:
REMARK  status: ('A' for Active; 'I' for Inactive)
REMARK    1  A    between atoms: O_1  and  C_25
REMARK    2  A    between atoms: N_3  and  C_11
REMARK    3  A    between atoms: N_4  and  C_15
REMARK    4  A    between atoms: C_6  and  C_10
REMARK    5  A    between atoms: C_11  and  C_13
REMARK    6  A    between atoms: C_24  and  C_25
REMARK                            x       y       z     vdW  Elec       q    Type
REMARK                         _______ _______ _______ _____ _____    ______ ____
ROOT
ATOM      3  N   UNL     1       0.404   2.965  25.093  0.00  0.00    -0.297 NA
ATOM      6  C   UNL     1       0.076   0.648  24.931  0.00  0.00    +0.070 C 
ATOM      7  C   UNL     1       0.769   1.161  23.656  0.00  0.00    +0.028 C 
ATOM      8  C   UNL     1      -0.472   1.911  25.609  0.00  0.00    +0.096 C 
ATOM      9  C   UNL     1       0.551   2.668  23.668  0.00  0.00    +0.085 C 
ENDROOT
BRANCH   6  10
ATOM      4  N   UNL     1      -2.240  -0.087  24.260  0.00  0.00    -0.330 N 
ATOM      5  N   UNL     1      -0.838  -1.697  24.880  0.00  0.00    -0.232 NA
ATOM     10  C   UNL     1      -0.983  -0.403  24.699  0.00  0.00    +0.115 A 
ATOM     12  C   UNL     1      -2.952  -1.253  24.152  0.00  0.00    +0.069 A 
ATOM     14  C   UNL     1      -2.055  -2.244  24.544  0.00  0.00    +0.089 A 
ATOM     15  C   UNL     1      -2.732   1.239  23.963  0.00  0.00    +0.150 C 
ATOM     16  C   UNL     1      -4.263  -1.519  23.757  0.00  0.00    +0.028 A 
ATOM     19  C   UNL     1      -2.475  -3.584  24.549  0.00  0.00    +0.030 A 
ATOM     20  C   UNL     1      -4.664  -2.860  23.767  0.00  0.00    +0.002 A 
ATOM     21  C   UNL     1      -3.788  -3.875  24.155  0.00  0.00    +0.002 A 
ENDBRANCH   6  10
BRANCH   3  11
ATOM     11  C   UNL     1      -0.131   4.297  25.329  0.00  0.00    +0.119 C 
BRANCH  11  13
ATOM     13  C   UNL     1      -1.635   4.295  25.390  0.00  0.00    -0.033 A 
ATOM     17  C   UNL     1      -2.378   4.693  24.279  0.00  0.00    +0.006 A 
ATOM     18  C   UNL     1      -2.286   3.895  26.558  0.00  0.00    +0.006 A 
ATOM     22  C   UNL     1      -3.772   4.690  24.334  0.00  0.00    +0.015 A 
ATOM     23  C   UNL     1      -3.679   3.892  26.614  0.00  0.00    +0.015 A 
ATOM     24  C   UNL     1      -4.422   4.291  25.501  0.00  0.00    +0.059 A 
BRANCH  24  25
ATOM      2  O   UNL     1      -6.593   5.292  25.608  0.00  0.00    -0.245 OA
ATOM     25  C   UNL     1      -5.875   4.287  25.560  0.00  0.00    +0.337 C 
BRANCH  25   1
ATOM      1  O   UNL     1      -6.394   3.028  25.558  0.00  0.00    -0.477 OA
ATOM     26  H   UNL     1      -5.776   2.379  25.161  0.00  0.00    +0.295 HD
ENDBRANCH  25   1
ENDBRANCH  24  25
ENDBRANCH  11  13
ENDBRANCH   3  11
TORSDOF 5
ENDMDL
MODEL 3
REMARK VINA RESULT:      -0.0      1.340      2.024
REMARK  Name = 51137880
REMARK  6 active torsions:
REMARK  status: ('A' for Active; 'I' for Inactive)
REMARK    1  A    between atoms: O_1  and  C_25
REMARK    2  A    between atoms: N_3  and  C_11
REMARK    3  A    between atoms: N_4  and  C_15
REMARK    4  A    between atoms: C_6  and  C_10
REMARK    5  A    between atoms: C_11  and  C_13
REMARK    6  A    between atoms: C_24  and  C_25
REMARK                            x       y       z     vdW  Elec       q    Type
REMARK                         _______ _______ _______ _____ _____    ______ ____
ROOT
ATOM      3  N   UNL     1      -4.413 -10.041  15.612  0.00  0.00    -0.297 NA
ATOM      6  C   UNL     1      -6.413  -9.347  14.603  0.00  0.00    +0.070 C 
ATOM      7  C   UNL     1      -6.722 -10.008  15.958  0.00  0.00    +0.028 C 
ATOM      8  C   UNL     1      -4.972  -9.767  14.286  0.00  0.00    +0.096 C 
ATOM      9  C   UNL     1      -5.460 -10.781  16.316  0.00  0.00    +0.085 C 
ENDROOT
BRANCH   6  10
ATOM      4  N   UNL     1      -7.014  -9.687  12.178  0.00  0.00    -0.330 N 
ATOM      5  N   UNL     1      -8.646 -10.015  13.650  0.00  0.00    -0.232 NA
ATOM     10  C   UNL     1      -7.383  -9.688  13.496  0.00  0.00    +0.115 A 
ATOM     12  C   UNL     1      -8.112 -10.035  11.435  0.00  0.00    +0.069 A 
ATOM     14  C   UNL     1      -9.118 -10.235  12.377  0.00  0.00    +0.089 A 
ATOM     15  C   UNL     1      -5.702  -9.374  11.659  0.00  0.00    +0.150 C 
ATOM     16  C   UNL     1      -8.306 -10.188  10.062  0.00  0.00    +0.028 A 
ATOM     19  C   UNL     1     -10.400 -10.610  11.941  0.00  0.00    +0.030 A 
ATOM     20  C   UNL     1      -9.589 -10.562   9.645  0.00  0.00    +0.002 A 
ATOM     21  C   UNL     1     -10.618 -10.769  10.566  0.00  0.00    +0.002 A 
ENDBRANCH   6  10
BRANCH   3  11
ATOM     11  C   UNL     1      -3.161 -10.779  15.545  0.00  0.00    +0.119 C 
BRANCH  11  13
ATOM     13  C   UNL     1      -2.218 -10.194  14.527  0.00  0.00    -0.033 A 
ATOM     17  C   UNL     1      -2.345 -10.540  13.182  0.00  0.00    +0.006 A 
ATOM     18  C   UNL     1      -1.219  -9.307  14.929  0.00  0.00    +0.006 A 
ATOM     22  C   UNL     1      -1.473  -9.998  12.238  0.00  0.00    +0.015 A 
ATOM     23  C   UNL     1      -0.347  -8.765  13.985  0.00  0.00    +0.015 A 
ATOM     24  C   UNL     1      -0.474  -9.111  12.639  0.00  0.00    +0.059 A 
BRANCH  24  25
ATOM      2  O   UNL     1       0.780  -9.091  10.601  0.00  0.00    -0.245 OA
ATOM     25  C   UNL     1       0.435  -8.545  11.655  0.00  0.00    +0.337 C 
BRANCH  25   1
ATOM      1  O   UNL     1       0.890  -7.313  12.013  0.00  0.00    -0.477 OA
ATOM     26  H   UNL     1       1.766  -7.118  11.618  0.00  0.00    +0.295 HD
ENDBRANCH  25   1
ENDBRANCH  24  25
ENDBRANCH  11  13
ENDBRANCH   3  11
TORSDOF 5
ENDMDL
MODEL 4
REMARK VINA RESULT:       0.2     15.458     17.057
REMARK  Name = 51137880
REMARK  6 active torsions:
REMARK  status: ('A' for Active; 'I' for Inactive)
REMARK    1  A    between atoms: O_1  and  C_25
REMARK    2  A    between atoms: N_3  and  C_11
REMARK    3  A    between atoms: N_4  and  C_15
REMARK    4  A    between atoms: C_6  and  C_10
REMARK    5  A    between atoms: C_11  and  C_13
REMARK    6  A    between atoms: C_24  and  C_25
REMARK                            x       y       z     vdW  Elec       q    Type
REMARK                         _______ _______ _______ _____ _____    ______ ____
ROOT
ATOM      3  N   UNL     1       0.214  -0.671  23.875  0.00  0.00    -0.297 NA
ATOM      6  C   UNL     1      -1.419   0.210  25.310  0.00  0.00    +0.070 C 
ATOM      7  C   UNL     1      -1.690  -1.288  25.079  0.00  0.00    +0.028 C 
ATOM      8  C   UNL     1      -0.434   0.602  24.200  0.00  0.00    +0.096 C 
ATOM      9  C   UNL     1      -0.872  -1.650  23.846  0.00  0.00    +0.085 C 
ENDROOT
BRANCH   6  10
ATOM      4  N   UNL     1      -2.586   2.436  25.508  0.00  0.00    -0.330 N 
ATOM      5  N   UNL     1      -3.893   0.665  25.202  0.00  0.00    -0.232 NA
ATOM     10  C   UNL     1      -2.654   1.080  25.336  0.00  0.00    +0.115 A 
ATOM     12  C   UNL     1      -3.866   2.926  25.483  0.00  0.00    +0.069 A 
ATOM     14  C   UNL     1      -4.664   1.801  25.292  0.00  0.00    +0.089 A 
ATOM     15  C   UNL     1      -1.382   3.215  25.684  0.00  0.00    +0.150 C 
ATOM     16  C   UNL     1      -4.379   4.217  25.609  0.00  0.00    +0.028 A 
ATOM     19  C   UNL     1      -6.058   1.954  25.219  0.00  0.00    +0.030 A 
ATOM     20  C   UNL     1      -5.770   4.352  25.534  0.00  0.00    +0.002 A 
ATOM     21  C   UNL     1      -6.596   3.242  25.343  0.00  0.00    +0.002 A 
ENDBRANCH   6  10
BRANCH   3  11
ATOM     11  C   UNL     1       0.946  -0.617  22.619  0.00  0.00    +0.119 C 
BRANCH  11  13
ATOM     13  C   UNL     1       2.421  -0.410  22.837  0.00  0.00    -0.033 A 
ATOM     17  C   UNL     1       3.172  -1.387  23.491  0.00  0.00    +0.006 A 
ATOM     18  C   UNL     1       3.037   0.757  22.384  0.00  0.00    +0.006 A 
ATOM     22  C   UNL     1       4.539  -1.196  23.692  0.00  0.00    +0.015 A 
ATOM     23  C   UNL     1       4.404   0.947  22.585  0.00  0.00    +0.015 A 
ATOM     24  C   UNL     1       5.155  -0.030  23.240  0.00  0.00    +0.059 A 
BRANCH  24  25
ATOM      2  O   UNL     1       7.482  -0.432  22.855  0.00  0.00    -0.245 OA
ATOM     25  C   UNL     1       6.580   0.170  23.449  0.00  0.00    +0.337 C 
BRANCH  25   1
ATOM      1  O   UNL     1       6.842   1.114  24.393  0.00  0.00    -0.477 OA
ATOM     26  H   UNL     1       6.107   1.202  25.036  0.00  0.00    +0.295 HD
ENDBRANCH  25   1
ENDBRANCH  24  25
ENDBRANCH  11  13
ENDBRANCH   3  11
TORSDOF 5
ENDMDL
MODEL 5
REMARK VINA RESULT:       0.8     15.475     17.893
REMARK  Name = 51137880
REMARK  6 active torsions:
REMARK  status: ('A' for Active; 'I' for Inactive)
REMARK    1  A    between atoms: O_1  and  C_25
REMARK    2  A    between atoms: N_3  and  C_11
REMARK    3  A    between atoms: N_4  and  C_15
REMARK    4  A    between atoms: C_6  and  C_10
REMARK    5  A    between atoms: C_11  and  C_13
REMARK    6  A    between atoms: C_24  and  C_25
REMARK                            x       y       z     vdW  Elec       q    Type
REMARK                         _______ _______ _______ _____ _____    ______ ____
ROOT
ATOM      3  N   UNL     1      -2.774  -1.697  24.586  0.00  0.00    -0.297 NA
ATOM      6  C   UNL     1      -0.445  -1.941  24.708  0.00  0.00    +0.070 C 
ATOM      7  C   UNL     1      -0.974  -1.376  26.039  0.00  0.00    +0.028 C 
ATOM      8  C   UNL     1      -1.597  -1.739  23.715  0.00  0.00    +0.096 C 
ATOM      9  C   UNL     1      -2.373  -0.865  25.721  0.00  0.00    +0.085 C 
ENDROOT
BRANCH   6  10
ATOM      4  N   UNL     1       0.910  -0.103  23.639  0.00  0.00    -0.330 N 
ATOM      5  N   UNL     1       2.044  -1.886  24.329  0.00  0.00    -0.232 NA
ATOM     10  C   UNL     1       0.855  -1.334  24.234  0.00  0.00    +0.115 A 
ATOM     12  C   UNL     1       2.220   0.155  23.330  0.00  0.00    +0.069 A 
ATOM     14  C   UNL     1       2.908  -0.973  23.771  0.00  0.00    +0.089 A 
ATOM     15  C   UNL     1      -0.212   0.771  23.381  0.00  0.00    +0.150 C 
ATOM     16  C   UNL     1       2.844   1.244  22.722  0.00  0.00    +0.028 A 
ATOM     19  C   UNL     1       4.301  -1.034  23.602  0.00  0.00    +0.030 A 
ATOM     20  C   UNL     1       4.232   1.166  22.562  0.00  0.00    +0.002 A 
ATOM     21  C   UNL     1       4.949   0.048  22.994  0.00  0.00    +0.002 A 
ENDBRANCH   6  10
BRANCH   3  11
ATOM     11  C   UNL     1      -3.950  -1.176  23.905  0.00  0.00    +0.119 C 
BRANCH  11  13
ATOM     13  C   UNL     1      -4.261   0.237  24.322  0.00  0.00    -0.033 A 
ATOM     17  C   UNL     1      -5.241   0.480  25.284  0.00  0.00    +0.006 A 
ATOM     18  C   UNL     1      -3.568   1.303  23.747  0.00  0.00    +0.006 A 
ATOM     22  C   UNL     1      -5.528   1.788  25.672  0.00  0.00    +0.015 A 
ATOM     23  C   UNL     1      -3.855   2.612  24.135  0.00  0.00    +0.015 A 
ATOM     24  C   UNL     1      -4.836   2.854  25.097  0.00  0.00    +0.059 A 
BRANCH  24  25
ATOM      2  O   UNL     1      -6.267   4.690  25.650  0.00  0.00    -0.245 OA
ATOM     25  C   UNL     1      -5.134   4.219  25.501  0.00  0.00    +0.337 C 
BRANCH  25   1
ATOM      1  O   UNL     1      -4.011   4.959  25.708  0.00  0.00    -0.477 OA
ATOM     26  H   UNL     1      -3.215   4.395  25.806  0.00  0.00    +0.295 HD
ENDBRANCH  25   1
ENDBRANCH  24  25
ENDBRANCH  11  13
ENDBRANCH   3  11
TORSDOF 5
ENDMDL
MODEL 6
REMARK VINA RESULT:       1.3     15.890     17.965
REMARK  Name = 51137880
REMARK  6 active torsions:
REMARK  status: ('A' for Active; 'I' for Inactive)
REMARK    1  A    between atoms: O_1  and  C_25
REMARK    2  A    between atoms: N_3  and  C_11
REMARK    3  A    between atoms: N_4  and  C_15
REMARK    4  A    between atoms: C_6  and  C_10
REMARK    5  A    between atoms: C_11  and  C_13
REMARK    6  A    between atoms: C_24  and  C_25
REMARK                            x       y       z     vdW  Elec       q    Type
REMARK                         _______ _______ _______ _____ _____    ______ ____
ROOT
ATOM      3  N   UNL     1      -3.101  -0.825  24.723  0.00  0.00    -0.297 NA
ATOM      6  C   UNL     1      -0.986  -1.512  23.978  0.00  0.00    +0.070 C 
ATOM      7  C   UNL     1      -1.248  -2.084  25.383  0.00  0.00    +0.028 C 
ATOM      8  C   UNL     1      -2.037  -0.408  23.806  0.00  0.00    +0.096 C 
ATOM      9  C   UNL     1      -2.404  -1.261  25.934  0.00  0.00    +0.085 C 
ENDROOT
BRANCH   6  10
ATOM      4  N   UNL     1       0.694   0.244  23.308  0.00  0.00    -0.330 N 
ATOM      5  N   UNL     1       1.522  -1.724  23.925  0.00  0.00    -0.232 NA
ATOM     10  C   UNL     1       0.424  -1.024  23.745  0.00  0.00    +0.115 A 
ATOM     12  C   UNL     1       2.055   0.370  23.199  0.00  0.00    +0.069 A 
ATOM     14  C   UNL     1       2.549  -0.871  23.590  0.00  0.00    +0.089 A 
ATOM     15  C   UNL     1      -0.280   1.271  23.012  0.00  0.00    +0.150 C 
ATOM     16  C   UNL     1       2.870   1.430  22.804  0.00  0.00    +0.028 A 
ATOM     19  C   UNL     1       3.937  -1.085  23.593  0.00  0.00    +0.030 A 
ATOM     20  C   UNL     1       4.251   1.200  22.813  0.00  0.00    +0.002 A 
ATOM     21  C   UNL     1       4.777  -0.034  23.200  0.00  0.00    +0.002 A 
ENDBRANCH   6  10
BRANCH   3  11
ATOM     11  C   UNL     1      -4.056   0.240  24.987  0.00  0.00    +0.119 C 
BRANCH  11  13
ATOM     13  C   UNL     1      -3.399   1.595  24.991  0.00  0.00    -0.033 A 
ATOM     17  C   UNL     1      -3.938   2.633  24.231  0.00  0.00    +0.006 A 
ATOM     18  C   UNL     1      -2.252   1.812  25.755  0.00  0.00    +0.006 A 
ATOM     22  C   UNL     1      -3.330   3.888  24.235  0.00  0.00    +0.015 A 
ATOM     23  C   UNL     1      -1.645   3.068  25.760  0.00  0.00    +0.015 A 
ATOM     24  C   UNL     1      -2.184   4.105  24.999  0.00  0.00    +0.059 A 
BRANCH  24  25
ATOM      2  O   UNL     1      -2.105   6.478  25.301  0.00  0.00    -0.245 OA
ATOM     25  C   UNL     1      -1.549   5.414  25.004  0.00  0.00    +0.337 C 
BRANCH  25   1
ATOM      1  O   UNL     1      -0.239   5.360  24.640  0.00  0.00    -0.477 OA
ATOM     26  H   UNL     1       0.343   5.151  25.401  0.00  0.00    +0.295 HD
ENDBRANCH  25   1
ENDBRANCH  24  25
ENDBRANCH  11  13
ENDBRANCH   3  11
TORSDOF 5
ENDMDL
MODEL 7
REMARK VINA RESULT:       1.8     14.697     17.756
REMARK  Name = 51137880
REMARK  6 active torsions:
REMARK  status: ('A' for Active; 'I' for Inactive)
REMARK    1  A    between atoms: O_1  and  C_25
REMARK    2  A    between atoms: N_3  and  C_11
REMARK    3  A    between atoms: N_4  and  C_15
REMARK    4  A    between atoms: C_6  and  C_10
REMARK    5  A    between atoms: C_11  and  C_13
REMARK    6  A    between atoms: C_24  and  C_25
REMARK                            x       y       z     vdW  Elec       q    Type
REMARK                         _______ _______ _______ _____ _____    ______ ____
ROOT
ATOM      3  N   UNL     1      -3.174   3.165  25.639  0.00  0.00    -0.297 NA
ATOM      6  C   UNL     1      -0.889   3.124  25.111  0.00  0.00    +0.070 C 
ATOM      7  C   UNL     1      -1.586   4.228  24.297  0.00  0.00    +0.028 C 
ATOM      8  C   UNL     1      -2.034   2.245  25.632  0.00  0.00    +0.096 C 
ATOM      9  C   UNL     1      -3.071   3.901  24.379  0.00  0.00    +0.085 C 
ENDROOT
BRANCH   6  10
ATOM      4  N   UNL     1      -0.158   1.232  23.613  0.00  0.00    -0.330 N 
ATOM      5  N   UNL     1       1.441   2.612  24.306  0.00  0.00    -0.232 NA
ATOM     10  C   UNL     1       0.156   2.340  24.352  0.00  0.00    +0.115 A 
ATOM     12  C   UNL     1       1.001   0.758  23.055  0.00  0.00    +0.069 A 
ATOM     14  C   UNL     1       1.984   1.636  23.503  0.00  0.00    +0.089 A 
ATOM     15  C   UNL     1      -1.476   0.660  23.449  0.00  0.00    +0.150 C 
ATOM     16  C   UNL     1       1.265  -0.330  22.223  0.00  0.00    +0.028 A 
ATOM     19  C   UNL     1       3.316   1.432  23.106  0.00  0.00    +0.030 A 
ATOM     20  C   UNL     1       2.597  -0.518  21.838  0.00  0.00    +0.002 A 
ATOM     21  C   UNL     1       3.606   0.345  22.271  0.00  0.00    +0.002 A 
ENDBRANCH   6  10
BRANCH   3  11
ATOM     11  C   UNL     1      -4.446   2.472  25.774  0.00  0.00    +0.119 C 
BRANCH  11  13
ATOM     13  C   UNL     1      -4.353   1.036  25.328  0.00  0.00    -0.033 A 
ATOM     17  C   UNL     1      -4.826   0.665  24.070  0.00  0.00    +0.006 A 
ATOM     18  C   UNL     1      -3.794   0.078  26.174  0.00  0.00    +0.006 A 
ATOM     22  C   UNL     1      -4.739  -0.664  23.656  0.00  0.00    +0.015 A 
ATOM     23  C   UNL     1      -3.707  -1.251  25.761  0.00  0.00    +0.015 A 
ATOM     24  C   UNL     1      -4.181  -1.622  24.502  0.00  0.00    +0.059 A 
BRANCH  24  25
ATOM      2  O   UNL     1      -4.835  -3.554  23.251  0.00  0.00    -0.245 OA
ATOM     25  C   UNL     1      -4.089  -3.008  24.071  0.00  0.00    +0.337 C 
BRANCH  25   1
ATOM      1  O   UNL     1      -3.069  -3.676  24.676  0.00  0.00    -0.477 OA
ATOM     26  H   UNL     1      -3.397  -4.346  25.313  0.00  0.00    +0.295 HD
ENDBRANCH  25   1
ENDBRANCH  24  25
ENDBRANCH  11  13
ENDBRANCH   3  11
TORSDOF 5
ENDMDL
MODEL 8
REMARK VINA RESULT:       2.1     16.039     17.171
REMARK  Name = 51137880
REMARK  6 active torsions:
REMARK  status: ('A' for Active; 'I' for Inactive)
REMARK    1  A    between atoms: O_1  and  C_25
REMARK    2  A    between atoms: N_3  and  C_11
REMARK    3  A    between atoms: N_4  and  C_15
REMARK    4  A    between atoms: C_6  and  C_10
REMARK    5  A    between atoms: C_11  and  C_13
REMARK    6  A    between atoms: C_24  and  C_25
REMARK                            x       y       z     vdW  Elec       q    Type
REMARK                         _______ _______ _______ _____ _____    ______ ____
ROOT
ATOM      3  N   UNL     1       0.716   0.978  23.266  0.00  0.00    -0.297 NA
ATOM      6  C   UNL     1      -1.146   2.361  23.615  0.00  0.00    +0.070 C 
ATOM      7  C   UNL     1      -0.058   2.691  24.653  0.00  0.00    +0.028 C 
ATOM      8  C   UNL     1      -0.730   1.003  23.035  0.00  0.00    +0.096 C 
ATOM      9  C   UNL     1       0.889   1.499  24.622  0.00  0.00    +0.085 C 
ENDROOT
BRANCH   6  10
ATOM      4  N   UNL     1      -3.096   3.456  24.779  0.00  0.00    -0.330 N 
ATOM      5  N   UNL     1      -3.408   1.365  24.093  0.00  0.00    -0.232 NA
ATOM     10  C   UNL     1      -2.557   2.364  24.154  0.00  0.00    +0.115 A 
ATOM     12  C   UNL     1      -4.379   3.138  25.144  0.00  0.00    +0.069 A 
ATOM     14  C   UNL     1      -4.550   1.828  24.706  0.00  0.00    +0.089 A 
ATOM     15  C   UNL     1      -2.435   4.719  25.013  0.00  0.00    +0.150 C 
ATOM     16  C   UNL     1      -5.374   3.862  25.802  0.00  0.00    +0.028 A 
ATOM     19  C   UNL     1      -5.780   1.187  24.927  0.00  0.00    +0.030 A 
ATOM     20  C   UNL     1      -6.592   3.208  26.014  0.00  0.00    +0.002 A 
ATOM     21  C   UNL     1      -6.794   1.894  25.586  0.00  0.00    +0.002 A 
ENDBRANCH   6  10
BRANCH   3  11
ATOM     11  C   UNL     1       1.282  -0.353  23.106  0.00  0.00    +0.119 C 
BRANCH  11  13
ATOM     13  C   UNL     1       2.787  -0.330  23.135  0.00  0.00    -0.033 A 
ATOM     17  C   UNL     1       3.489  -1.392  23.704  0.00  0.00    +0.006 A 
ATOM     18  C   UNL     1       3.479   0.753  22.593  0.00  0.00    +0.006 A 
ATOM     22  C   UNL     1       4.883  -1.373  23.731  0.00  0.00    +0.015 A 
ATOM     23  C   UNL     1       4.874   0.773  22.620  0.00  0.00    +0.015 A 
ATOM     24  C   UNL     1       5.575  -0.290  23.189  0.00  0.00    +0.059 A 
BRANCH  24  25
ATOM      2  O   UNL     1       7.721   0.354  24.028  0.00  0.00    -0.245 OA
ATOM     25  C   UNL     1       7.029  -0.268  23.215  0.00  0.00    +0.337 C 
BRANCH  25   1
ATOM      1  O   UNL     1       7.580  -1.025  22.227  0.00  0.00    -0.477 OA
ATOM     26  H   UNL     1       7.557  -1.981  22.443  0.00  0.00    +0.295 HD
ENDBRANCH  25   1
ENDBRANCH  24  25
ENDBRANCH  11  13
ENDBRANCH   3  11
TORSDOF 5
ENDMDL
MODEL 9
REMARK VINA RESULT:       2.2     14.825     17.169
REMARK  Name = 51137880
REMARK  6 active torsions:
REMARK  status: ('A' for Active; 'I' for Inactive)
REMARK    1  A    between atoms: O_1  and  C_25
REMARK    2  A    between atoms: N_3  and  C_11
REMARK    3  A    between atoms: N_4  and  C_15
REMARK    4  A    between atoms: C_6  and  C_10
REMARK    5  A    between atoms: C_11  and  C_13
REMARK    6  A    between atoms: C_24  and  C_25
REMARK                            x       y       z     vdW  Elec       q    Type
REMARK                         _______ _______ _______ _____ _____    ______ ____
ROOT
ATOM      3  N   UNL     1      -3.343  -1.830  25.044  0.00  0.00    -0.297 NA
ATOM      6  C   UNL     1      -3.913   0.404  25.475  0.00  0.00    +0.070 C 
ATOM      7  C   UNL     1      -4.791  -0.141  24.334  0.00  0.00    +0.028 C 
ATOM      8  C   UNL     1      -2.762  -0.603  25.594  0.00  0.00    +0.096 C 
ATOM      9  C   UNL     1      -4.078  -1.399  23.855  0.00  0.00    +0.085 C 
ENDROOT
BRANCH   6  10
ATOM      4  N   UNL     1      -2.115   2.168  25.375  0.00  0.00    -0.330 N 
ATOM      5  N   UNL     1      -4.196   2.865  25.023  0.00  0.00    -0.232 NA
ATOM     10  C   UNL     1      -3.437   1.825  25.286  0.00  0.00    +0.115 A 
ATOM     12  C   UNL     1      -2.017   3.518  25.155  0.00  0.00    +0.069 A 
ATOM     14  C   UNL     1      -3.329   3.929  24.939  0.00  0.00    +0.089 A 
ATOM     15  C   UNL     1      -1.016   1.270  25.651  0.00  0.00    +0.150 C 
ATOM     16  C   UNL     1      -0.926   4.387  25.129  0.00  0.00    +0.028 A 
ATOM     19  C   UNL     1      -3.587   5.285  24.678  0.00  0.00    +0.030 A 
ATOM     20  C   UNL     1      -1.201   5.734  24.868  0.00  0.00    +0.002 A 
ATOM     21  C   UNL     1      -2.507   6.177  24.647  0.00  0.00    +0.002 A 
ENDBRANCH   6  10
BRANCH   3  11
ATOM     11  C   UNL     1      -2.336  -2.834  24.740  0.00  0.00    +0.119 C 
BRANCH  11  13
ATOM     13  C   UNL     1      -1.021  -2.211  24.351  0.00  0.00    -0.033 A 
ATOM     17  C   UNL     1      -0.949  -1.377  23.235  0.00  0.00    +0.006 A 
ATOM     18  C   UNL     1       0.123  -2.467  25.106  0.00  0.00    +0.006 A 
ATOM     22  C   UNL     1       0.267  -0.798  22.875  0.00  0.00    +0.015 A 
ATOM     23  C   UNL     1       1.340  -1.889  24.746  0.00  0.00    +0.015 A 
ATOM     24  C   UNL     1       1.412  -1.054  23.630  0.00  0.00    +0.059 A 
BRANCH  24  25
ATOM      2  O   UNL     1       2.815   0.625  22.663  0.00  0.00    -0.245 OA
ATOM     25  C   UNL     1       2.681  -0.451  23.255  0.00  0.00    +0.337 C 
BRANCH  25   1
ATOM      1  O   UNL     1       3.749  -1.207  23.631  0.00  0.00    -0.477 OA
ATOM     26  H   UNL     1       3.584  -1.680  24.474  0.00  0.00    +0.295 HD
ENDBRANCH  25   1
ENDBRANCH  24  25
ENDBRANCH  11  13
ENDBRANCH   3  11
TORSDOF 5
ENDMDL
MODEL 10
REMARK VINA RESULT:       2.4     14.702     16.722
REMARK  Name = 51137880
REMARK  6 active torsions:
REMARK  status: ('A' for Active; 'I' for Inactive)
REMARK    1  A    between atoms: O_1  and  C_25
REMARK    2  A    between atoms: N_3  and  C_11
REMARK    3  A    between atoms: N_4  and  C_15
REMARK    4  A    between atoms: C_6  and  C_10
REMARK    5  A    between atoms: C_11  and  C_13
REMARK    6  A    between atoms: C_24  and  C_25
REMARK                            x       y       z     vdW  Elec       q    Type
REMARK                         _______ _______ _______ _____ _____    ______ ____
ROOT
ATOM      3  N   UNL     1      -3.135  -2.383  24.934  0.00  0.00    -0.297 NA
ATOM      6  C   UNL     1      -4.705  -0.672  25.262  0.00  0.00    +0.070 C 
ATOM      7  C   UNL     1      -5.031  -1.428  23.961  0.00  0.00    +0.028 C 
ATOM      8  C   UNL     1      -3.267  -1.085  25.601  0.00  0.00    +0.096 C 
ATOM      9  C   UNL     1      -3.761  -2.199  23.625  0.00  0.00    +0.085 C 
ENDROOT
BRANCH   6  10
ATOM      4  N   UNL     1      -4.103   1.614  24.386  0.00  0.00    -0.330 N 
ATOM      5  N   UNL     1      -5.775   1.531  25.848  0.00  0.00    -0.232 NA
ATOM     10  C   UNL     1      -4.885   0.826  25.186  0.00  0.00    +0.115 A 
ATOM     12  C   UNL     1      -4.517   2.912  24.543  0.00  0.00    +0.069 A 
ATOM     14  C   UNL     1      -5.560   2.834  25.461  0.00  0.00    +0.089 A 
ATOM     15  C   UNL     1      -3.032   1.163  23.527  0.00  0.00    +0.150 C 
ATOM     16  C   UNL     1      -4.080   4.111  23.980  0.00  0.00    +0.028 A 
ATOM     19  C   UNL     1      -6.220   4.011  25.850  0.00  0.00    +0.030 A 
ATOM     20  C   UNL     1      -4.747   5.274  24.379  0.00  0.00    +0.002 A 
ATOM     21  C   UNL     1      -5.798   5.228  25.297  0.00  0.00    +0.002 A 
ENDBRANCH   6  10
BRANCH   3  11
ATOM     11  C   UNL     1      -1.750  -2.816  24.831  0.00  0.00    +0.119 C 
BRANCH  11  13
ATOM     13  C   UNL     1      -0.831  -1.676  24.479  0.00  0.00    -0.033 A 
ATOM     17  C   UNL     1      -0.130  -1.692  23.274  0.00  0.00    +0.006 A 
ATOM     18  C   UNL     1      -0.681  -0.604  25.360  0.00  0.00    +0.006 A 
ATOM     22  C   UNL     1       0.721  -0.636  22.948  0.00  0.00    +0.015 A 
ATOM     23  C   UNL     1       0.170   0.452  25.034  0.00  0.00    +0.015 A 
ATOM     24  C   UNL     1       0.871   0.436  23.828  0.00  0.00    +0.059 A 
BRANCH  24  25
ATOM      2  O   UNL     1       2.918   1.423  23.081  0.00  0.00    -0.245 OA
ATOM     25  C   UNL     1       1.757   1.537  23.488  0.00  0.00    +0.337 C 
BRANCH  25   1
ATOM      1  O   UNL     1       1.170   2.753  23.666  0.00  0.00    -0.477 OA
ATOM     26  H   UNL     1       0.504   2.735  24.385  0.00  0.00    +0.295 HD
ENDBRANCH  25   1
ENDBRANCH  24  25
ENDBRANCH  11  13
ENDBRANCH   3  11
TORSDOF 5
ENDMDL
