MODEL 1
REMARK VINA RESULT:      -0.1      0.000      0.000
REMARK  Name = 75536890
REMARK  5 active torsions:
REMARK  status: ('A' for Active; 'I' for Inactive)
REMARK    1  A    between atoms: S_1  and  C_20
REMARK    2  A    between atoms: S_1  and  C_23
REMARK    3  A    between atoms: O_4  and  C_14
REMARK    4  A    between atoms: O_4  and  C_17
REMARK    5  A    between atoms: C_8  and  C_11
REMARK                            x       y       z     vdW  Elec       q    Type
REMARK                         _______ _______ _______ _____ _____    ______ ____
ROOT
ATOM      2  O   UNL     1      -2.310  -0.959  23.923  0.00  0.00    -0.275 OA
ATOM      3  O   UNL     1      -4.853   2.915  26.158  0.00  0.00    -0.375 OA
ATOM      7  N   UNL     1      -3.894   0.714  24.318  0.00  0.00    -0.295 N 
ATOM     11  C   UNL     1      -3.454  -0.617  24.211  0.00  0.00    +0.219 C 
ATOM     12  C   UNL     1      -2.930   1.793  24.098  0.00  0.00    +0.154 C 
ATOM     13  C   UNL     1      -5.279   1.052  24.665  0.00  0.00    +0.136 C 
ATOM     14  C   UNL     1      -2.546   2.492  25.402  0.00  0.00    +0.216 C 
ATOM     15  C   UNL     1      -5.561   2.513  24.990  0.00  0.00    +0.179 C 
ATOM     16  C   UNL     1      -3.588   3.501  25.877  0.00  0.00    +0.206 C 
ENDROOT
BRANCH  11   8
ATOM      8  C   UNL     1      -4.456  -1.692  24.491  0.00  0.00    +0.075 C 
ATOM      9  C   UNL     1      -3.956  -3.062  24.803  0.00  0.00    +0.013 C 
ATOM     10  C   UNL     1      -4.624  -2.783  23.490  0.00  0.00    +0.013 C 
ENDBRANCH  11   8
BRANCH  14   4
ATOM      4  O   UNL     1      -1.315   3.179  25.185  0.00  0.00    -0.485 OA
BRANCH   4  17
ATOM     17  C   UNL     1      -0.305   2.460  24.603  0.00  0.00    +0.121 A 
ATOM     18  C   UNL     1       0.661   3.110  23.835  0.00  0.00    +0.047 A 
ATOM     19  C   UNL     1      -0.243   1.077  24.778  0.00  0.00    +0.047 A 
ATOM     20  C   UNL     1       1.751   0.995  23.418  0.00  0.00    +0.088 A 
ATOM     21  C   UNL     1       1.689   2.377  23.242  0.00  0.00    +0.030 A 
ATOM     22  C   UNL     1       0.785   0.345  24.186  0.00  0.00    +0.030 A 
BRANCH  20   1
ATOM      1  S   UNL     1       3.041   0.079  22.678  0.00  0.00    -0.006 S 
ATOM      5  O   UNL     1       3.258  -1.138  23.448  0.00  0.00    -0.170 OA
ATOM      6  O   UNL     1       2.767  -0.007  21.251  0.00  0.00    -0.170 OA
ATOM     23  C   UNL     1       4.486   1.094  22.898  0.00  0.00    +0.200 C 
ENDBRANCH  20   1
ENDBRANCH   4  17
ENDBRANCH  14   4
TORSDOF 4
ENDMDL
MODEL 2
REMARK VINA RESULT:       0.6      1.853      4.192
REMARK  Name = 75536890
REMARK  5 active torsions:
REMARK  status: ('A' for Active; 'I' for Inactive)
REMARK    1  A    between atoms: S_1  and  C_20
REMARK    2  A    between atoms: S_1  and  C_23
REMARK    3  A    between atoms: O_4  and  C_14
REMARK    4  A    between atoms: O_4  and  C_17
REMARK    5  A    between atoms: C_8  and  C_11
REMARK                            x       y       z     vdW  Elec       q    Type
REMARK                         _______ _______ _______ _____ _____    ______ ____
ROOT
ATOM      2  O   UNL     1      -1.082   3.716  25.342  0.00  0.00    -0.275 OA
ATOM      3  O   UNL     1      -5.714   1.596  24.625  0.00  0.00    -0.375 OA
ATOM      7  N   UNL     1      -3.285   3.032  25.716  0.00  0.00    -0.295 N 
ATOM     11  C   UNL     1      -2.275   3.978  25.473  0.00  0.00    +0.219 C 
ATOM     12  C   UNL     1      -2.919   1.617  25.801  0.00  0.00    +0.154 C 
ATOM     13  C   UNL     1      -4.694   3.415  25.862  0.00  0.00    +0.136 C 
ATOM     14  C   UNL     1      -3.372   0.834  24.569  0.00  0.00    +0.216 C 
ATOM     15  C   UNL     1      -5.710   2.281  25.874  0.00  0.00    +0.179 C 
ATOM     16  C   UNL     1      -4.853   0.465  24.598  0.00  0.00    +0.206 C 
ENDROOT
BRANCH  11   8
ATOM      8  C   UNL     1      -2.695   5.409  25.343  0.00  0.00    +0.075 C 
ATOM      9  C   UNL     1      -2.813   5.991  23.975  0.00  0.00    +0.013 C 
ATOM     10  C   UNL     1      -1.689   6.404  24.877  0.00  0.00    +0.013 C 
ENDBRANCH  11   8
BRANCH  14   4
ATOM      4  O   UNL     1      -2.606  -0.368  24.509  0.00  0.00    -0.485 OA
BRANCH   4  17
ATOM     17  C   UNL     1      -1.308  -0.248  24.092  0.00  0.00    +0.121 A 
ATOM     18  C   UNL     1      -0.430  -1.324  24.227  0.00  0.00    +0.047 A 
ATOM     19  C   UNL     1      -0.863   0.949  23.532  0.00  0.00    +0.047 A 
ATOM     20  C   UNL     1       1.338  -0.004  23.243  0.00  0.00    +0.088 A 
ATOM     21  C   UNL     1       0.893  -1.202  23.803  0.00  0.00    +0.030 A 
ATOM     22  C   UNL     1       0.460   1.071  23.108  0.00  0.00    +0.030 A 
BRANCH  20   1
ATOM      1  S   UNL     1       2.994   0.146  22.709  0.00  0.00    -0.006 S 
ATOM      5  O   UNL     1       3.053  -0.110  21.277  0.00  0.00    -0.170 OA
ATOM      6  O   UNL     1       3.525   1.392  23.244  0.00  0.00    -0.170 OA
ATOM     23  C   UNL     1       3.840  -1.198  23.510  0.00  0.00    +0.200 C 
ENDBRANCH  20   1
ENDBRANCH   4  17
ENDBRANCH  14   4
TORSDOF 4
ENDMDL
MODEL 3
REMARK VINA RESULT:       1.8      1.833      4.014
REMARK  Name = 75536890
REMARK  5 active torsions:
REMARK  status: ('A' for Active; 'I' for Inactive)
REMARK    1  A    between atoms: S_1  and  C_20
REMARK    2  A    between atoms: S_1  and  C_23
REMARK    3  A    between atoms: O_4  and  C_14
REMARK    4  A    between atoms: O_4  and  C_17
REMARK    5  A    between atoms: C_8  and  C_11
REMARK                            x       y       z     vdW  Elec       q    Type
REMARK                         _______ _______ _______ _____ _____    ______ ____
ROOT
ATOM      2  O   UNL     1      -0.760   2.890  24.941  0.00  0.00    -0.275 OA
ATOM      3  O   UNL     1      -4.939   0.003  24.126  0.00  0.00    -0.375 OA
ATOM      7  N   UNL     1      -2.822   1.839  25.265  0.00  0.00    -0.295 N 
ATOM     11  C   UNL     1      -1.983   2.943  25.038  0.00  0.00    +0.219 C 
ATOM     12  C   UNL     1      -2.221   0.509  25.372  0.00  0.00    +0.154 C 
ATOM     13  C   UNL     1      -4.279   1.976  25.372  0.00  0.00    +0.136 C 
ATOM     14  C   UNL     1      -2.500  -0.347  24.136  0.00  0.00    +0.216 C 
ATOM     15  C   UNL     1      -5.085   0.684  25.368  0.00  0.00    +0.179 C 
ATOM     16  C   UNL     1      -3.896  -0.964  24.131  0.00  0.00    +0.206 C 
ENDROOT
BRANCH  11   8
ATOM      8  C   UNL     1      -2.639   4.280  24.885  0.00  0.00    +0.075 C 
ATOM      9  C   UNL     1      -1.839   5.501  25.190  0.00  0.00    +0.013 C 
ATOM     10  C   UNL     1      -2.937   5.068  26.114  0.00  0.00    +0.013 C 
ENDBRANCH  11   8
BRANCH  14   4
ATOM      4  O   UNL     1      -1.538  -1.400  24.107  0.00  0.00    -0.485 OA
BRANCH   4  17
ATOM     17  C   UNL     1      -0.246  -1.043  23.830  0.00  0.00    +0.121 A 
ATOM     18  C   UNL     1       0.019  -0.085  22.851  0.00  0.00    +0.047 A 
ATOM     19  C   UNL     1       0.806  -1.637  24.527  0.00  0.00    +0.047 A 
ATOM     20  C   UNL     1       2.387  -0.317  23.265  0.00  0.00    +0.088 A 
ATOM     21  C   UNL     1       1.335   0.278  22.568  0.00  0.00    +0.030 A 
ATOM     22  C   UNL     1       2.123  -1.274  24.245  0.00  0.00    +0.030 A 
BRANCH  20   1
ATOM      1  S   UNL     1       4.035   0.142  22.913  0.00  0.00    -0.006 S 
ATOM      5  O   UNL     1       4.253   0.055  21.476  0.00  0.00    -0.170 OA
ATOM      6  O   UNL     1       4.312   1.388  23.613  0.00  0.00    -0.170 OA
ATOM     23  C   UNL     1       5.020  -1.136  23.663  0.00  0.00    +0.200 C 
ENDBRANCH  20   1
ENDBRANCH   4  17
ENDBRANCH  14   4
TORSDOF 4
ENDMDL
MODEL 4
REMARK VINA RESULT:       1.8      2.296      3.686
REMARK  Name = 75536890
REMARK  5 active torsions:
REMARK  status: ('A' for Active; 'I' for Inactive)
REMARK    1  A    between atoms: S_1  and  C_20
REMARK    2  A    between atoms: S_1  and  C_23
REMARK    3  A    between atoms: O_4  and  C_14
REMARK    4  A    between atoms: O_4  and  C_17
REMARK    5  A    between atoms: C_8  and  C_11
REMARK                            x       y       z     vdW  Elec       q    Type
REMARK                         _______ _______ _______ _____ _____    ______ ____
ROOT
ATOM      2  O   UNL     1      -4.481   0.519  23.928  0.00  0.00    -0.275 OA
ATOM      3  O   UNL     1      -0.316   2.962  25.701  0.00  0.00    -0.375 OA
ATOM      7  N   UNL     1      -2.988   2.227  24.490  0.00  0.00    -0.295 N 
ATOM     11  C   UNL     1      -4.172   1.481  24.626  0.00  0.00    +0.219 C 
ATOM     12  C   UNL     1      -2.023   1.835  23.463  0.00  0.00    +0.154 C 
ATOM     13  C   UNL     1      -2.682   3.368  25.361  0.00  0.00    +0.136 C 
ATOM     14  C   UNL     1      -0.781   1.179  24.065  0.00  0.00    +0.216 C 
ATOM     15  C   UNL     1      -1.269   3.929  25.274  0.00  0.00    +0.179 C 
ATOM     16  C   UNL     1       0.216   2.184  24.637  0.00  0.00    +0.206 C 
ENDROOT
BRANCH  11   8
ATOM      8  C   UNL     1      -5.111   1.882  25.720  0.00  0.00    +0.075 C 
ATOM      9  C   UNL     1      -6.571   1.919  25.421  0.00  0.00    +0.013 C 
ATOM     10  C   UNL     1      -5.808   3.195  25.610  0.00  0.00    +0.013 C 
ENDBRANCH  11   8
BRANCH  14   4
ATOM      4  O   UNL     1      -0.134   0.435  23.034  0.00  0.00    -0.485 OA
BRANCH   4  17
ATOM     17  C   UNL     1       1.228   0.327  23.117  0.00  0.00    +0.121 A 
ATOM     18  C   UNL     1       1.814  -0.909  23.389  0.00  0.00    +0.047 A 
ATOM     19  C   UNL     1       2.029   1.453  22.930  0.00  0.00    +0.047 A 
ATOM     20  C   UNL     1       4.003   0.107  23.287  0.00  0.00    +0.088 A 
ATOM     21  C   UNL     1       3.202  -1.019  23.475  0.00  0.00    +0.030 A 
ATOM     22  C   UNL     1       3.417   1.343  23.014  0.00  0.00    +0.030 A 
BRANCH  20   1
ATOM      1  S   UNL     1       5.741  -0.033  23.390  0.00  0.00    -0.006 S 
ATOM      5  O   UNL     1       6.259  -0.441  22.092  0.00  0.00    -0.170 OA
ATOM      6  O   UNL     1       6.250   1.174  24.026  0.00  0.00    -0.170 OA
ATOM     23  C   UNL     1       6.010  -1.393  24.504  0.00  0.00    +0.200 C 
ENDBRANCH  20   1
ENDBRANCH   4  17
ENDBRANCH  14   4
TORSDOF 4
ENDMDL
MODEL 5
REMARK VINA RESULT:       2.5      2.768      6.246
REMARK  Name = 75536890
REMARK  5 active torsions:
REMARK  status: ('A' for Active; 'I' for Inactive)
REMARK    1  A    between atoms: S_1  and  C_20
REMARK    2  A    between atoms: S_1  and  C_23
REMARK    3  A    between atoms: O_4  and  C_14
REMARK    4  A    between atoms: O_4  and  C_17
REMARK    5  A    between atoms: C_8  and  C_11
REMARK                            x       y       z     vdW  Elec       q    Type
REMARK                         _______ _______ _______ _____ _____    ______ ____
ROOT
ATOM      2  O   UNL     1      -2.875  -0.860  25.036  0.00  0.00    -0.275 OA
ATOM      3  O   UNL     1       1.702  -0.020  22.843  0.00  0.00    -0.375 OA
ATOM      7  N   UNL     1      -0.571  -0.880  24.645  0.00  0.00    -0.295 N 
ATOM     11  C   UNL     1      -1.849  -1.459  24.724  0.00  0.00    +0.219 C 
ATOM     12  C   UNL     1      -0.427   0.549  24.926  0.00  0.00    +0.154 C 
ATOM     13  C   UNL     1       0.615  -1.657  24.265  0.00  0.00    +0.136 C 
ATOM     14  C   UNL     1      -0.171   1.360  23.656  0.00  0.00    +0.216 C 
ATOM     15  C   UNL     1       1.882  -0.864  23.976  0.00  0.00    +0.179 C 
ATOM     16  C   UNL     1       1.278   1.295  23.180  0.00  0.00    +0.206 C 
ENDROOT
BRANCH  11   8
ATOM      8  C   UNL     1      -1.964  -2.911  24.381  0.00  0.00    +0.075 C 
ATOM      9  C   UNL     1      -3.078  -3.342  23.487  0.00  0.00    +0.013 C 
ATOM     10  C   UNL     1      -3.106  -3.685  24.946  0.00  0.00    +0.013 C 
ENDBRANCH  11   8
BRANCH  14   4
ATOM      4  O   UNL     1      -0.497   2.721  23.932  0.00  0.00    -0.485 OA
BRANCH   4  17
ATOM     17  C   UNL     1      -1.767   2.969  24.380  0.00  0.00    +0.121 A 
ATOM     18  C   UNL     1      -2.863   2.460  23.684  0.00  0.00    +0.047 A 
ATOM     19  C   UNL     1      -1.964   3.730  25.531  0.00  0.00    +0.047 A 
ATOM     20  C   UNL     1      -4.354   3.475  25.291  0.00  0.00    +0.088 A 
ATOM     21  C   UNL     1      -4.157   2.714  24.139  0.00  0.00    +0.030 A 
ATOM     22  C   UNL     1      -3.257   3.983  25.987  0.00  0.00    +0.030 A 
BRANCH  20   1
ATOM      1  S   UNL     1      -5.974   3.788  25.863  0.00  0.00    -0.006 S 
ATOM      5  O   UNL     1      -6.104   3.272  27.218  0.00  0.00    -0.170 OA
ATOM      6  O   UNL     1      -6.283   5.184  25.587  0.00  0.00    -0.170 OA
ATOM     23  C   UNL     1      -7.011   2.783  24.824  0.00  0.00    +0.200 C 
ENDBRANCH  20   1
ENDBRANCH   4  17
ENDBRANCH  14   4
TORSDOF 4
ENDMDL
MODEL 6
REMARK VINA RESULT:       2.9      2.693      4.352
REMARK  Name = 75536890
REMARK  5 active torsions:
REMARK  status: ('A' for Active; 'I' for Inactive)
REMARK    1  A    between atoms: S_1  and  C_20
REMARK    2  A    between atoms: S_1  and  C_23
REMARK    3  A    between atoms: O_4  and  C_14
REMARK    4  A    between atoms: O_4  and  C_17
REMARK    5  A    between atoms: C_8  and  C_11
REMARK                            x       y       z     vdW  Elec       q    Type
REMARK                         _______ _______ _______ _____ _____    ______ ____
ROOT
ATOM      2  O   UNL     1      -4.178   1.461  25.099  0.00  0.00    -0.275 OA
ATOM      3  O   UNL     1      -1.622   5.926  25.165  0.00  0.00    -0.375 OA
ATOM      7  N   UNL     1      -3.458   3.609  24.523  0.00  0.00    -0.295 N 
ATOM     11  C   UNL     1      -4.379   2.670  25.019  0.00  0.00    +0.219 C 
ATOM     12  C   UNL     1      -2.143   3.141  24.083  0.00  0.00    +0.154 C 
ATOM     13  C   UNL     1      -3.766   5.043  24.455  0.00  0.00    +0.136 C 
ATOM     14  C   UNL     1      -1.039   3.534  25.064  0.00  0.00    +0.216 C 
ATOM     15  C   UNL     1      -2.604   5.973  24.135  0.00  0.00    +0.179 C 
ATOM     16  C   UNL     1      -0.586   4.984  24.916  0.00  0.00    +0.206 C 
ENDROOT
BRANCH  11   8
ATOM      8  C   UNL     1      -5.694   3.194  25.504  0.00  0.00    +0.075 C 
ATOM      9  C   UNL     1      -6.371   2.479  26.624  0.00  0.00    +0.013 C 
ATOM     10  C   UNL     1      -6.920   2.392  25.232  0.00  0.00    +0.013 C 
ENDBRANCH  11   8
BRANCH  14   4
ATOM      4  O   UNL     1       0.081   2.683  24.827  0.00  0.00    -0.485 OA
BRANCH   4  17
ATOM     17  C   UNL     1      -0.177   1.342  24.730  0.00  0.00    +0.121 A 
ATOM     18  C   UNL     1      -0.930   0.703  25.715  0.00  0.00    +0.047 A 
ATOM     19  C   UNL     1       0.312   0.614  23.645  0.00  0.00    +0.047 A 
ATOM     20  C   UNL     1      -0.703  -1.390  24.531  0.00  0.00    +0.088 A 
ATOM     21  C   UNL     1      -1.192  -0.663  25.616  0.00  0.00    +0.030 A 
ATOM     22  C   UNL     1       0.049  -0.752  23.545  0.00  0.00    +0.030 A 
BRANCH  20   1
ATOM      1  S   UNL     1      -1.036  -3.100  24.406  0.00  0.00    -0.006 S 
ATOM      5  O   UNL     1      -0.940  -3.499  23.009  0.00  0.00    -0.170 OA
ATOM      6  O   UNL     1      -0.236  -3.786  25.411  0.00  0.00    -0.170 OA
ATOM     23  C   UNL     1      -2.746  -3.252  24.871  0.00  0.00    +0.200 C 
ENDBRANCH  20   1
ENDBRANCH   4  17
ENDBRANCH  14   4
TORSDOF 4
ENDMDL
