MODEL 1
REMARK VINA RESULT:      -7.6      0.000      0.000
REMARK  Name = 71694036
REMARK  7 active torsions:
REMARK  status: ('A' for Active; 'I' for Inactive)
REMARK    1  A    between atoms: O_4  and  C_9
REMARK    2  A    between atoms: O_5  and  C_11
REMARK    3  A    between atoms: N_6  and  C_7
REMARK    4  A    between atoms: N_6  and  C_13
REMARK    5  A    between atoms: C_8  and  C_12
REMARK    6  A    between atoms: C_13  and  C_16
REMARK    7  A    between atoms: C_22  and  C_25
REMARK                            x       y       z     vdW  Elec       q    Type
REMARK                         _______ _______ _______ _____ _____    ______ ____
ROOT
ATOM      7  C   UNL     1      -3.539   2.472  25.009  0.00  0.00    +0.092 C 
ATOM      8  C   UNL     1      -4.474   1.479  24.280  0.00  0.00    +0.041 C 
ATOM      9  C   UNL     1      -4.420   3.707  25.195  0.00  0.00    +0.160 C 
ATOM     10  C   UNL     1      -5.914   1.899  24.678  0.00  0.00    +0.043 C 
ATOM     11  C   UNL     1      -5.760   3.104  25.608  0.00  0.00    +0.145 C 
ENDROOT
BRANCH   8  12
ATOM     12  C   UNL     1      -4.147   0.030  24.571  0.00  0.00    -0.043 A 
ATOM     14  C   UNL     1      -4.170  -0.910  23.540  0.00  0.00    +0.004 A 
ATOM     15  C   UNL     1      -3.825  -0.365  25.869  0.00  0.00    +0.004 A 
ATOM     17  C   UNL     1      -3.870  -2.246  23.809  0.00  0.00    +0.000 A 
ATOM     18  C   UNL     1      -3.524  -1.700  26.137  0.00  0.00    +0.000 A 
ATOM     19  C   UNL     1      -3.547  -2.640  25.107  0.00  0.00    +0.000 A 
ENDBRANCH   8  12
BRANCH   9   4
ATOM      4  O   UNL     1      -3.901   4.575  26.184  0.00  0.00    -0.388 OA
ATOM     27  H   UNL     1      -3.849   5.464  25.793  0.00  0.00    +0.210 HD
ENDBRANCH   9   4
BRANCH  11   5
ATOM      5  O   UNL     1      -5.702   2.657  26.959  0.00  0.00    -0.389 OA
ATOM     28  H   UNL     1      -6.407   3.115  27.448  0.00  0.00    +0.210 HD
ENDBRANCH  11   5
BRANCH   7   6
ATOM      6  N   UNL     1      -2.343   2.773  24.231  0.00  0.00    -0.306 NA
ATOM     26  H   UNL     1      -2.314   2.169  23.410  0.00  0.00    +0.123 HD
BRANCH   6  13
ATOM     13  C   UNL     1      -1.140   2.547  25.020  0.00  0.00    +0.116 C 
BRANCH  13  16
ATOM     16  C   UNL     1      -0.428   1.286  24.607  0.00  0.00    -0.033 A 
ATOM     20  C   UNL     1       0.732   1.359  23.837  0.00  0.00    +0.017 A 
ATOM     21  C   UNL     1      -0.932   0.043  24.993  0.00  0.00    +0.005 A 
ATOM     22  C   UNL     1       1.391   0.191  23.454  0.00  0.00    +0.055 A 
ATOM     23  C   UNL     1      -0.273  -1.125  24.610  0.00  0.00    +0.001 A 
ATOM     24  C   UNL     1       0.889  -1.052  23.840  0.00  0.00    +0.012 A 
BRANCH  22  25
ATOM      1  F   UNL     1       3.268   1.475  22.713  0.00  0.00    -0.166 F 
ATOM      2  F   UNL     1       2.417   0.071  21.296  0.00  0.00    -0.166 F 
ATOM      3  F   UNL     1       3.562  -0.660  22.994  0.00  0.00    -0.166 F 
ATOM     25  C   UNL     1       2.632   0.270  22.630  0.00  0.00    +0.417 C 
ENDBRANCH  22  25
ENDBRANCH  13  16
ENDBRANCH   6  13
ENDBRANCH   7   6
TORSDOF 7
ENDMDL
MODEL 2
REMARK VINA RESULT:      -6.7      4.217      6.050
REMARK  Name = 71694036
REMARK  7 active torsions:
REMARK  status: ('A' for Active; 'I' for Inactive)
REMARK    1  A    between atoms: O_4  and  C_9
REMARK    2  A    between atoms: O_5  and  C_11
REMARK    3  A    between atoms: N_6  and  C_7
REMARK    4  A    between atoms: N_6  and  C_13
REMARK    5  A    between atoms: C_8  and  C_12
REMARK    6  A    between atoms: C_13  and  C_16
REMARK    7  A    between atoms: C_22  and  C_25
REMARK                            x       y       z     vdW  Elec       q    Type
REMARK                         _______ _______ _______ _____ _____    ______ ____
ROOT
ATOM      7  C   UNL     1      -0.197   0.780  24.675  0.00  0.00    +0.092 C 
ATOM      8  C   UNL     1      -0.387  -0.754  24.718  0.00  0.00    +0.041 C 
ATOM      9  C   UNL     1       1.219   0.940  24.124  0.00  0.00    +0.160 C 
ATOM     10  C   UNL     1       0.570  -1.320  23.634  0.00  0.00    +0.043 C 
ATOM     11  C   UNL     1       1.268  -0.107  23.015  0.00  0.00    +0.145 C 
ENDROOT
BRANCH   8  12
ATOM     12  C   UNL     1      -1.830  -1.181  24.555  0.00  0.00    -0.043 A 
ATOM     14  C   UNL     1      -2.163  -2.536  24.574  0.00  0.00    +0.004 A 
ATOM     15  C   UNL     1      -2.826  -0.220  24.386  0.00  0.00    +0.004 A 
ATOM     17  C   UNL     1      -3.493  -2.928  24.423  0.00  0.00    +0.000 A 
ATOM     18  C   UNL     1      -4.156  -0.613  24.236  0.00  0.00    +0.000 A 
ATOM     19  C   UNL     1      -4.489  -1.968  24.254  0.00  0.00    +0.000 A 
ENDBRANCH   8  12
BRANCH   9   4
ATOM      4  O   UNL     1       1.444   2.247  23.631  0.00  0.00    -0.388 OA
ATOM     27  H   UNL     1       1.808   2.775  24.362  0.00  0.00    +0.210 HD
ENDBRANCH   9   4
BRANCH  11   5
ATOM      5  O   UNL     1       0.529   0.341  21.883  0.00  0.00    -0.389 OA
ATOM     28  H   UNL     1       0.019   1.122  22.160  0.00  0.00    +0.210 HD
ENDBRANCH  11   5
BRANCH   7   6
ATOM      6  N   UNL     1      -0.337   1.387  25.993  0.00  0.00    -0.306 NA
ATOM     26  H   UNL     1      -1.027   0.866  26.534  0.00  0.00    +0.123 HD
BRANCH   6  13
ATOM     13  C   UNL     1      -0.779   2.770  25.883  0.00  0.00    +0.116 C 
BRANCH  13  16
ATOM     16  C   UNL     1      -2.027   2.895  25.049  0.00  0.00    -0.033 A 
ATOM     20  C   UNL     1      -3.279   2.894  25.661  0.00  0.00    +0.017 A 
ATOM     21  C   UNL     1      -1.929   3.008  23.661  0.00  0.00    +0.005 A 
ATOM     22  C   UNL     1      -4.434   3.009  24.889  0.00  0.00    +0.055 A 
ATOM     23  C   UNL     1      -3.084   3.123  22.889  0.00  0.00    +0.001 A 
ATOM     24  C   UNL     1      -4.337   3.124  23.502  0.00  0.00    +0.012 A 
BRANCH  22  25
ATOM      1  F   UNL     1      -6.354   4.244  25.603  0.00  0.00    -0.166 F 
ATOM      2  F   UNL     1      -5.752   2.563  26.835  0.00  0.00    -0.166 F 
ATOM      3  F   UNL     1      -6.675   2.213  24.897  0.00  0.00    -0.166 F 
ATOM     25  C   UNL     1      -5.775   3.009  25.544  0.00  0.00    +0.417 C 
ENDBRANCH  22  25
ENDBRANCH  13  16
ENDBRANCH   6  13
ENDBRANCH   7   6
TORSDOF 7
ENDMDL
MODEL 3
REMARK VINA RESULT:      -6.5      1.771      2.586
REMARK  Name = 71694036
REMARK  7 active torsions:
REMARK  status: ('A' for Active; 'I' for Inactive)
REMARK    1  A    between atoms: O_4  and  C_9
REMARK    2  A    between atoms: O_5  and  C_11
REMARK    3  A    between atoms: N_6  and  C_7
REMARK    4  A    between atoms: N_6  and  C_13
REMARK    5  A    between atoms: C_8  and  C_12
REMARK    6  A    between atoms: C_13  and  C_16
REMARK    7  A    between atoms: C_22  and  C_25
REMARK                            x       y       z     vdW  Elec       q    Type
REMARK                         _______ _______ _______ _____ _____    ______ ____
ROOT
ATOM      7  C   UNL     1      -4.174   2.527  24.065  0.00  0.00    +0.092 C 
ATOM      8  C   UNL     1      -5.183   1.423  24.457  0.00  0.00    +0.041 C 
ATOM      9  C   UNL     1      -4.850   3.807  24.555  0.00  0.00    +0.160 C 
ATOM     10  C   UNL     1      -5.976   1.997  25.662  0.00  0.00    +0.043 C 
ATOM     11  C   UNL     1      -5.405   3.393  25.915  0.00  0.00    +0.145 C 
ENDROOT
BRANCH   8  12
ATOM     12  C   UNL     1      -4.527   0.085  24.727  0.00  0.00    -0.043 A 
ATOM     14  C   UNL     1      -3.888  -0.145  25.946  0.00  0.00    +0.004 A 
ATOM     15  C   UNL     1      -4.562  -0.916  23.757  0.00  0.00    +0.004 A 
ATOM     17  C   UNL     1      -3.284  -1.378  26.193  0.00  0.00    +0.000 A 
ATOM     18  C   UNL     1      -3.958  -2.149  24.005  0.00  0.00    +0.000 A 
ATOM     19  C   UNL     1      -3.319  -2.379  25.224  0.00  0.00    +0.000 A 
ENDBRANCH   8  12
BRANCH   9   4
ATOM      4  O   UNL     1      -3.931   4.877  24.659  0.00  0.00    -0.388 OA
ATOM     27  H   UNL     1      -3.420   4.743  25.476  0.00  0.00    +0.210 HD
ENDBRANCH   9   4
BRANCH  11   5
ATOM      5  O   UNL     1      -4.352   3.309  26.870  0.00  0.00    -0.389 OA
ATOM     28  H   UNL     1      -3.837   4.133  26.809  0.00  0.00    +0.210 HD
ENDBRANCH  11   5
BRANCH   7   6
ATOM      6  N   UNL     1      -3.927   2.561  22.628  0.00  0.00    -0.306 NA
ATOM     26  H   UNL     1      -4.270   1.698  22.207  0.00  0.00    +0.123 HD
BRANCH   6  13
ATOM     13  C   UNL     1      -2.504   2.684  22.348  0.00  0.00    +0.116 C 
BRANCH  13  16
ATOM     16  C   UNL     1      -1.663   2.148  23.476  0.00  0.00    -0.033 A 
ATOM     20  C   UNL     1      -1.245   0.817  23.465  0.00  0.00    +0.017 A 
ATOM     21  C   UNL     1      -1.303   2.982  24.536  0.00  0.00    +0.005 A 
ATOM     22  C   UNL     1      -0.467   0.321  24.510  0.00  0.00    +0.055 A 
ATOM     23  C   UNL     1      -0.525   2.486  25.581  0.00  0.00    +0.001 A 
ATOM     24  C   UNL     1      -0.106   1.155  25.569  0.00  0.00    +0.012 A 
BRANCH  22  25
ATOM      1  F   UNL     1      -0.739  -1.894  23.649  0.00  0.00    -0.166 F 
ATOM      2  F   UNL     1      -0.108  -1.714  25.716  0.00  0.00    -0.166 F 
ATOM      3  F   UNL     1       1.282  -1.240  24.113  0.00  0.00    -0.166 F 
ATOM     25  C   UNL     1      -0.020  -1.103  24.498  0.00  0.00    +0.417 C 
ENDBRANCH  22  25
ENDBRANCH  13  16
ENDBRANCH   6  13
ENDBRANCH   7   6
TORSDOF 7
ENDMDL
MODEL 4
REMARK VINA RESULT:      -6.5      1.410      2.313
REMARK  Name = 71694036
REMARK  7 active torsions:
REMARK  status: ('A' for Active; 'I' for Inactive)
REMARK    1  A    between atoms: O_4  and  C_9
REMARK    2  A    between atoms: O_5  and  C_11
REMARK    3  A    between atoms: N_6  and  C_7
REMARK    4  A    between atoms: N_6  and  C_13
REMARK    5  A    between atoms: C_8  and  C_12
REMARK    6  A    between atoms: C_13  and  C_16
REMARK    7  A    between atoms: C_22  and  C_25
REMARK                            x       y       z     vdW  Elec       q    Type
REMARK                         _______ _______ _______ _____ _____    ______ ____
ROOT
ATOM      7  C   UNL     1      -4.600   2.521  24.702  0.00  0.00    +0.092 C 
ATOM      8  C   UNL     1      -5.187   1.126  24.388  0.00  0.00    +0.041 C 
ATOM      9  C   UNL     1      -5.830   3.336  25.098  0.00  0.00    +0.160 C 
ATOM     10  C   UNL     1      -6.494   1.031  25.220  0.00  0.00    +0.043 C 
ATOM     11  C   UNL     1      -6.613   2.358  25.971  0.00  0.00    +0.145 C 
ENDROOT
BRANCH   8  12
ATOM     12  C   UNL     1      -4.210  -0.003  24.639  0.00  0.00    -0.043 A 
ATOM     14  C   UNL     1      -3.203   0.146  25.594  0.00  0.00    +0.004 A 
ATOM     15  C   UNL     1      -4.315  -1.190  23.915  0.00  0.00    +0.004 A 
ATOM     17  C   UNL     1      -2.302  -0.894  25.824  0.00  0.00    +0.000 A 
ATOM     18  C   UNL     1      -3.414  -2.230  24.145  0.00  0.00    +0.000 A 
ATOM     19  C   UNL     1      -2.408  -2.081  25.099  0.00  0.00    +0.000 A 
ENDBRANCH   8  12
BRANCH   9   4
ATOM      4  O   UNL     1      -5.475   4.510  25.803  0.00  0.00    -0.388 OA
ATOM     27  H   UNL     1      -4.793   4.266  26.451  0.00  0.00    +0.210 HD
ENDBRANCH   9   4
BRANCH  11   5
ATOM      5  O   UNL     1      -5.994   2.238  27.249  0.00  0.00    -0.389 OA
ATOM     28  H   UNL     1      -6.040   3.110  27.678  0.00  0.00    +0.210 HD
ENDBRANCH  11   5
BRANCH   7   6
ATOM      6  N   UNL     1      -3.915   3.100  23.552  0.00  0.00    -0.306 NA
ATOM     26  H   UNL     1      -3.545   2.350  22.967  0.00  0.00    +0.123 HD
BRANCH   6  13
ATOM     13  C   UNL     1      -2.810   3.947  23.978  0.00  0.00    +0.116 C 
BRANCH  13  16
ATOM     16  C   UNL     1      -1.655   3.138  24.506  0.00  0.00    -0.033 A 
ATOM     20  C   UNL     1      -1.101   2.121  23.729  0.00  0.00    +0.017 A 
ATOM     21  C   UNL     1      -1.140   3.404  25.775  0.00  0.00    +0.005 A 
ATOM     22  C   UNL     1      -0.032   1.372  24.218  0.00  0.00    +0.055 A 
ATOM     23  C   UNL     1      -0.071   2.655  26.265  0.00  0.00    +0.001 A 
ATOM     24  C   UNL     1       0.484   1.638  25.487  0.00  0.00    +0.012 A 
BRANCH  22  25
ATOM      1  F   UNL     1       0.563  -0.935  24.002  0.00  0.00    -0.166 F 
ATOM      2  F   UNL     1       1.861   0.509  23.037  0.00  0.00    -0.166 F 
ATOM      3  F   UNL     1      -0.108   0.099  22.211  0.00  0.00    -0.166 F 
ATOM     25  C   UNL     1       0.560   0.284  23.387  0.00  0.00    +0.417 C 
ENDBRANCH  22  25
ENDBRANCH  13  16
ENDBRANCH   6  13
ENDBRANCH   7   6
TORSDOF 7
ENDMDL
MODEL 5
REMARK VINA RESULT:      -5.9      2.303      2.877
REMARK  Name = 71694036
REMARK  7 active torsions:
REMARK  status: ('A' for Active; 'I' for Inactive)
REMARK    1  A    between atoms: O_4  and  C_9
REMARK    2  A    between atoms: O_5  and  C_11
REMARK    3  A    between atoms: N_6  and  C_7
REMARK    4  A    between atoms: N_6  and  C_13
REMARK    5  A    between atoms: C_8  and  C_12
REMARK    6  A    between atoms: C_13  and  C_16
REMARK    7  A    between atoms: C_22  and  C_25
REMARK                            x       y       z     vdW  Elec       q    Type
REMARK                         _______ _______ _______ _____ _____    ______ ____
ROOT
ATOM      7  C   UNL     1      -3.893   2.459  23.849  0.00  0.00    +0.092 C 
ATOM      8  C   UNL     1      -4.940   1.472  24.414  0.00  0.00    +0.041 C 
ATOM      9  C   UNL     1      -4.399   3.818  24.332  0.00  0.00    +0.160 C 
ATOM     10  C   UNL     1      -5.540   2.174  25.661  0.00  0.00    +0.043 C 
ATOM     11  C   UNL     1      -4.828   3.524  25.767  0.00  0.00    +0.145 C 
ENDROOT
BRANCH   8  12
ATOM     12  C   UNL     1      -4.373   0.095  24.690  0.00  0.00    -0.043 A 
ATOM     14  C   UNL     1      -4.494  -0.913  23.734  0.00  0.00    +0.004 A 
ATOM     15  C   UNL     1      -3.732  -0.164  25.901  0.00  0.00    +0.004 A 
ATOM     17  C   UNL     1      -3.972  -2.181  23.990  0.00  0.00    +0.000 A 
ATOM     18  C   UNL     1      -3.210  -1.432  26.156  0.00  0.00    +0.000 A 
ATOM     19  C   UNL     1      -3.330  -2.441  25.200  0.00  0.00    +0.000 A 
ENDBRANCH   8  12
BRANCH   9   4
ATOM      4  O   UNL     1      -3.387   4.804  24.271  0.00  0.00    -0.388 OA
ATOM     27  H   UNL     1      -2.864   4.636  23.469  0.00  0.00    +0.210 HD
ENDBRANCH   9   4
BRANCH  11   5
ATOM      5  O   UNL     1      -3.684   3.393  26.605  0.00  0.00    -0.389 OA
ATOM     28  H   UNL     1      -3.672   2.480  26.941  0.00  0.00    +0.210 HD
ENDBRANCH  11   5
BRANCH   7   6
ATOM      6  N   UNL     1      -3.809   2.399  22.394  0.00  0.00    -0.306 NA
ATOM     26  H   UNL     1      -4.440   1.675  22.050  0.00  0.00    +0.123 HD
BRANCH   6  13
ATOM     13  C   UNL     1      -2.455   2.081  21.965  0.00  0.00    +0.116 C 
BRANCH  13  16
ATOM     16  C   UNL     1      -1.617   1.553  23.099  0.00  0.00    -0.033 A 
ATOM     20  C   UNL     1      -1.224   2.404  24.131  0.00  0.00    +0.017 A 
ATOM     21  C   UNL     1      -1.231   0.212  23.115  0.00  0.00    +0.005 A 
ATOM     22  C   UNL     1      -0.447   1.915  25.181  0.00  0.00    +0.055 A 
ATOM     23  C   UNL     1      -0.455  -0.277  24.165  0.00  0.00    +0.001 A 
ATOM     24  C   UNL     1      -0.062   0.574  25.199  0.00  0.00    +0.012 A 
BRANCH  22  25
ATOM      1  F   UNL     1       1.201   2.526  26.803  0.00  0.00    -0.166 F 
ATOM      2  F   UNL     1      -0.876   2.816  27.355  0.00  0.00    -0.166 F 
ATOM      3  F   UNL     1       0.050   4.129  25.891  0.00  0.00    -0.166 F 
ATOM     25  C   UNL     1      -0.027   2.825  26.286  0.00  0.00    +0.417 C 
ENDBRANCH  22  25
ENDBRANCH  13  16
ENDBRANCH   6  13
ENDBRANCH   7   6
TORSDOF 7
ENDMDL
MODEL 6
REMARK VINA RESULT:      -5.1      3.384      4.828
REMARK  Name = 71694036
REMARK  7 active torsions:
REMARK  status: ('A' for Active; 'I' for Inactive)
REMARK    1  A    between atoms: O_4  and  C_9
REMARK    2  A    between atoms: O_5  and  C_11
REMARK    3  A    between atoms: N_6  and  C_7
REMARK    4  A    between atoms: N_6  and  C_13
REMARK    5  A    between atoms: C_8  and  C_12
REMARK    6  A    between atoms: C_13  and  C_16
REMARK    7  A    between atoms: C_22  and  C_25
REMARK                            x       y       z     vdW  Elec       q    Type
REMARK                         _______ _______ _______ _____ _____    ______ ____
ROOT
ATOM      7  C   UNL     1      -1.287   2.254  24.116  0.00  0.00    +0.092 C 
ATOM      8  C   UNL     1      -2.316   3.383  24.359  0.00  0.00    +0.041 C 
ATOM      9  C   UNL     1       0.043   2.911  24.481  0.00  0.00    +0.160 C 
ATOM     10  C   UNL     1      -1.667   4.312  25.419  0.00  0.00    +0.043 C 
ATOM     11  C   UNL     1      -0.305   3.695  25.744  0.00  0.00    +0.145 C 
ENDROOT
BRANCH   8  12
ATOM     12  C   UNL     1      -3.687   2.867  24.741  0.00  0.00    -0.043 A 
ATOM     14  C   UNL     1      -4.029   1.539  24.485  0.00  0.00    +0.004 A 
ATOM     15  C   UNL     1      -4.608   3.721  25.348  0.00  0.00    +0.004 A 
ATOM     17  C   UNL     1      -5.293   1.065  24.837  0.00  0.00    +0.000 A 
ATOM     18  C   UNL     1      -5.872   3.246  25.700  0.00  0.00    +0.000 A 
ATOM     19  C   UNL     1      -6.214   1.918  25.444  0.00  0.00    +0.000 A 
ENDBRANCH   8  12
BRANCH   9   4
ATOM      4  O   UNL     1       1.055   1.949  24.715  0.00  0.00    -0.388 OA
ATOM     27  H   UNL     1       1.807   2.172  24.140  0.00  0.00    +0.210 HD
ENDBRANCH   9   4
BRANCH  11   5
ATOM      5  O   UNL     1      -0.437   2.809  26.851  0.00  0.00    -0.389 OA
ATOM     28  H   UNL     1       0.354   2.242  26.865  0.00  0.00    +0.210 HD
ENDBRANCH  11   5
BRANCH   7   6
ATOM      6  N   UNL     1      -1.299   1.788  22.734  0.00  0.00    -0.306 NA
ATOM     26  H   UNL     1      -2.243   1.493  22.486  0.00  0.00    +0.123 HD
BRANCH   6  13
ATOM     13  C   UNL     1      -0.397   0.659  22.559  0.00  0.00    +0.116 C 
BRANCH  13  16
ATOM     16  C   UNL     1      -0.672  -0.437  23.553  0.00  0.00    -0.033 A 
ATOM     20  C   UNL     1      -1.984  -0.836  23.808  0.00  0.00    +0.017 A 
ATOM     21  C   UNL     1       0.386  -1.054  24.223  0.00  0.00    +0.005 A 
ATOM     22  C   UNL     1      -2.239  -1.851  24.729  0.00  0.00    +0.055 A 
ATOM     23  C   UNL     1       0.131  -2.069  25.144  0.00  0.00    +0.001 A 
ATOM     24  C   UNL     1      -1.182  -2.469  25.398  0.00  0.00    +0.012 A 
BRANCH  22  25
ATOM      1  F   UNL     1      -3.772  -3.618  25.230  0.00  0.00    -0.166 F 
ATOM      2  F   UNL     1      -4.505  -2.006  23.978  0.00  0.00    -0.166 F 
ATOM      3  F   UNL     1      -4.173  -1.666  26.100  0.00  0.00    -0.166 F 
ATOM     25  C   UNL     1      -3.642  -2.278  25.002  0.00  0.00    +0.417 C 
ENDBRANCH  22  25
ENDBRANCH  13  16
ENDBRANCH   6  13
ENDBRANCH   7   6
TORSDOF 7
ENDMDL
MODEL 7
REMARK VINA RESULT:      -5.0      1.751      3.955
REMARK  Name = 71694036
REMARK  7 active torsions:
REMARK  status: ('A' for Active; 'I' for Inactive)
REMARK    1  A    between atoms: O_4  and  C_9
REMARK    2  A    between atoms: O_5  and  C_11
REMARK    3  A    between atoms: N_6  and  C_7
REMARK    4  A    between atoms: N_6  and  C_13
REMARK    5  A    between atoms: C_8  and  C_12
REMARK    6  A    between atoms: C_13  and  C_16
REMARK    7  A    between atoms: C_22  and  C_25
REMARK                            x       y       z     vdW  Elec       q    Type
REMARK                         _______ _______ _______ _____ _____    ______ ____
ROOT
ATOM      7  C   UNL     1      -4.582   2.161  24.450  0.00  0.00    +0.092 C 
ATOM      8  C   UNL     1      -3.610   2.459  25.614  0.00  0.00    +0.041 C 
ATOM      9  C   UNL     1      -5.892   1.832  25.165  0.00  0.00    +0.160 C 
ATOM     10  C   UNL     1      -4.506   2.929  26.791  0.00  0.00    +0.043 C 
ATOM     11  C   UNL     1      -5.943   2.883  26.271  0.00  0.00    +0.145 C 
ENDROOT
BRANCH   8  12
ATOM     12  C   UNL     1      -2.514   3.434  25.241  0.00  0.00    -0.043 A 
ATOM     14  C   UNL     1      -2.695   4.801  25.453  0.00  0.00    +0.004 A 
ATOM     15  C   UNL     1      -1.324   2.966  24.685  0.00  0.00    +0.004 A 
ATOM     17  C   UNL     1      -1.685   5.699  25.109  0.00  0.00    +0.000 A 
ATOM     18  C   UNL     1      -0.314   3.864  24.341  0.00  0.00    +0.000 A 
ATOM     19  C   UNL     1      -0.495   5.231  24.553  0.00  0.00    +0.000 A 
ENDBRANCH   8  12
BRANCH   9   4
ATOM      4  O   UNL     1      -7.002   1.924  24.293  0.00  0.00    -0.388 OA
ATOM     27  H   UNL     1      -6.684   1.723  23.396  0.00  0.00    +0.210 HD
ENDBRANCH   9   4
BRANCH  11   5
ATOM      5  O   UNL     1      -6.291   4.153  25.725  0.00  0.00    -0.389 OA
ATOM     28  H   UNL     1      -5.504   4.499  25.271  0.00  0.00    +0.210 HD
ENDBRANCH  11   5
BRANCH   7   6
ATOM      6  N   UNL     1      -4.125   1.052  23.621  0.00  0.00    -0.306 NA
ATOM     26  H   UNL     1      -4.735   0.964  22.808  0.00  0.00    +0.123 HD
BRANCH   6  13
ATOM     13  C   UNL     1      -4.157  -0.199  24.365  0.00  0.00    +0.116 C 
BRANCH  13  16
ATOM     16  C   UNL     1      -2.784  -0.800  24.509  0.00  0.00    -0.033 A 
ATOM     20  C   UNL     1      -1.693  -0.212  23.870  0.00  0.00    +0.017 A 
ATOM     21  C   UNL     1      -2.603  -1.949  25.281  0.00  0.00    +0.005 A 
ATOM     22  C   UNL     1      -0.422  -0.769  24.004  0.00  0.00    +0.055 A 
ATOM     23  C   UNL     1      -1.332  -2.506  25.414  0.00  0.00    +0.001 A 
ATOM     24  C   UNL     1      -0.240  -1.916  24.776  0.00  0.00    +0.012 A 
BRANCH  22  25
ATOM      1  F   UNL     1       1.932  -0.763  23.578  0.00  0.00    -0.166 F 
ATOM      2  F   UNL     1       0.945   1.166  23.669  0.00  0.00    -0.166 F 
ATOM      3  F   UNL     1       0.620  -0.139  21.961  0.00  0.00    -0.166 F 
ATOM     25  C   UNL     1       0.745  -0.139  23.320  0.00  0.00    +0.417 C 
ENDBRANCH  22  25
ENDBRANCH  13  16
ENDBRANCH   6  13
ENDBRANCH   7   6
TORSDOF 7
ENDMDL
MODEL 8
REMARK VINA RESULT:      -4.9      4.271      5.903
REMARK  Name = 71694036
REMARK  7 active torsions:
REMARK  status: ('A' for Active; 'I' for Inactive)
REMARK    1  A    between atoms: O_4  and  C_9
REMARK    2  A    between atoms: O_5  and  C_11
REMARK    3  A    between atoms: N_6  and  C_7
REMARK    4  A    between atoms: N_6  and  C_13
REMARK    5  A    between atoms: C_8  and  C_12
REMARK    6  A    between atoms: C_13  and  C_16
REMARK    7  A    between atoms: C_22  and  C_25
REMARK                            x       y       z     vdW  Elec       q    Type
REMARK                         _______ _______ _______ _____ _____    ______ ____
ROOT
ATOM      7  C   UNL     1      -1.060  -0.278  25.346  0.00  0.00    +0.092 C 
ATOM      8  C   UNL     1      -2.604  -0.221  25.422  0.00  0.00    +0.041 C 
ATOM      9  C   UNL     1      -0.751  -1.745  25.643  0.00  0.00    +0.160 C 
ATOM     10  C   UNL     1      -3.087  -1.658  25.092  0.00  0.00    +0.043 C 
ATOM     11  C   UNL     1      -1.822  -2.482  24.843  0.00  0.00    +0.145 C 
ENDROOT
BRANCH   8  12
ATOM     12  C   UNL     1      -3.204   0.853  24.540  0.00  0.00    -0.043 A 
ATOM     14  C   UNL     1      -2.537   1.262  23.386  0.00  0.00    +0.004 A 
ATOM     15  C   UNL     1      -4.425   1.434  24.883  0.00  0.00    +0.004 A 
ATOM     17  C   UNL     1      -3.091   2.252  22.574  0.00  0.00    +0.000 A 
ATOM     18  C   UNL     1      -4.979   2.424  24.072  0.00  0.00    +0.000 A 
ATOM     19  C   UNL     1      -4.311   2.833  22.917  0.00  0.00    +0.000 A 
ENDBRANCH   8  12
BRANCH   9   4
ATOM      4  O   UNL     1       0.556  -2.097  25.231  0.00  0.00    -0.388 OA
ATOM     27  H   UNL     1       0.581  -2.040  24.261  0.00  0.00    +0.210 HD
ENDBRANCH   9   4
BRANCH  11   5
ATOM      5  O   UNL     1      -1.504  -2.455  23.455  0.00  0.00    -0.389 OA
ATOM     28  H   UNL     1      -1.273  -1.538  23.227  0.00  0.00    +0.210 HD
ENDBRANCH  11   5
BRANCH   7   6
ATOM      6  N   UNL     1      -0.429   0.614  26.311  0.00  0.00    -0.306 NA
ATOM     26  H   UNL     1      -1.151   1.090  26.853  0.00  0.00    +0.123 HD
BRANCH   6  13
ATOM     13  C   UNL     1       0.385   1.616  25.638  0.00  0.00    +0.116 C 
BRANCH  13  16
ATOM     16  C   UNL     1      -0.387   2.882  25.376  0.00  0.00    -0.033 A 
ATOM     20  C   UNL     1      -1.536   3.164  26.114  0.00  0.00    +0.017 A 
ATOM     21  C   UNL     1       0.046   3.772  24.392  0.00  0.00    +0.005 A 
ATOM     22  C   UNL     1      -2.251   4.336  25.871  0.00  0.00    +0.055 A 
ATOM     23  C   UNL     1      -0.669   4.944  24.150  0.00  0.00    +0.001 A 
ATOM     24  C   UNL     1      -1.818   5.227  24.889  0.00  0.00    +0.012 A 
BRANCH  22  25
ATOM      1  F   UNL     1      -4.639   4.334  26.006  0.00  0.00    -0.166 F 
ATOM      2  F   UNL     1      -3.600   5.955  27.004  0.00  0.00    -0.166 F 
ATOM      3  F   UNL     1      -3.531   3.948  27.837  0.00  0.00    -0.166 F 
ATOM     25  C   UNL     1      -3.480   4.639  26.661  0.00  0.00    +0.417 C 
ENDBRANCH  22  25
ENDBRANCH  13  16
ENDBRANCH   6  13
ENDBRANCH   7   6
TORSDOF 7
ENDMDL
MODEL 9
REMARK VINA RESULT:      -4.8      2.508      4.446
REMARK  Name = 71694036
REMARK  7 active torsions:
REMARK  status: ('A' for Active; 'I' for Inactive)
REMARK    1  A    between atoms: O_4  and  C_9
REMARK    2  A    between atoms: O_5  and  C_11
REMARK    3  A    between atoms: N_6  and  C_7
REMARK    4  A    between atoms: N_6  and  C_13
REMARK    5  A    between atoms: C_8  and  C_12
REMARK    6  A    between atoms: C_13  and  C_16
REMARK    7  A    between atoms: C_22  and  C_25
REMARK                            x       y       z     vdW  Elec       q    Type
REMARK                         _______ _______ _______ _____ _____    ______ ____
ROOT
ATOM      7  C   UNL     1      -1.654   2.358  24.017  0.00  0.00    +0.092 C 
ATOM      8  C   UNL     1      -2.452   3.597  24.487  0.00  0.00    +0.041 C 
ATOM      9  C   UNL     1      -0.201   2.775  24.238  0.00  0.00    +0.160 C 
ATOM     10  C   UNL     1      -1.533   4.316  25.510  0.00  0.00    +0.043 C 
ATOM     11  C   UNL     1      -0.255   3.479  25.591  0.00  0.00    +0.145 C 
ENDROOT
BRANCH   8  12
ATOM     12  C   UNL     1      -3.826   3.253  25.021  0.00  0.00    -0.043 A 
ATOM     14  C   UNL     1      -4.133   1.936  25.361  0.00  0.00    +0.004 A 
ATOM     15  C   UNL     1      -4.785   4.255  25.173  0.00  0.00    +0.004 A 
ATOM     17  C   UNL     1      -5.400   1.620  25.853  0.00  0.00    +0.000 A 
ATOM     18  C   UNL     1      -6.051   3.939  25.664  0.00  0.00    +0.000 A 
ATOM     19  C   UNL     1      -6.358   2.621  26.004  0.00  0.00    +0.000 A 
ENDBRANCH   8  12
BRANCH   9   4
ATOM      4  O   UNL     1       0.668   1.658  24.254  0.00  0.00    -0.388 OA
ATOM     27  H   UNL     1       1.387   1.858  24.876  0.00  0.00    +0.210 HD
ENDBRANCH   9   4
BRANCH  11   5
ATOM      5  O   UNL     1      -0.381   2.521  26.638  0.00  0.00    -0.389 OA
ATOM     28  H   UNL     1      -0.908   1.779  26.291  0.00  0.00    +0.210 HD
ENDBRANCH  11   5
BRANCH   7   6
ATOM      6  N   UNL     1      -1.918   2.031  22.621  0.00  0.00    -0.306 NA
ATOM     26  H   UNL     1      -2.041   2.894  22.090  0.00  0.00    +0.123 HD
BRANCH   6  13
ATOM     13  C   UNL     1      -3.126   1.229  22.494  0.00  0.00    +0.116 C 
BRANCH  13  16
ATOM     16  C   UNL     1      -3.046  -0.036  23.308  0.00  0.00    -0.033 A 
ATOM     20  C   UNL     1      -1.861  -0.373  23.960  0.00  0.00    +0.017 A 
ATOM     21  C   UNL     1      -4.159  -0.872  23.409  0.00  0.00    +0.005 A 
ATOM     22  C   UNL     1      -1.787  -1.544  24.714  0.00  0.00    +0.055 A 
ATOM     23  C   UNL     1      -4.085  -2.043  24.162  0.00  0.00    +0.001 A 
ATOM     24  C   UNL     1      -2.900  -2.380  24.815  0.00  0.00    +0.012 A 
BRANCH  22  25
ATOM      1  F   UNL     1      -0.412  -1.372  26.663  0.00  0.00    -0.166 F 
ATOM      2  F   UNL     1       0.605  -1.494  24.752  0.00  0.00    -0.166 F 
ATOM      3  F   UNL     1      -0.374  -3.253  25.574  0.00  0.00    -0.166 F 
ATOM     25  C   UNL     1      -0.518  -1.905  25.411  0.00  0.00    +0.417 C 
ENDBRANCH  22  25
ENDBRANCH  13  16
ENDBRANCH   6  13
ENDBRANCH   7   6
TORSDOF 7
ENDMDL
MODEL 10
REMARK VINA RESULT:      -4.8      2.108      4.220
REMARK  Name = 71694036
REMARK  7 active torsions:
REMARK  status: ('A' for Active; 'I' for Inactive)
REMARK    1  A    between atoms: O_4  and  C_9
REMARK    2  A    between atoms: O_5  and  C_11
REMARK    3  A    between atoms: N_6  and  C_7
REMARK    4  A    between atoms: N_6  and  C_13
REMARK    5  A    between atoms: C_8  and  C_12
REMARK    6  A    between atoms: C_13  and  C_16
REMARK    7  A    between atoms: C_22  and  C_25
REMARK                            x       y       z     vdW  Elec       q    Type
REMARK                         _______ _______ _______ _____ _____    ______ ____
ROOT
ATOM      7  C   UNL     1      -4.436   2.293  25.290  0.00  0.00    +0.092 C 
ATOM      8  C   UNL     1      -3.161   2.838  25.974  0.00  0.00    +0.041 C 
ATOM      9  C   UNL     1      -5.503   3.317  25.677  0.00  0.00    +0.160 C 
ATOM     10  C   UNL     1      -3.387   4.368  26.113  0.00  0.00    +0.043 C 
ATOM     11  C   UNL     1      -4.768   4.645  25.515  0.00  0.00    +0.145 C 
ENDROOT
BRANCH   8  12
ATOM     12  C   UNL     1      -1.887   2.464  25.246  0.00  0.00    -0.043 A 
ATOM     14  C   UNL     1      -0.669   2.467  25.925  0.00  0.00    +0.004 A 
ATOM     15  C   UNL     1      -1.933   2.117  23.896  0.00  0.00    +0.004 A 
ATOM     17  C   UNL     1       0.504   2.123  25.253  0.00  0.00    +0.000 A 
ATOM     18  C   UNL     1      -0.760   1.772  23.224  0.00  0.00    +0.000 A 
ATOM     19  C   UNL     1       0.458   1.775  23.903  0.00  0.00    +0.000 A 
ENDBRANCH   8  12
BRANCH   9   4
ATOM      4  O   UNL     1      -6.638   3.232  24.837  0.00  0.00    -0.388 OA
ATOM     27  H   UNL     1      -6.513   2.462  24.256  0.00  0.00    +0.210 HD
ENDBRANCH   9   4
BRANCH  11   5
ATOM      5  O   UNL     1      -4.631   4.965  24.133  0.00  0.00    -0.389 OA
ATOM     28  H   UNL     1      -5.186   5.745  23.959  0.00  0.00    +0.210 HD
ENDBRANCH  11   5
BRANCH   7   6
ATOM      6  N   UNL     1      -4.778   0.954  25.754  0.00  0.00    -0.306 NA
ATOM     26  H   UNL     1      -3.988   0.562  26.266  0.00  0.00    +0.123 HD
BRANCH   6  13
ATOM     13  C   UNL     1      -5.087   0.079  24.632  0.00  0.00    +0.116 C 
BRANCH  13  16
ATOM     16  C   UNL     1      -4.069  -1.020  24.482  0.00  0.00    -0.033 A 
ATOM     20  C   UNL     1      -2.769  -0.838  24.953  0.00  0.00    +0.017 A 
ATOM     21  C   UNL     1      -4.426  -2.222  23.869  0.00  0.00    +0.005 A 
ATOM     22  C   UNL     1      -1.827  -1.856  24.814  0.00  0.00    +0.055 A 
ATOM     23  C   UNL     1      -3.483  -3.240  23.730  0.00  0.00    +0.001 A 
ATOM     24  C   UNL     1      -2.183  -3.058  24.202  0.00  0.00    +0.012 A 
BRANCH  22  25
ATOM      1  F   UNL     1       0.419  -1.154  24.382  0.00  0.00    -0.166 F 
ATOM      2  F   UNL     1       0.154  -2.812  25.755  0.00  0.00    -0.166 F 
ATOM      3  F   UNL     1      -0.377  -0.797  26.373  0.00  0.00    -0.166 F 
ATOM     25  C   UNL     1      -0.436  -1.660  25.318  0.00  0.00    +0.417 C 
ENDBRANCH  22  25
ENDBRANCH  13  16
ENDBRANCH   6  13
ENDBRANCH   7   6
TORSDOF 7
ENDMDL
