MODEL 1
REMARK VINA RESULT:      13.9      0.000      0.000
REMARK  Name = 40777673
REMARK  7 active torsions:
REMARK  status: ('A' for Active; 'I' for Inactive)
REMARK    1  A    between atoms: N_6  and  C_11
REMARK    2  A    between atoms: N_7  and  C_19
REMARK    3  A    between atoms: C_9  and  C_12
REMARK    4  A    between atoms: C_15  and  C_17
REMARK    5  A    between atoms: C_16  and  C_18
REMARK    6  A    between atoms: C_20  and  C_23
REMARK    7  A    between atoms: C_26  and  C_28
REMARK                            x       y       z     vdW  Elec       q    Type
REMARK                         _______ _______ _______ _____ _____    ______ ____
ROOT
ATOM      7  N   UNL     1       1.213  -0.784  23.950  0.00  0.00    -0.236 N 
ATOM      8  N   UNL     1       0.637  -1.980  23.743  0.00  0.00    -0.171 NA
ATOM     12  C   UNL     1      -0.891  -0.419  24.412  0.00  0.00    +0.003 A 
ATOM     15  C   UNL     1       0.341   0.185  24.351  0.00  0.00    +0.046 A 
ATOM     16  C   UNL     1      -0.648  -1.751  24.026  0.00  0.00    +0.064 A 
ATOM     17  C   UNL     1       0.751   1.576  24.639  0.00  0.00    +0.066 C 
ATOM     18  C   UNL     1      -1.623  -2.851  23.914  0.00  0.00    +0.068 C 
ENDROOT
BRANCH   7  19
ATOM     19  C   UNL     1       2.585  -0.632  23.748  0.00  0.00    +0.066 A 
ATOM     21  C   UNL     1       3.462  -1.654  24.112  0.00  0.00    +0.028 A 
ATOM     22  C   UNL     1       3.081   0.545  23.187  0.00  0.00    +0.028 A 
ATOM     24  C   UNL     1       4.833  -1.499  23.914  0.00  0.00    +0.014 A 
ATOM     25  C   UNL     1       4.453   0.700  22.990  0.00  0.00    +0.014 A 
ATOM     26  C   UNL     1       5.329  -0.323  23.353  0.00  0.00    +0.055 A 
BRANCH  26  28
ATOM      2  F   UNL     1       7.181   1.151  23.122  0.00  0.00    -0.166 F 
ATOM      3  F   UNL     1       7.558  -0.749  24.110  0.00  0.00    -0.166 F 
ATOM      4  F   UNL     1       7.243  -0.688  21.965  0.00  0.00    -0.166 F 
ATOM     28  C   UNL     1       6.796  -0.158  23.142  0.00  0.00    +0.417 C 
ENDBRANCH  26  28
ENDBRANCH   7  19
BRANCH  12   9
ATOM      9  C   UNL     1      -2.209   0.208  24.804  0.00  0.00    +0.047 C 
ATOM     10  C   UNL     1      -3.200   0.334  23.629  0.00  0.00    +0.039 C 
ATOM     11  C   UNL     1      -4.592   0.100  24.225  0.00  0.00    +0.097 C 
ATOM     13  C   UNL     1      -2.999  -0.576  25.812  0.00  0.00    -0.021 C 
ATOM     14  C   UNL     1      -4.296  -0.626  25.495  0.00  0.00    -0.009 C 
BRANCH  11   6
ATOM      5  O   UNL     1      -3.311   2.661  24.657  0.00  0.00    -0.270 OA
ATOM      6  N   UNL     1      -5.246   1.386  24.545  0.00  0.00    -0.305 N 
ATOM     20  C   UNL     1      -4.533   2.564  24.734  0.00  0.00    +0.251 C 
ATOM     31  H   UNL     1      -6.255   1.397  24.664  0.00  0.00    +0.150 HD
BRANCH  20  23
ATOM      1  S   UNL     1      -4.929   5.271  24.364  0.00  0.00    -0.092 S 
ATOM     23  C   UNL     1      -5.336   3.767  25.075  0.00  0.00    +0.074 A 
ATOM     27  C   UNL     1      -6.418   3.871  25.921  0.00  0.00    +0.021 A 
ATOM     29  C   UNL     1      -6.920   5.204  25.986  0.00  0.00    +0.008 A 
ATOM     30  C   UNL     1      -6.202   6.067  25.187  0.00  0.00    +0.046 A 
ENDBRANCH  20  23
ENDBRANCH  11   6
ENDBRANCH  12   9
TORSDOF 5
ENDMDL
MODEL 2
REMARK VINA RESULT:      15.1      5.802     10.053
REMARK  Name = 40777673
REMARK  7 active torsions:
REMARK  status: ('A' for Active; 'I' for Inactive)
REMARK    1  A    between atoms: N_6  and  C_11
REMARK    2  A    between atoms: N_7  and  C_19
REMARK    3  A    between atoms: C_9  and  C_12
REMARK    4  A    between atoms: C_15  and  C_17
REMARK    5  A    between atoms: C_16  and  C_18
REMARK    6  A    between atoms: C_20  and  C_23
REMARK    7  A    between atoms: C_26  and  C_28
REMARK                            x       y       z     vdW  Elec       q    Type
REMARK                         _______ _______ _______ _____ _____    ______ ____
ROOT
ATOM      7  N   UNL     1      -1.427   0.170  24.743  0.00  0.00    -0.236 N 
ATOM      8  N   UNL     1      -1.144  -1.094  25.100  0.00  0.00    -0.171 NA
ATOM     12  C   UNL     1       0.682  -0.042  24.217  0.00  0.00    +0.003 A 
ATOM     15  C   UNL     1      -0.368   0.843  24.210  0.00  0.00    +0.046 A 
ATOM     16  C   UNL     1       0.146  -1.218  24.776  0.00  0.00    +0.064 A 
ATOM     17  C   UNL     1      -0.447   2.244  23.746  0.00  0.00    +0.066 C 
ATOM     18  C   UNL     1       0.835  -2.498  25.021  0.00  0.00    +0.068 C 
ENDROOT
BRANCH   7  19
ATOM     19  C   UNL     1      -2.715   0.672  24.937  0.00  0.00    +0.066 A 
ATOM     21  C   UNL     1      -3.805  -0.198  24.976  0.00  0.00    +0.028 A 
ATOM     22  C   UNL     1      -2.913   2.044  25.087  0.00  0.00    +0.028 A 
ATOM     24  C   UNL     1      -5.091   0.305  25.166  0.00  0.00    +0.014 A 
ATOM     25  C   UNL     1      -4.200   2.547  25.276  0.00  0.00    +0.014 A 
ATOM     26  C   UNL     1      -5.289   1.677  25.316  0.00  0.00    +0.055 A 
BRANCH  26  28
ATOM      2  F   UNL     1      -7.237   1.774  26.675  0.00  0.00    -0.166 F 
ATOM      3  F   UNL     1      -6.718   3.578  25.579  0.00  0.00    -0.166 F 
ATOM      4  F   UNL     1      -7.539   1.869  24.525  0.00  0.00    -0.166 F 
ATOM     28  C   UNL     1      -6.666   2.214  25.517  0.00  0.00    +0.417 C 
ENDBRANCH  26  28
ENDBRANCH   7  19
BRANCH  12   9
ATOM      9  C   UNL     1       2.093   0.195  23.732  0.00  0.00    +0.047 C 
ATOM     10  C   UNL     1       2.371  -0.409  22.339  0.00  0.00    +0.039 C 
ATOM     11  C   UNL     1       3.330   0.562  21.643  0.00  0.00    +0.097 C 
ATOM     13  C   UNL     1       2.454   1.640  23.536  0.00  0.00    -0.021 C 
ATOM     14  C   UNL     1       3.131   1.832  22.400  0.00  0.00    -0.009 C 
BRANCH  11   6
ATOM      5  O   UNL     1       5.013   0.868  23.980  0.00  0.00    -0.270 OA
ATOM      6  N   UNL     1       4.730   0.117  21.803  0.00  0.00    -0.305 N 
ATOM     20  C   UNL     1       5.452   0.315  22.974  0.00  0.00    +0.251 C 
ATOM     31  H   UNL     1       5.191  -0.319  21.009  0.00  0.00    +0.150 HD
BRANCH  20  23
ATOM      1  S   UNL     1       8.047   0.718  23.823  0.00  0.00    -0.092 S 
ATOM     23  C   UNL     1       6.857  -0.167  22.966  0.00  0.00    +0.074 A 
ATOM     27  C   UNL     1       7.386  -1.276  22.344  0.00  0.00    +0.021 A 
ATOM     29  C   UNL     1       8.787  -1.401  22.574  0.00  0.00    +0.008 A 
ATOM     30  C   UNL     1       9.275  -0.383  23.363  0.00  0.00    +0.046 A 
ENDBRANCH  20  23
ENDBRANCH  11   6
ENDBRANCH  12   9
TORSDOF 5
ENDMDL
MODEL 3
REMARK VINA RESULT:      15.7      5.787      9.896
REMARK  Name = 40777673
REMARK  7 active torsions:
REMARK  status: ('A' for Active; 'I' for Inactive)
REMARK    1  A    between atoms: N_6  and  C_11
REMARK    2  A    between atoms: N_7  and  C_19
REMARK    3  A    between atoms: C_9  and  C_12
REMARK    4  A    between atoms: C_15  and  C_17
REMARK    5  A    between atoms: C_16  and  C_18
REMARK    6  A    between atoms: C_20  and  C_23
REMARK    7  A    between atoms: C_26  and  C_28
REMARK                            x       y       z     vdW  Elec       q    Type
REMARK                         _______ _______ _______ _____ _____    ______ ____
ROOT
ATOM      7  N   UNL     1      -2.063   1.347  24.671  0.00  0.00    -0.236 N 
ATOM      8  N   UNL     1      -2.272   0.038  24.888  0.00  0.00    -0.171 NA
ATOM     12  C   UNL     1      -0.155   0.434  24.125  0.00  0.00    +0.003 A 
ATOM     15  C   UNL     1      -0.812   1.637  24.213  0.00  0.00    +0.046 A 
ATOM     16  C   UNL     1      -1.103  -0.516  24.553  0.00  0.00    +0.064 A 
ATOM     17  C   UNL     1      -0.359   3.010  23.905  0.00  0.00    +0.066 C 
ATOM     18  C   UNL     1      -0.935  -1.976  24.658  0.00  0.00    +0.068 C 
ENDROOT
BRANCH   7  19
ATOM     19  C   UNL     1      -3.088   2.261  24.917  0.00  0.00    +0.066 A 
ATOM     21  C   UNL     1      -2.792   3.513  25.457  0.00  0.00    +0.028 A 
ATOM     22  C   UNL     1      -4.410   1.921  24.630  0.00  0.00    +0.028 A 
ATOM     24  C   UNL     1      -3.818   4.425  25.706  0.00  0.00    +0.014 A 
ATOM     25  C   UNL     1      -5.435   2.832  24.881  0.00  0.00    +0.014 A 
ATOM     26  C   UNL     1      -5.139   4.084  25.418  0.00  0.00    +0.055 A 
BRANCH  26  28
ATOM      2  F   UNL     1      -7.370   4.460  26.148  0.00  0.00    -0.166 F 
ATOM      3  F   UNL     1      -5.912   6.002  26.622  0.00  0.00    -0.166 F 
ATOM      4  F   UNL     1      -6.618   5.770  24.585  0.00  0.00    -0.166 F 
ATOM     28  C   UNL     1      -6.235   5.059  25.687  0.00  0.00    +0.417 C 
ENDBRANCH  26  28
ENDBRANCH   7  19
BRANCH  12   9
ATOM      9  C   UNL     1       1.264   0.187  23.669  0.00  0.00    +0.047 C 
ATOM     10  C   UNL     1       1.837  -1.161  24.155  0.00  0.00    +0.039 C 
ATOM     11  C   UNL     1       2.740  -1.666  23.025  0.00  0.00    +0.097 C 
ATOM     13  C   UNL     1       1.436   0.095  22.180  0.00  0.00    -0.021 C 
ATOM     14  C   UNL     1       2.245  -0.912  21.836  0.00  0.00    -0.009 C 
BRANCH  11   6
ATOM      5  O   UNL     1       3.989   0.910  22.584  0.00  0.00    -0.270 OA
ATOM      6  N   UNL     1       4.149  -1.298  23.279  0.00  0.00    -0.305 N 
ATOM     20  C   UNL     1       4.649  -0.025  23.030  0.00  0.00    +0.251 C 
ATOM     31  H   UNL     1       4.781  -2.018  23.616  0.00  0.00    +0.150 HD
BRANCH  20  23
ATOM      1  S   UNL     1       7.234  -0.912  22.646  0.00  0.00    -0.092 S 
ATOM     23  C   UNL     1       6.093   0.176  23.314  0.00  0.00    +0.074 A 
ATOM     27  C   UNL     1       6.696   1.156  24.071  0.00  0.00    +0.021 A 
ATOM     29  C   UNL     1       8.114   1.011  24.103  0.00  0.00    +0.008 A 
ATOM     30  C   UNL     1       8.540  -0.073  23.369  0.00  0.00    +0.046 A 
ENDBRANCH  20  23
ENDBRANCH  11   6
ENDBRANCH  12   9
TORSDOF 5
ENDMDL
MODEL 4
REMARK VINA RESULT:      16.0      1.661      2.127
REMARK  Name = 40777673
REMARK  7 active torsions:
REMARK  status: ('A' for Active; 'I' for Inactive)
REMARK    1  A    between atoms: N_6  and  C_11
REMARK    2  A    between atoms: N_7  and  C_19
REMARK    3  A    between atoms: C_9  and  C_12
REMARK    4  A    between atoms: C_15  and  C_17
REMARK    5  A    between atoms: C_16  and  C_18
REMARK    6  A    between atoms: C_20  and  C_23
REMARK    7  A    between atoms: C_26  and  C_28
REMARK                            x       y       z     vdW  Elec       q    Type
REMARK                         _______ _______ _______ _____ _____    ______ ____
ROOT
ATOM      7  N   UNL     1       2.019  -0.484  23.636  0.00  0.00    -0.236 N 
ATOM      8  N   UNL     1       1.386  -1.620  23.974  0.00  0.00    -0.171 NA
ATOM     12  C   UNL     1      -0.090   0.088  23.615  0.00  0.00    +0.003 A 
ATOM     15  C   UNL     1       1.181   0.568  23.410  0.00  0.00    +0.046 A 
ATOM     16  C   UNL     1       0.098  -1.265  23.960  0.00  0.00    +0.064 A 
ATOM     17  C   UNL     1       1.654   1.915  23.028  0.00  0.00    +0.066 C 
ATOM     18  C   UNL     1      -0.934  -2.265  24.288  0.00  0.00    +0.068 C 
ENDROOT
BRANCH   7  19
ATOM     19  C   UNL     1       3.411  -0.468  23.545  0.00  0.00    +0.066 A 
ATOM     21  C   UNL     1       4.149  -1.590  23.924  0.00  0.00    +0.028 A 
ATOM     22  C   UNL     1       4.066   0.672  23.080  0.00  0.00    +0.028 A 
ATOM     24  C   UNL     1       5.540  -1.572  23.836  0.00  0.00    +0.014 A 
ATOM     25  C   UNL     1       5.458   0.691  22.994  0.00  0.00    +0.014 A 
ATOM     26  C   UNL     1       6.195  -0.431  23.371  0.00  0.00    +0.055 A 
BRANCH  26  28
ATOM      2  F   UNL     1       8.160  -1.243  22.307  0.00  0.00    -0.166 F 
ATOM      3  F   UNL     1       8.199   0.820  22.993  0.00  0.00    -0.166 F 
ATOM      4  F   UNL     1       8.308  -0.801  24.430  0.00  0.00    -0.166 F 
ATOM     28  C   UNL     1       7.683  -0.413  23.279  0.00  0.00    +0.417 C 
ENDBRANCH  26  28
ENDBRANCH   7  19
BRANCH  12   9
ATOM      9  C   UNL     1      -1.393   0.843  23.498  0.00  0.00    +0.047 C 
ATOM     10  C   UNL     1      -1.238   2.365  23.702  0.00  0.00    +0.039 C 
ATOM     11  C   UNL     1      -2.246   3.022  22.753  0.00  0.00    +0.097 C 
ATOM     13  C   UNL     1      -2.044   0.762  22.148  0.00  0.00    -0.021 C 
ATOM     14  C   UNL     1      -2.512   1.949  21.750  0.00  0.00    -0.009 C 
BRANCH  11   6
ATOM      5  O   UNL     1      -2.617   3.323  25.610  0.00  0.00    -0.270 OA
ATOM      6  N   UNL     1      -3.502   3.340  23.465  0.00  0.00    -0.305 N 
ATOM     20  C   UNL     1      -3.570   3.462  24.848  0.00  0.00    +0.251 C 
ATOM     31  H   UNL     1      -4.353   3.438  22.920  0.00  0.00    +0.150 HD
BRANCH  20  23
ATOM      1  S   UNL     1      -5.855   2.475  26.042  0.00  0.00    -0.092 S 
ATOM     23  C   UNL     1      -4.912   3.759  25.413  0.00  0.00    +0.074 A 
ATOM     27  C   UNL     1      -5.556   4.972  25.517  0.00  0.00    +0.021 A 
ATOM     29  C   UNL     1      -6.840   4.846  26.122  0.00  0.00    +0.008 A 
ATOM     30  C   UNL     1      -7.129   3.542  26.457  0.00  0.00    +0.046 A 
ENDBRANCH  20  23
ENDBRANCH  11   6
ENDBRANCH  12   9
TORSDOF 5
ENDMDL
