MODEL 1
REMARK VINA RESULT:      -2.9      0.000      0.000
REMARK  Name = 26744006
REMARK  8 active torsions:
REMARK  status: ('A' for Active; 'I' for Inactive)
REMARK    1  A    between atoms: S_2  and  C_20
REMARK    2  A    between atoms: S_2  and  C_23
REMARK    3  A    between atoms: O_3  and  C_12
REMARK    4  A    between atoms: N_7  and  C_14
REMARK    5  A    between atoms: C_10  and  C_15
REMARK    6  A    between atoms: C_14  and  C_16
REMARK    7  A    between atoms: C_17  and  C_20
REMARK    8  A    between atoms: C_29  and  C_30
REMARK                            x       y       z     vdW  Elec       q    Type
REMARK                         _______ _______ _______ _____ _____    ______ ____
ROOT
ATOM      4  O   UNL     1      -2.004   2.375  25.576  0.00  0.00    -0.336 OA
ATOM      8  N   UNL     1      -1.739   2.180  23.360  0.00  0.00    -0.193 NA
ATOM      9  N   UNL     1      -0.632   2.192  25.362  0.00  0.00    -0.060 NA
ATOM     15  C   UNL     1      -2.582   2.355  24.346  0.00  0.00    +0.245 A 
ATOM     17  C   UNL     1      -0.555   2.085  24.032  0.00  0.00    +0.193 A 
ENDROOT
BRANCH  15  10
ATOM      7  N   UNL     1      -4.792   1.637  25.238  0.00  0.00    -0.285 NA
ATOM     10  C   UNL     1      -4.085   2.536  24.303  0.00  0.00    +0.149 C 
ATOM     11  C   UNL     1      -4.527   3.954  24.709  0.00  0.00    +0.061 C 
ATOM     12  C   UNL     1      -5.515   3.748  25.849  0.00  0.00    +0.130 C 
ATOM     13  C   UNL     1      -6.016   2.332  25.633  0.00  0.00    +0.116 C 
BRANCH  12   3
ATOM      3  O   UNL     1      -6.566   4.692  25.780  0.00  0.00    -0.390 OA
ATOM     31  H   UNL     1      -6.636   4.984  24.855  0.00  0.00    +0.210 HD
ENDBRANCH  12   3
BRANCH   7  14
ATOM     14  C   UNL     1      -5.066   0.322  24.675  0.00  0.00    +0.120 C 
BRANCH  14  16
ATOM      1 CL   UNL     1      -0.414  -3.428  25.369  0.00  0.00    -0.084 Cl
ATOM     16  C   UNL     1      -3.902  -0.617  24.850  0.00  0.00    -0.033 A 
ATOM     18  C   UNL     1      -3.677  -1.629  23.916  0.00  0.00    +0.006 A 
ATOM     19  C   UNL     1      -3.049  -0.475  25.943  0.00  0.00    +0.006 A 
ATOM     21  C   UNL     1      -2.600  -2.499  24.078  0.00  0.00    +0.020 A 
ATOM     22  C   UNL     1      -1.971  -1.344  26.105  0.00  0.00    +0.020 A 
ATOM     24  C   UNL     1      -1.747  -2.357  25.173  0.00  0.00    +0.041 A 
ENDBRANCH  14  16
ENDBRANCH   7  14
ENDBRANCH  15  10
BRANCH  17  20
ATOM     20  C   UNL     1       0.723   1.880  23.342  0.00  0.00    +0.251 C 
BRANCH  20   2
ATOM      2  S   UNL     1       0.979   0.140  23.128  0.00  0.00    +0.004 S 
ATOM      5  O   UNL     1       0.570  -0.199  21.778  0.00  0.00    -0.169 OA
ATOM      6  O   UNL     1       0.408  -0.553  24.267  0.00  0.00    -0.169 OA
BRANCH   2  23
ATOM     23  C   UNL     1       2.733  -0.045  23.233  0.00  0.00    +0.089 A 
ATOM     25  C   UNL     1       3.281  -1.240  23.698  0.00  0.00    +0.027 A 
ATOM     26  C   UNL     1       3.569   1.005  22.854  0.00  0.00    +0.027 A 
ATOM     27  C   UNL     1       4.664  -1.386  23.784  0.00  0.00    +0.005 A 
ATOM     28  C   UNL     1       4.953   0.859  22.939  0.00  0.00    +0.005 A 
ATOM     29  C   UNL     1       5.501  -0.337  23.404  0.00  0.00    -0.050 A 
ATOM     30  C   UNL     1       6.982  -0.493  23.496  0.00  0.00    +0.044 C 
ENDBRANCH   2  23
ENDBRANCH  20   2
ENDBRANCH  17  20
TORSDOF 7
ENDMDL
MODEL 2
REMARK VINA RESULT:      -1.1      2.791      7.013
REMARK  Name = 26744006
REMARK  8 active torsions:
REMARK  status: ('A' for Active; 'I' for Inactive)
REMARK    1  A    between atoms: S_2  and  C_20
REMARK    2  A    between atoms: S_2  and  C_23
REMARK    3  A    between atoms: O_3  and  C_12
REMARK    4  A    between atoms: N_7  and  C_14
REMARK    5  A    between atoms: C_10  and  C_15
REMARK    6  A    between atoms: C_14  and  C_16
REMARK    7  A    between atoms: C_17  and  C_20
REMARK    8  A    between atoms: C_29  and  C_30
REMARK                            x       y       z     vdW  Elec       q    Type
REMARK                         _______ _______ _______ _____ _____    ______ ____
ROOT
ATOM      4  O   UNL     1      -2.554  -1.276  25.626  0.00  0.00    -0.336 OA
ATOM      8  N   UNL     1      -3.120   0.649  24.629  0.00  0.00    -0.193 NA
ATOM      9  N   UNL     1      -3.920  -1.375  25.335  0.00  0.00    -0.060 NA
ATOM     15  C   UNL     1      -2.162  -0.054  25.177  0.00  0.00    +0.245 A 
ATOM     17  C   UNL     1      -4.180  -0.202  24.749  0.00  0.00    +0.193 A 
ENDROOT
BRANCH  15  10
ATOM      7  N   UNL     1      -0.155   1.094  24.254  0.00  0.00    -0.285 NA
ATOM     10  C   UNL     1      -0.703   0.302  25.374  0.00  0.00    +0.149 C 
ATOM     11  C   UNL     1      -0.464   1.168  26.624  0.00  0.00    +0.061 C 
ATOM     12  C   UNL     1       0.263   2.405  26.114  0.00  0.00    +0.130 C 
ATOM     13  C   UNL     1       0.899   1.935  24.820  0.00  0.00    +0.116 C 
BRANCH  12   3
ATOM      3  O   UNL     1       1.232   2.839  27.048  0.00  0.00    -0.390 OA
ATOM     31  H   UNL     1       0.914   2.597  27.934  0.00  0.00    +0.210 HD
ENDBRANCH  12   3
BRANCH   7  14
ATOM     14  C   UNL     1       0.329   0.275  23.152  0.00  0.00    +0.120 C 
BRANCH  14  16
ATOM      1 CL   UNL     1       6.322  -0.244  23.216  0.00  0.00    -0.084 Cl
ATOM     16  C   UNL     1       1.829   0.144  23.168  0.00  0.00    -0.033 A 
ATOM     18  C   UNL     1       2.626   1.211  22.750  0.00  0.00    +0.006 A 
ATOM     19  C   UNL     1       2.422  -1.042  23.599  0.00  0.00    +0.006 A 
ATOM     21  C   UNL     1       4.015   1.090  22.764  0.00  0.00    +0.020 A 
ATOM     22  C   UNL     1       3.811  -1.163  23.613  0.00  0.00    +0.020 A 
ATOM     24  C   UNL     1       4.608  -0.097  23.195  0.00  0.00    +0.041 A 
ENDBRANCH  14  16
ENDBRANCH   7  14
ENDBRANCH  15  10
BRANCH  17  20
ATOM     20  C   UNL     1      -5.521   0.144  24.264  0.00  0.00    +0.251 C 
BRANCH  20   2
ATOM      2  S   UNL     1      -6.101   1.555  25.164  0.00  0.00    +0.004 S 
ATOM      5  O   UNL     1      -6.293   1.146  26.543  0.00  0.00    -0.169 OA
ATOM      6  O   UNL     1      -7.186   2.164  24.418  0.00  0.00    -0.169 OA
BRANCH   2  23
ATOM     23  C   UNL     1      -4.739   2.680  25.110  0.00  0.00    +0.089 A 
ATOM     25  C   UNL     1      -4.225   3.094  23.882  0.00  0.00    +0.027 A 
ATOM     26  C   UNL     1      -4.178   3.153  26.297  0.00  0.00    +0.027 A 
ATOM     27  C   UNL     1      -3.149   3.979  23.839  0.00  0.00    +0.005 A 
ATOM     28  C   UNL     1      -3.102   4.039  26.254  0.00  0.00    +0.005 A 
ATOM     29  C   UNL     1      -2.587   4.452  25.025  0.00  0.00    -0.050 A 
ATOM     30  C   UNL     1      -1.435   5.399  24.978  0.00  0.00    +0.044 C 
ENDBRANCH   2  23
ENDBRANCH  20   2
ENDBRANCH  17  20
TORSDOF 7
ENDMDL
MODEL 3
REMARK VINA RESULT:      -0.8      2.862      7.650
REMARK  Name = 26744006
REMARK  8 active torsions:
REMARK  status: ('A' for Active; 'I' for Inactive)
REMARK    1  A    between atoms: S_2  and  C_20
REMARK    2  A    between atoms: S_2  and  C_23
REMARK    3  A    between atoms: O_3  and  C_12
REMARK    4  A    between atoms: N_7  and  C_14
REMARK    5  A    between atoms: C_10  and  C_15
REMARK    6  A    between atoms: C_14  and  C_16
REMARK    7  A    between atoms: C_17  and  C_20
REMARK    8  A    between atoms: C_29  and  C_30
REMARK                            x       y       z     vdW  Elec       q    Type
REMARK                         _______ _______ _______ _____ _____    ______ ____
ROOT
ATOM      4  O   UNL     1       0.603  -1.568  24.623  0.00  0.00    -0.336 OA
ATOM      8  N   UNL     1      -1.068  -0.191  24.049  0.00  0.00    -0.193 NA
ATOM      9  N   UNL     1      -0.524  -2.010  25.326  0.00  0.00    -0.060 NA
ATOM     15  C   UNL     1       0.196  -0.494  23.896  0.00  0.00    +0.245 A 
ATOM     17  C   UNL     1      -1.468  -1.148  24.935  0.00  0.00    +0.193 A 
ENDROOT
BRANCH  15  10
ATOM      7  N   UNL     1       1.700   1.466  23.591  0.00  0.00    -0.285 NA
ATOM     10  C   UNL     1       1.246   0.175  23.033  0.00  0.00    +0.149 C 
ATOM     11  C   UNL     1       2.527  -0.666  22.892  0.00  0.00    +0.061 C 
ATOM     12  C   UNL     1       3.654   0.250  23.352  0.00  0.00    +0.130 C 
ATOM     13  C   UNL     1       3.083   1.642  23.152  0.00  0.00    +0.116 C 
BRANCH  12   3
ATOM      3  O   UNL     1       4.818   0.044  22.575  0.00  0.00    -0.390 OA
ATOM     31  H   UNL     1       5.537   0.554  22.986  0.00  0.00    +0.210 HD
ENDBRANCH  12   3
BRANCH   7  14
ATOM     14  C   UNL     1       0.856   2.588  23.205  0.00  0.00    +0.120 C 
BRANCH  14  16
ATOM      1 CL   UNL     1      -2.901   4.186  27.623  0.00  0.00    -0.084 Cl
ATOM     16  C   UNL     1      -0.085   2.988  24.310  0.00  0.00    -0.033 A 
ATOM     18  C   UNL     1      -0.186   2.202  25.458  0.00  0.00    +0.006 A 
ATOM     19  C   UNL     1      -0.856   4.143  24.186  0.00  0.00    +0.006 A 
ATOM     21  C   UNL     1      -1.058   2.572  26.481  0.00  0.00    +0.020 A 
ATOM     22  C   UNL     1      -1.727   4.514  25.210  0.00  0.00    +0.020 A 
ATOM     24  C   UNL     1      -1.829   3.728  26.357  0.00  0.00    +0.041 A 
ENDBRANCH  14  16
ENDBRANCH   7  14
ENDBRANCH  15  10
BRANCH  17  20
ATOM     20  C   UNL     1      -2.847  -1.229  25.430  0.00  0.00    +0.251 C 
BRANCH  20   2
ATOM      2  S   UNL     1      -3.948  -0.789  24.113  0.00  0.00    +0.004 S 
ATOM      5  O   UNL     1      -5.080  -1.694  24.169  0.00  0.00    -0.169 OA
ATOM      6  O   UNL     1      -3.175  -0.649  22.893  0.00  0.00    -0.169 OA
BRANCH   2  23
ATOM     23  C   UNL     1      -4.514   0.825  24.558  0.00  0.00    +0.089 A 
ATOM     25  C   UNL     1      -5.432   0.980  25.596  0.00  0.00    +0.027 A 
ATOM     26  C   UNL     1      -4.043   1.943  23.869  0.00  0.00    +0.027 A 
ATOM     27  C   UNL     1      -5.881   2.253  25.944  0.00  0.00    +0.005 A 
ATOM     28  C   UNL     1      -4.492   3.217  24.218  0.00  0.00    +0.005 A 
ATOM     29  C   UNL     1      -5.411   3.372  25.256  0.00  0.00    -0.050 A 
ATOM     30  C   UNL     1      -5.892   4.734  25.630  0.00  0.00    +0.044 C 
ENDBRANCH   2  23
ENDBRANCH  20   2
ENDBRANCH  17  20
TORSDOF 7
ENDMDL
MODEL 4
REMARK VINA RESULT:      -0.7      2.923      6.193
REMARK  Name = 26744006
REMARK  8 active torsions:
REMARK  status: ('A' for Active; 'I' for Inactive)
REMARK    1  A    between atoms: S_2  and  C_20
REMARK    2  A    between atoms: S_2  and  C_23
REMARK    3  A    between atoms: O_3  and  C_12
REMARK    4  A    between atoms: N_7  and  C_14
REMARK    5  A    between atoms: C_10  and  C_15
REMARK    6  A    between atoms: C_14  and  C_16
REMARK    7  A    between atoms: C_17  and  C_20
REMARK    8  A    between atoms: C_29  and  C_30
REMARK                            x       y       z     vdW  Elec       q    Type
REMARK                         _______ _______ _______ _____ _____    ______ ____
ROOT
ATOM      4  O   UNL     1      -0.841   4.296  25.120  0.00  0.00    -0.336 OA
ATOM      8  N   UNL     1      -2.111   2.941  26.372  0.00  0.00    -0.193 NA
ATOM      9  N   UNL     1      -1.987   5.031  25.449  0.00  0.00    -0.060 NA
ATOM     15  C   UNL     1      -0.994   3.078  25.703  0.00  0.00    +0.245 A 
ATOM     17  C   UNL     1      -2.687   4.164  26.188  0.00  0.00    +0.193 A 
ENDROOT
BRANCH  15  10
ATOM      7  N   UNL     1      -0.344   0.804  24.928  0.00  0.00    -0.285 NA
ATOM     10  C   UNL     1       0.129   2.083  25.495  0.00  0.00    +0.149 C 
ATOM     11  C   UNL     1       1.193   2.585  24.502  0.00  0.00    +0.061 C 
ATOM     12  C   UNL     1       1.282   1.500  23.437  0.00  0.00    +0.130 C 
ATOM     13  C   UNL     1       0.766   0.262  24.147  0.00  0.00    +0.116 C 
BRANCH  12   3
ATOM      3  O   UNL     1       2.616   1.335  22.997  0.00  0.00    -0.390 OA
ATOM     31  H   UNL     1       2.879   0.421  23.199  0.00  0.00    +0.210 HD
ENDBRANCH  12   3
BRANCH   7  14
ATOM     14  C   UNL     1      -0.813  -0.135  25.938  0.00  0.00    +0.120 C 
BRANCH  14  16
ATOM      1 CL   UNL     1      -4.767  -4.066  23.681  0.00  0.00    -0.084 Cl
ATOM     16  C   UNL     1      -1.802  -1.120  25.373  0.00  0.00    -0.033 A 
ATOM     18  C   UNL     1      -3.128  -1.102  25.807  0.00  0.00    +0.006 A 
ATOM     19  C   UNL     1      -1.393  -2.049  24.417  0.00  0.00    +0.006 A 
ATOM     21  C   UNL     1      -4.044  -2.015  25.285  0.00  0.00    +0.020 A 
ATOM     22  C   UNL     1      -2.310  -2.961  23.894  0.00  0.00    +0.020 A 
ATOM     24  C   UNL     1      -3.635  -2.944  24.328  0.00  0.00    +0.041 A 
ENDBRANCH  14  16
ENDBRANCH   7  14
ENDBRANCH  15  10
BRANCH  17  20
ATOM     20  C   UNL     1      -3.991   4.510  26.764  0.00  0.00    +0.251 C 
BRANCH  20   2
ATOM      2  S   UNL     1      -5.257   3.696  25.829  0.00  0.00    +0.004 S 
ATOM      5  O   UNL     1      -6.155   4.720  25.327  0.00  0.00    -0.169 OA
ATOM      6  O   UNL     1      -5.768   2.587  26.612  0.00  0.00    -0.169 OA
BRANCH   2  23
ATOM     23  C   UNL     1      -4.389   3.006  24.453  0.00  0.00    +0.089 A 
ATOM     25  C   UNL     1      -4.092   1.644  24.430  0.00  0.00    +0.027 A 
ATOM     26  C   UNL     1      -4.000   3.824  23.393  0.00  0.00    +0.027 A 
ATOM     27  C   UNL     1      -3.404   1.099  23.347  0.00  0.00    +0.005 A 
ATOM     28  C   UNL     1      -3.313   3.278  22.308  0.00  0.00    +0.005 A 
ATOM     29  C   UNL     1      -3.015   1.915  22.285  0.00  0.00    -0.050 A 
ATOM     30  C   UNL     1      -2.280   1.332  21.126  0.00  0.00    +0.044 C 
ENDBRANCH   2  23
ENDBRANCH  20   2
ENDBRANCH  17  20
TORSDOF 7
ENDMDL
MODEL 5
REMARK VINA RESULT:      -0.1      2.380      3.918
REMARK  Name = 26744006
REMARK  8 active torsions:
REMARK  status: ('A' for Active; 'I' for Inactive)
REMARK    1  A    between atoms: S_2  and  C_20
REMARK    2  A    between atoms: S_2  and  C_23
REMARK    3  A    between atoms: O_3  and  C_12
REMARK    4  A    between atoms: N_7  and  C_14
REMARK    5  A    between atoms: C_10  and  C_15
REMARK    6  A    between atoms: C_14  and  C_16
REMARK    7  A    between atoms: C_17  and  C_20
REMARK    8  A    between atoms: C_29  and  C_30
REMARK                            x       y       z     vdW  Elec       q    Type
REMARK                         _______ _______ _______ _____ _____    ______ ____
ROOT
ATOM      4  O   UNL     1      -1.519   1.038  26.034  0.00  0.00    -0.336 OA
ATOM      8  N   UNL     1      -1.088   0.166  24.016  0.00  0.00    -0.193 NA
ATOM      9  N   UNL     1      -0.297   1.586  25.625  0.00  0.00    -0.060 NA
ATOM     15  C   UNL     1      -1.916   0.213  25.029  0.00  0.00    +0.245 A 
ATOM     17  C   UNL     1      -0.110   1.024  24.427  0.00  0.00    +0.193 A 
ENDROOT
BRANCH  15  10
ATOM      7  N   UNL     1      -4.297  -0.010  24.338  0.00  0.00    -0.285 NA
ATOM     10  C   UNL     1      -3.231  -0.511  25.229  0.00  0.00    +0.149 C 
ATOM     11  C   UNL     1      -3.135  -2.016  24.921  0.00  0.00    +0.061 C 
ATOM     12  C   UNL     1      -4.215  -2.276  23.879  0.00  0.00    +0.130 C 
ATOM     13  C   UNL     1      -5.195  -1.137  24.093  0.00  0.00    +0.116 C 
BRANCH  12   3
ATOM      3  O   UNL     1      -4.823  -3.536  24.088  0.00  0.00    -0.390 OA
ATOM     31  H   UNL     1      -5.723  -3.375  24.419  0.00  0.00    +0.210 HD
ENDBRANCH  12   3
BRANCH   7  14
ATOM     14  C   UNL     1      -5.002   1.145  24.877  0.00  0.00    +0.120 C 
BRANCH  14  16
ATOM      1 CL   UNL     1      -1.500   6.034  25.039  0.00  0.00    -0.084 Cl
ATOM     16  C   UNL     1      -4.125   2.368  24.918  0.00  0.00    -0.033 A 
ATOM     18  C   UNL     1      -3.444   2.777  23.771  0.00  0.00    +0.006 A 
ATOM     19  C   UNL     1      -3.993   3.093  26.102  0.00  0.00    +0.006 A 
ATOM     21  C   UNL     1      -2.631   3.909  23.809  0.00  0.00    +0.020 A 
ATOM     22  C   UNL     1      -3.180   4.226  26.141  0.00  0.00    +0.020 A 
ATOM     24  C   UNL     1      -2.499   4.634  24.994  0.00  0.00    +0.041 A 
ENDBRANCH  14  16
ENDBRANCH   7  14
ENDBRANCH  15  10
BRANCH  17  20
ATOM     20  C   UNL     1       1.071   1.314  23.608  0.00  0.00    +0.251 C 
BRANCH  20   2
ATOM      2  S   UNL     1       1.616  -0.189  22.847  0.00  0.00    +0.004 S 
ATOM      5  O   UNL     1       1.408  -0.056  21.417  0.00  0.00    -0.169 OA
ATOM      6  O   UNL     1       1.045  -1.308  23.573  0.00  0.00    -0.169 OA
BRANCH   2  23
ATOM     23  C   UNL     1       3.357  -0.209  23.148  0.00  0.00    +0.089 A 
ATOM     25  C   UNL     1       3.961  -1.352  23.672  0.00  0.00    +0.027 A 
ATOM     26  C   UNL     1       4.126   0.919  22.864  0.00  0.00    +0.027 A 
ATOM     27  C   UNL     1       5.334  -1.366  23.913  0.00  0.00    +0.005 A 
ATOM     28  C   UNL     1       5.501   0.904  23.104  0.00  0.00    +0.005 A 
ATOM     29  C   UNL     1       6.104  -0.239  23.629  0.00  0.00    -0.050 A 
ATOM     30  C   UNL     1       7.574  -0.255  23.886  0.00  0.00    +0.044 C 
ENDBRANCH   2  23
ENDBRANCH  20   2
ENDBRANCH  17  20
TORSDOF 7
ENDMDL
MODEL 6
REMARK VINA RESULT:       0.2      2.835      4.013
REMARK  Name = 26744006
REMARK  8 active torsions:
REMARK  status: ('A' for Active; 'I' for Inactive)
REMARK    1  A    between atoms: S_2  and  C_20
REMARK    2  A    between atoms: S_2  and  C_23
REMARK    3  A    between atoms: O_3  and  C_12
REMARK    4  A    between atoms: N_7  and  C_14
REMARK    5  A    between atoms: C_10  and  C_15
REMARK    6  A    between atoms: C_14  and  C_16
REMARK    7  A    between atoms: C_17  and  C_20
REMARK    8  A    between atoms: C_29  and  C_30
REMARK                            x       y       z     vdW  Elec       q    Type
REMARK                         _______ _______ _______ _____ _____    ______ ____
ROOT
ATOM      4  O   UNL     1      -3.381   2.433  22.050  0.00  0.00    -0.336 OA
ATOM      8  N   UNL     1      -2.570   1.234  23.760  0.00  0.00    -0.193 NA
ATOM      9  N   UNL     1      -2.124   1.972  21.641  0.00  0.00    -0.060 NA
ATOM     15  C   UNL     1      -3.566   1.953  23.308  0.00  0.00    +0.245 A 
ATOM     17  C   UNL     1      -1.709   1.273  22.702  0.00  0.00    +0.193 A 
ENDROOT
BRANCH  15  10
ATOM      7  N   UNL     1      -4.979   1.761  25.349  0.00  0.00    -0.285 NA
ATOM     10  C   UNL     1      -4.873   2.316  23.984  0.00  0.00    +0.149 C 
ATOM     11  C   UNL     1      -5.051   3.835  24.161  0.00  0.00    +0.061 C 
ATOM     12  C   UNL     1      -5.297   4.032  25.651  0.00  0.00    +0.130 C 
ATOM     13  C   UNL     1      -5.823   2.684  26.105  0.00  0.00    +0.116 C 
BRANCH  12   3
ATOM      3  O   UNL     1      -6.238   5.064  25.872  0.00  0.00    -0.390 OA
ATOM     31  H   UNL     1      -6.768   5.155  25.062  0.00  0.00    +0.210 HD
ENDBRANCH  12   3
BRANCH   7  14
ATOM     14  C   UNL     1      -5.494   0.398  25.377  0.00  0.00    +0.120 C 
BRANCH  14  16
ATOM      1 CL   UNL     1      -1.197  -3.645  24.207  0.00  0.00    -0.084 Cl
ATOM     16  C   UNL     1      -4.418  -0.614  25.085  0.00  0.00    -0.033 A 
ATOM     18  C   UNL     1      -4.548  -1.473  23.994  0.00  0.00    +0.006 A 
ATOM     19  C   UNL     1      -3.293  -0.693  25.905  0.00  0.00    +0.006 A 
ATOM     21  C   UNL     1      -3.552  -2.412  23.724  0.00  0.00    +0.020 A 
ATOM     22  C   UNL     1      -2.297  -1.630  25.634  0.00  0.00    +0.020 A 
ATOM     24  C   UNL     1      -2.427  -2.490  24.544  0.00  0.00    +0.041 A 
ENDBRANCH  14  16
ENDBRANCH   7  14
ENDBRANCH  15  10
BRANCH  17  20
ATOM     20  C   UNL     1      -0.410   0.593  22.725  0.00  0.00    +0.251 C 
BRANCH  20   2
ATOM      2  S   UNL     1       0.489   1.135  24.152  0.00  0.00    +0.004 S 
ATOM      5  O   UNL     1       1.847   1.422  23.731  0.00  0.00    -0.169 OA
ATOM      6  O   UNL     1       0.236   0.206  25.237  0.00  0.00    -0.169 OA
BRANCH   2  23
ATOM     23  C   UNL     1      -0.286   2.663  24.585  0.00  0.00    +0.089 A 
ATOM     25  C   UNL     1      -1.142   2.723  25.685  0.00  0.00    +0.027 A 
ATOM     26  C   UNL     1      -0.044   3.807  23.826  0.00  0.00    +0.027 A 
ATOM     27  C   UNL     1      -1.756   3.927  26.025  0.00  0.00    +0.005 A 
ATOM     28  C   UNL     1      -0.658   5.012  24.166  0.00  0.00    +0.005 A 
ATOM     29  C   UNL     1      -1.514   5.072  25.266  0.00  0.00    -0.050 A 
ATOM     30  C   UNL     1      -2.172   6.361  25.630  0.00  0.00    +0.044 C 
ENDBRANCH   2  23
ENDBRANCH  20   2
ENDBRANCH  17  20
TORSDOF 7
ENDMDL
MODEL 7
REMARK VINA RESULT:       0.3      2.680      7.051
REMARK  Name = 26744006
REMARK  8 active torsions:
REMARK  status: ('A' for Active; 'I' for Inactive)
REMARK    1  A    between atoms: S_2  and  C_20
REMARK    2  A    between atoms: S_2  and  C_23
REMARK    3  A    between atoms: O_3  and  C_12
REMARK    4  A    between atoms: N_7  and  C_14
REMARK    5  A    between atoms: C_10  and  C_15
REMARK    6  A    between atoms: C_14  and  C_16
REMARK    7  A    between atoms: C_17  and  C_20
REMARK    8  A    between atoms: C_29  and  C_30
REMARK                            x       y       z     vdW  Elec       q    Type
REMARK                         _______ _______ _______ _____ _____    ______ ____
ROOT
ATOM      4  O   UNL     1      -0.560   0.932  26.166  0.00  0.00    -0.336 OA
ATOM      8  N   UNL     1      -0.757   2.383  24.471  0.00  0.00    -0.193 NA
ATOM      9  N   UNL     1      -0.231   2.189  26.689  0.00  0.00    -0.060 NA
ATOM     15  C   UNL     1      -0.857   1.136  24.856  0.00  0.00    +0.245 A 
ATOM     17  C   UNL     1      -0.371   2.992  25.629  0.00  0.00    +0.193 A 
ENDROOT
BRANCH  15  10
ATOM      7  N   UNL     1      -0.107  -0.980  23.780  0.00  0.00    -0.285 NA
ATOM     10  C   UNL     1      -1.252  -0.087  24.054  0.00  0.00    +0.149 C 
ATOM     11  C   UNL     1      -2.277  -0.973  24.785  0.00  0.00    +0.061 C 
ATOM     12  C   UNL     1      -1.640  -2.356  24.834  0.00  0.00    +0.130 C 
ATOM     13  C   UNL     1      -0.653  -2.333  23.681  0.00  0.00    +0.116 C 
BRANCH  12   3
ATOM      3  O   UNL     1      -2.616  -3.366  24.668  0.00  0.00    -0.390 OA
ATOM     31  H   UNL     1      -3.416  -3.079  25.141  0.00  0.00    +0.210 HD
ENDBRANCH  12   3
BRANCH   7  14
ATOM     14  C   UNL     1       0.643  -0.604  22.589  0.00  0.00    +0.120 C 
BRANCH  14  16
ATOM      1 CL   UNL     1       6.491   0.165  23.774  0.00  0.00    -0.084 Cl
ATOM     16  C   UNL     1       2.106  -0.411  22.886  0.00  0.00    -0.033 A 
ATOM     18  C   UNL     1       2.836  -1.435  23.490  0.00  0.00    +0.006 A 
ATOM     19  C   UNL     1       2.732   0.791  22.558  0.00  0.00    +0.006 A 
ATOM     21  C   UNL     1       4.191  -1.256  23.766  0.00  0.00    +0.020 A 
ATOM     22  C   UNL     1       4.088   0.970  22.833  0.00  0.00    +0.020 A 
ATOM     24  C   UNL     1       4.817  -0.054  23.437  0.00  0.00    +0.041 A 
ENDBRANCH  14  16
ENDBRANCH   7  14
ENDBRANCH  15  10
BRANCH  17  20
ATOM     20  C   UNL     1      -0.124   4.435  25.711  0.00  0.00    +0.251 C 
BRANCH  20   2
ATOM      2  S   UNL     1      -1.319   5.271  24.705  0.00  0.00    +0.004 S 
ATOM      5  O   UNL     1      -0.844   5.230  23.335  0.00  0.00    -0.169 OA
ATOM      6  O   UNL     1      -1.645   6.538  25.333  0.00  0.00    -0.169 OA
BRANCH   2  23
ATOM     23  C   UNL     1      -2.757   4.250  24.819  0.00  0.00    +0.089 A 
ATOM     25  C   UNL     1      -3.407   4.096  26.042  0.00  0.00    +0.027 A 
ATOM     26  C   UNL     1      -3.238   3.597  23.685  0.00  0.00    +0.027 A 
ATOM     27  C   UNL     1      -4.539   3.288  26.133  0.00  0.00    +0.005 A 
ATOM     28  C   UNL     1      -4.372   2.788  23.775  0.00  0.00    +0.005 A 
ATOM     29  C   UNL     1      -5.022   2.634  25.000  0.00  0.00    -0.050 A 
ATOM     30  C   UNL     1      -6.234   1.769  25.097  0.00  0.00    +0.044 C 
ENDBRANCH   2  23
ENDBRANCH  20   2
ENDBRANCH  17  20
TORSDOF 7
ENDMDL
MODEL 8
REMARK VINA RESULT:       0.7      1.463      2.098
REMARK  Name = 26744006
REMARK  8 active torsions:
REMARK  status: ('A' for Active; 'I' for Inactive)
REMARK    1  A    between atoms: S_2  and  C_20
REMARK    2  A    between atoms: S_2  and  C_23
REMARK    3  A    between atoms: O_3  and  C_12
REMARK    4  A    between atoms: N_7  and  C_14
REMARK    5  A    between atoms: C_10  and  C_15
REMARK    6  A    between atoms: C_14  and  C_16
REMARK    7  A    between atoms: C_17  and  C_20
REMARK    8  A    between atoms: C_29  and  C_30
REMARK                            x       y       z     vdW  Elec       q    Type
REMARK                         _______ _______ _______ _____ _____    ______ ____
ROOT
ATOM      4  O   UNL     1      -1.327   1.290  26.029  0.00  0.00    -0.336 OA
ATOM      8  N   UNL     1      -1.363   0.910  23.822  0.00  0.00    -0.193 NA
ATOM      9  N   UNL     1      -0.372   0.294  25.790  0.00  0.00    -0.060 NA
ATOM     15  C   UNL     1      -1.863   1.595  24.818  0.00  0.00    +0.245 A 
ATOM     17  C   UNL     1      -0.452   0.125  24.466  0.00  0.00    +0.193 A 
ENDROOT
BRANCH  15  10
ATOM      7  N   UNL     1      -4.018   2.394  25.776  0.00  0.00    -0.285 NA
ATOM     10  C   UNL     1      -2.937   2.664  24.805  0.00  0.00    +0.149 C 
ATOM     11  C   UNL     1      -2.400   4.054  25.189  0.00  0.00    +0.061 C 
ATOM     12  C   UNL     1      -3.270   4.505  26.355  0.00  0.00    +0.130 C 
ATOM     13  C   UNL     1      -4.542   3.697  26.183  0.00  0.00    +0.116 C 
BRANCH  12   3
ATOM      3  O   UNL     1      -3.519   5.896  26.288  0.00  0.00    -0.390 OA
ATOM     31  H   UNL     1      -2.909   6.270  25.629  0.00  0.00    +0.210 HD
ENDBRANCH  12   3
BRANCH   7  14
ATOM     14  C   UNL     1      -5.061   1.524  25.250  0.00  0.00    +0.120 C 
BRANCH  14  16
ATOM      1 CL   UNL     1      -3.006  -4.019  24.136  0.00  0.00    -0.084 Cl
ATOM     16  C   UNL     1      -4.546   0.137  24.970  0.00  0.00    -0.033 A 
ATOM     18  C   UNL     1      -3.950  -0.604  25.991  0.00  0.00    +0.006 A 
ATOM     19  C   UNL     1      -4.665  -0.407  23.692  0.00  0.00    +0.006 A 
ATOM     21  C   UNL     1      -3.472  -1.888  25.732  0.00  0.00    +0.020 A 
ATOM     22  C   UNL     1      -4.188  -1.692  23.433  0.00  0.00    +0.020 A 
ATOM     24  C   UNL     1      -3.591  -2.432  24.453  0.00  0.00    +0.041 A 
ENDBRANCH  14  16
ENDBRANCH   7  14
ENDBRANCH  15  10
BRANCH  17  20
ATOM     20  C   UNL     1       0.389  -0.844  23.755  0.00  0.00    +0.251 C 
BRANCH  20   2
ATOM      2  S   UNL     1       1.282   0.007  22.483  0.00  0.00    +0.004 S 
ATOM      5  O   UNL     1       0.920   1.410  22.558  0.00  0.00    -0.169 OA
ATOM      6  O   UNL     1       1.129  -0.728  21.242  0.00  0.00    -0.169 OA
BRANCH   2  23
ATOM     23  C   UNL     1       2.972  -0.151  22.975  0.00  0.00    +0.089 A 
ATOM     25  C   UNL     1       3.848   0.922  22.814  0.00  0.00    +0.027 A 
ATOM     26  C   UNL     1       3.429  -1.350  23.523  0.00  0.00    +0.027 A 
ATOM     27  C   UNL     1       5.181   0.796  23.199  0.00  0.00    +0.005 A 
ATOM     28  C   UNL     1       4.764  -1.475  23.909  0.00  0.00    +0.005 A 
ATOM     29  C   UNL     1       5.640  -0.401  23.747  0.00  0.00    -0.050 A 
ATOM     30  C   UNL     1       7.068  -0.535  24.159  0.00  0.00    +0.044 C 
ENDBRANCH   2  23
ENDBRANCH  20   2
ENDBRANCH  17  20
TORSDOF 7
ENDMDL
MODEL 9
REMARK VINA RESULT:       0.7      2.857      6.908
REMARK  Name = 26744006
REMARK  8 active torsions:
REMARK  status: ('A' for Active; 'I' for Inactive)
REMARK    1  A    between atoms: S_2  and  C_20
REMARK    2  A    between atoms: S_2  and  C_23
REMARK    3  A    between atoms: O_3  and  C_12
REMARK    4  A    between atoms: N_7  and  C_14
REMARK    5  A    between atoms: C_10  and  C_15
REMARK    6  A    between atoms: C_14  and  C_16
REMARK    7  A    between atoms: C_17  and  C_20
REMARK    8  A    between atoms: C_29  and  C_30
REMARK                            x       y       z     vdW  Elec       q    Type
REMARK                         _______ _______ _______ _____ _____    ______ ____
ROOT
ATOM      4  O   UNL     1      -4.296  -0.675  25.617  0.00  0.00    -0.336 OA
ATOM      8  N   UNL     1      -4.146   0.932  24.063  0.00  0.00    -0.193 NA
ATOM      9  N   UNL     1      -5.392   0.171  25.824  0.00  0.00    -0.060 NA
ATOM     15  C   UNL     1      -3.614  -0.155  24.562  0.00  0.00    +0.245 A 
ATOM     17  C   UNL     1      -5.235   1.093  24.870  0.00  0.00    +0.193 A 
ENDROOT
BRANCH  15  10
ATOM      7  N   UNL     1      -1.126  -0.186  24.496  0.00  0.00    -0.285 NA
ATOM     10  C   UNL     1      -2.367  -0.899  24.130  0.00  0.00    +0.149 C 
ATOM     11  C   UNL     1      -2.238  -2.282  24.794  0.00  0.00    +0.061 C 
ATOM     12  C   UNL     1      -0.873  -2.269  25.470  0.00  0.00    +0.130 C 
ATOM     13  C   UNL     1      -0.105  -1.212  24.699  0.00  0.00    +0.116 C 
BRANCH  12   3
ATOM      3  O   UNL     1      -0.255  -3.538  25.379  0.00  0.00    -0.390 OA
ATOM     31  H   UNL     1      -0.882  -4.194  25.729  0.00  0.00    +0.210 HD
ENDBRANCH  12   3
BRANCH   7  14
ATOM     14  C   UNL     1      -0.719   0.804  23.508  0.00  0.00    +0.120 C 
BRANCH  14  16
ATOM      1 CL   UNL     1       5.117   0.323  22.131  0.00  0.00    -0.084 Cl
ATOM     16  C   UNL     1       0.742   0.683  23.162  0.00  0.00    -0.033 A 
ATOM     18  C   UNL     1       1.676   1.511  23.787  0.00  0.00    +0.006 A 
ATOM     19  C   UNL     1       1.160  -0.254  22.219  0.00  0.00    +0.006 A 
ATOM     21  C   UNL     1       3.029   1.400  23.466  0.00  0.00    +0.020 A 
ATOM     22  C   UNL     1       2.513  -0.365  21.899  0.00  0.00    +0.020 A 
ATOM     24  C   UNL     1       3.447   0.462  22.522  0.00  0.00    +0.041 A 
ENDBRANCH  14  16
ENDBRANCH   7  14
ENDBRANCH  15  10
BRANCH  17  20
ATOM     20  C   UNL     1      -6.175   2.206  24.703  0.00  0.00    +0.251 C 
BRANCH  20   2
ATOM      2  S   UNL     1      -5.744   3.489  25.846  0.00  0.00    +0.004 S 
ATOM      5  O   UNL     1      -5.824   2.928  27.182  0.00  0.00    -0.169 OA
ATOM      6  O   UNL     1      -6.492   4.683  25.503  0.00  0.00    -0.169 OA
BRANCH   2  23
ATOM     23  C   UNL     1      -4.045   3.819  25.491  0.00  0.00    +0.089 A 
ATOM     25  C   UNL     1      -3.069   3.562  26.453  0.00  0.00    +0.027 A 
ATOM     26  C   UNL     1      -3.682   4.340  24.249  0.00  0.00    +0.027 A 
ATOM     27  C   UNL     1      -1.729   3.826  26.174  0.00  0.00    +0.005 A 
ATOM     28  C   UNL     1      -2.340   4.603  23.970  0.00  0.00    +0.005 A 
ATOM     29  C   UNL     1      -1.364   4.346  24.932  0.00  0.00    -0.050 A 
ATOM     30  C   UNL     1       0.071   4.628  24.634  0.00  0.00    +0.044 C 
ENDBRANCH   2  23
ENDBRANCH  20   2
ENDBRANCH  17  20
TORSDOF 7
ENDMDL
MODEL 10
REMARK VINA RESULT:       0.7      2.717      7.085
REMARK  Name = 26744006
REMARK  8 active torsions:
REMARK  status: ('A' for Active; 'I' for Inactive)
REMARK    1  A    between atoms: S_2  and  C_20
REMARK    2  A    between atoms: S_2  and  C_23
REMARK    3  A    between atoms: O_3  and  C_12
REMARK    4  A    between atoms: N_7  and  C_14
REMARK    5  A    between atoms: C_10  and  C_15
REMARK    6  A    between atoms: C_14  and  C_16
REMARK    7  A    between atoms: C_17  and  C_20
REMARK    8  A    between atoms: C_29  and  C_30
REMARK                            x       y       z     vdW  Elec       q    Type
REMARK                         _______ _______ _______ _____ _____    ______ ____
ROOT
ATOM      4  O   UNL     1      -0.315   2.277  26.157  0.00  0.00    -0.336 OA
ATOM      8  N   UNL     1      -0.621   2.963  24.047  0.00  0.00    -0.193 NA
ATOM      9  N   UNL     1      -1.208   3.354  26.223  0.00  0.00    -0.060 NA
ATOM     15  C   UNL     1      -0.020   2.113  24.840  0.00  0.00    +0.245 A 
ATOM     17  C   UNL     1      -1.339   3.704  24.939  0.00  0.00    +0.193 A 
ENDROOT
BRANCH  15  10
ATOM      7  N   UNL     1       0.261  -0.172  23.895  0.00  0.00    -0.285 NA
ATOM     10  C   UNL     1       0.941   0.993  24.497  0.00  0.00    +0.149 C 
ATOM     11  C   UNL     1       1.999   1.412  23.461  0.00  0.00    +0.061 C 
ATOM     12  C   UNL     1       1.870   0.397  22.333  0.00  0.00    +0.130 C 
ATOM     13  C   UNL     1       1.236  -0.805  23.008  0.00  0.00    +0.116 C 
BRANCH  12   3
ATOM      3  O   UNL     1       3.138   0.085  21.790  0.00  0.00    -0.390 OA
ATOM     31  H   UNL     1       3.562   0.923  21.537  0.00  0.00    +0.210 HD
ENDBRANCH  12   3
BRANCH   7  14
ATOM     14  C   UNL     1      -0.266  -1.104  24.883  0.00  0.00    +0.120 C 
BRANCH  14  16
ATOM      1 CL   UNL     1      -5.820  -2.942  23.482  0.00  0.00    -0.084 Cl
ATOM     16  C   UNL     1      -1.656  -1.565  24.533  0.00  0.00    -0.033 A 
ATOM     18  C   UNL     1      -2.644  -0.628  24.226  0.00  0.00    +0.006 A 
ATOM     19  C   UNL     1      -1.956  -2.926  24.515  0.00  0.00    +0.006 A 
ATOM     21  C   UNL     1      -3.932  -1.055  23.903  0.00  0.00    +0.020 A 
ATOM     22  C   UNL     1      -3.244  -3.353  24.191  0.00  0.00    +0.020 A 
ATOM     24  C   UNL     1      -4.232  -2.417  23.886  0.00  0.00    +0.041 A 
ENDBRANCH  14  16
ENDBRANCH   7  14
ENDBRANCH  15  10
BRANCH  17  20
ATOM     20  C   UNL     1      -2.201   4.814  24.521  0.00  0.00    +0.251 C 
BRANCH  20   2
ATOM      2  S   UNL     1      -3.505   4.170  23.511  0.00  0.00    +0.004 S 
ATOM      5  O   UNL     1      -2.919   3.193  22.611  0.00  0.00    -0.169 OA
ATOM      6  O   UNL     1      -4.277   5.281  22.989  0.00  0.00    -0.169 OA
BRANCH   2  23
ATOM     23  C   UNL     1      -4.541   3.310  24.655  0.00  0.00    +0.089 A 
ATOM     25  C   UNL     1      -4.762   3.837  25.927  0.00  0.00    +0.027 A 
ATOM     26  C   UNL     1      -5.135   2.103  24.287  0.00  0.00    +0.027 A 
ATOM     27  C   UNL     1      -5.577   3.158  26.831  0.00  0.00    +0.005 A 
ATOM     28  C   UNL     1      -5.951   1.423  25.191  0.00  0.00    +0.005 A 
ATOM     29  C   UNL     1      -6.172   1.951  26.464  0.00  0.00    -0.050 A 
ATOM     30  C   UNL     1      -7.044   1.224  27.432  0.00  0.00    +0.044 C 
ENDBRANCH   2  23
ENDBRANCH  20   2
ENDBRANCH  17  20
TORSDOF 7
ENDMDL
