MODEL 1
REMARK VINA RESULT:       6.2      0.000      0.000
REMARK  Name = 7685329
REMARK  7 active torsions:
REMARK  status: ('A' for Active; 'I' for Inactive)
REMARK    1  A    between atoms: O_3  and  C_22
REMARK    2  A    between atoms: O_3  and  C_28
REMARK    3  A    between atoms: N_7  and  C_27
REMARK    4  A    between atoms: C_15  and  C_20
REMARK    5  A    between atoms: C_17  and  C_21
REMARK    6  A    between atoms: C_21  and  C_22
REMARK    7  A    between atoms: C_29  and  C_30
REMARK                            x       y       z     vdW  Elec       q    Type
REMARK                         _______ _______ _______ _____ _____    ______ ____
ROOT
ATOM      1  O   UNL     1      -3.614   4.620  26.777  0.00  0.00    -0.268 OA
ATOM      2  O   UNL     1      -5.368  -0.207  25.610  0.00  0.00    -0.276 OA
ATOM      5  N   UNL     1      -3.925   0.528  23.944  0.00  0.00    -0.300 N 
ATOM      6  N   UNL     1      -2.868   3.353  24.955  0.00  0.00    -0.311 N 
ATOM      8  C   UNL     1      -4.419   2.778  22.997  0.00  0.00    +0.027 C 
ATOM      9  C   UNL     1      -2.105   1.948  23.014  0.00  0.00    +0.054 C 
ATOM     10  C   UNL     1      -3.134   2.715  22.186  0.00  0.00    +0.018 C 
ATOM     11  C   UNL     1      -4.940   1.363  23.303  0.00  0.00    +0.113 C 
ATOM     12  C   UNL     1      -4.150   3.577  24.273  0.00  0.00    +0.130 C 
ATOM     13  C   UNL     1      -2.619   0.516  23.272  0.00  0.00    +0.117 C 
ATOM     14  C   UNL     1      -1.810   2.653  24.342  0.00  0.00    +0.034 A 
ATOM     15  C   UNL     1      -0.594   2.600  24.944  0.00  0.00    +0.002 A 
ATOM     16  C   UNL     1      -2.729   3.985  26.204  0.00  0.00    +0.252 A 
ATOM     17  C   UNL     1      -4.262  -0.233  25.063  0.00  0.00    +0.218 C 
ATOM     18  C   UNL     1      -0.414   3.238  26.235  0.00  0.00    +0.015 A 
ATOM     19  C   UNL     1      -1.403   3.882  26.854  0.00  0.00    +0.071 A 
ENDROOT
BRANCH  15  20
ATOM     20  C   UNL     1       0.551   1.893  24.329  0.00  0.00    -0.016 A 
ATOM     23  C   UNL     1       1.604   2.625  23.786  0.00  0.00    +0.010 A 
ATOM     24  C   UNL     1       0.568   0.502  24.296  0.00  0.00    +0.010 A 
ATOM     25  C   UNL     1       2.683   1.958  23.207  0.00  0.00    +0.024 A 
ATOM     26  C   UNL     1       1.648  -0.164  23.716  0.00  0.00    +0.024 A 
ATOM     27  C   UNL     1       2.705   0.564  23.171  0.00  0.00    +0.033 A 
BRANCH  27   7
ATOM      4  O   UNL     1       5.598   0.444  23.999  0.00  0.00    -0.276 OA
ATOM      7  N   UNL     1       3.786  -0.103  22.593  0.00  0.00    -0.286 N 
ATOM     29  C   UNL     1       5.120  -0.122  23.021  0.00  0.00    +0.214 C 
ATOM     30  C   UNL     1       5.985  -0.965  22.119  0.00  0.00    +0.109 C 
ATOM     31  H   UNL     1       3.568  -0.638  21.755  0.00  0.00    +0.155 HD
ENDBRANCH  27   7
ENDBRANCH  15  20
BRANCH  17  21
ATOM     21  C   UNL     1      -3.184  -1.125  25.624  0.00  0.00    +0.124 C 
BRANCH  21  22
ATOM     22  C   UNL     1      -3.361  -2.530  25.088  0.00  0.00    +0.168 C 
BRANCH  22   3
ATOM      3  O   UNL     1      -2.215  -2.897  24.332  0.00  0.00    -0.382 OA
ATOM     28  C   UNL     1      -1.019  -2.424  24.936  0.00  0.00    +0.194 C 
ENDBRANCH  22   3
ENDBRANCH  21  22
ENDBRANCH  17  21
TORSDOF 5
ENDMDL
MODEL 2
REMARK VINA RESULT:       9.0      1.775      3.210
REMARK  Name = 7685329
REMARK  7 active torsions:
REMARK  status: ('A' for Active; 'I' for Inactive)
REMARK    1  A    between atoms: O_3  and  C_22
REMARK    2  A    between atoms: O_3  and  C_28
REMARK    3  A    between atoms: N_7  and  C_27
REMARK    4  A    between atoms: C_15  and  C_20
REMARK    5  A    between atoms: C_17  and  C_21
REMARK    6  A    between atoms: C_21  and  C_22
REMARK    7  A    between atoms: C_29  and  C_30
REMARK                            x       y       z     vdW  Elec       q    Type
REMARK                         _______ _______ _______ _____ _____    ______ ____
ROOT
ATOM      1  O   UNL     1      -5.095   1.949  24.189  0.00  0.00    -0.268 OA
ATOM      2  O   UNL     1      -3.481  -1.460  27.866  0.00  0.00    -0.276 OA
ATOM      5  N   UNL     1      -2.443  -1.939  25.843  0.00  0.00    -0.300 N 
ATOM      6  N   UNL     1      -3.425   0.342  23.853  0.00  0.00    -0.311 N 
ATOM      8  C   UNL     1      -3.954  -2.166  23.877  0.00  0.00    +0.027 C 
ATOM      9  C   UNL     1      -1.640  -1.403  23.549  0.00  0.00    +0.054 C 
ATOM     10  C   UNL     1      -2.744  -2.284  22.964  0.00  0.00    +0.018 C 
ATOM     11  C   UNL     1      -3.610  -2.634  25.301  0.00  0.00    +0.113 C 
ATOM     12  C   UNL     1      -4.444  -0.718  23.852  0.00  0.00    +0.130 C 
ATOM     13  C   UNL     1      -1.272  -1.913  24.958  0.00  0.00    +0.117 C 
ATOM     14  C   UNL     1      -2.065   0.067  23.611  0.00  0.00    +0.034 A 
ATOM     15  C   UNL     1      -1.182   1.090  23.469  0.00  0.00    +0.002 A 
ATOM     16  C   UNL     1      -3.916   1.652  23.991  0.00  0.00    +0.252 A 
ATOM     17  C   UNL     1      -2.485  -1.426  27.140  0.00  0.00    +0.218 C 
ATOM     18  C   UNL     1      -1.652   2.456  23.609  0.00  0.00    +0.015 A 
ATOM     19  C   UNL     1      -2.927   2.747  23.867  0.00  0.00    +0.071 A 
ENDROOT
BRANCH  15  20
ATOM     20  C   UNL     1       0.252   0.851  23.195  0.00  0.00    -0.016 A 
ATOM     23  C   UNL     1       1.213   1.669  23.782  0.00  0.00    +0.010 A 
ATOM     24  C   UNL     1       0.630  -0.190  22.352  0.00  0.00    +0.010 A 
ATOM     25  C   UNL     1       2.564   1.443  23.523  0.00  0.00    +0.024 A 
ATOM     26  C   UNL     1       1.982  -0.415  22.093  0.00  0.00    +0.024 A 
ATOM     27  C   UNL     1       2.949   0.402  22.679  0.00  0.00    +0.033 A 
BRANCH  27   7
ATOM      4  O   UNL     1       5.224  -0.195  24.560  0.00  0.00    -0.276 OA
ATOM      7  N   UNL     1       4.302   0.175  22.422  0.00  0.00    -0.286 N 
ATOM     29  C   UNL     1       5.323  -0.098  23.341  0.00  0.00    +0.214 C 
ATOM     30  C   UNL     1       6.656  -0.282  22.659  0.00  0.00    +0.109 C 
ATOM     31  H   UNL     1       4.570   0.216  21.440  0.00  0.00    +0.155 HD
ENDBRANCH  27   7
ENDBRANCH  15  20
BRANCH  17  21
ATOM     21  C   UNL     1      -1.219  -0.789  27.655  0.00  0.00    +0.124 C 
BRANCH  21  22
ATOM     22  C   UNL     1      -0.632   0.106  26.585  0.00  0.00    +0.168 C 
BRANCH  22   3
ATOM      3  O   UNL     1      -1.037   1.449  26.814  0.00  0.00    -0.382 OA
ATOM     28  C   UNL     1       0.064   2.345  26.744  0.00  0.00    +0.194 C 
ENDBRANCH  22   3
ENDBRANCH  21  22
ENDBRANCH  17  21
TORSDOF 5
ENDMDL
MODEL 3
REMARK VINA RESULT:      10.0      1.629      3.444
REMARK  Name = 7685329
REMARK  7 active torsions:
REMARK  status: ('A' for Active; 'I' for Inactive)
REMARK    1  A    between atoms: O_3  and  C_22
REMARK    2  A    between atoms: O_3  and  C_28
REMARK    3  A    between atoms: N_7  and  C_27
REMARK    4  A    between atoms: C_15  and  C_20
REMARK    5  A    between atoms: C_17  and  C_21
REMARK    6  A    between atoms: C_21  and  C_22
REMARK    7  A    between atoms: C_29  and  C_30
REMARK                            x       y       z     vdW  Elec       q    Type
REMARK                         _______ _______ _______ _____ _____    ______ ____
ROOT
ATOM      1  O   UNL     1      -4.961   0.092  26.227  0.00  0.00    -0.268 OA
ATOM      2  O   UNL     1      -4.742   3.666  22.364  0.00  0.00    -0.276 OA
ATOM      5  N   UNL     1      -2.750   3.681  23.560  0.00  0.00    -0.300 N 
ATOM      6  N   UNL     1      -3.053   1.339  25.693  0.00  0.00    -0.311 N 
ATOM      8  C   UNL     1      -2.972   3.879  26.033  0.00  0.00    +0.027 C 
ATOM      9  C   UNL     1      -1.034   2.707  25.077  0.00  0.00    +0.054 C 
ATOM     10  C   UNL     1      -1.474   3.667  26.182  0.00  0.00    +0.018 C 
ATOM     11  C   UNL     1      -3.304   4.477  24.655  0.00  0.00    +0.113 C 
ATOM     12  C   UNL     1      -3.678   2.542  26.261  0.00  0.00    +0.130 C 
ATOM     13  C   UNL     1      -1.328   3.339  23.701  0.00  0.00    +0.117 C 
ATOM     14  C   UNL     1      -1.734   1.350  25.198  0.00  0.00    +0.034 A 
ATOM     15  C   UNL     1      -1.142   0.186  24.823  0.00  0.00    +0.002 A 
ATOM     16  C   UNL     1      -3.812   0.160  25.789  0.00  0.00    +0.252 A 
ATOM     17  C   UNL     1      -3.549   3.368  22.460  0.00  0.00    +0.218 C 
ATOM     18  C   UNL     1      -1.897  -1.051  24.905  0.00  0.00    +0.015 A 
ATOM     19  C   UNL     1      -3.156  -1.089  25.342  0.00  0.00    +0.071 A 
ENDROOT
BRANCH  15  20
ATOM     20  C   UNL     1       0.247   0.145  24.315  0.00  0.00    -0.016 A 
ATOM     23  C   UNL     1       0.866  -1.082  24.098  0.00  0.00    +0.010 A 
ATOM     24  C   UNL     1       0.924   1.333  24.058  0.00  0.00    +0.010 A 
ATOM     25  C   UNL     1       2.176  -1.120  23.620  0.00  0.00    +0.024 A 
ATOM     26  C   UNL     1       2.234   1.294  23.579  0.00  0.00    +0.024 A 
ATOM     27  C   UNL     1       2.859   0.067  23.360  0.00  0.00    +0.033 A 
BRANCH  27   7
ATOM      4  O   UNL     1       5.436  -0.615  24.760  0.00  0.00    -0.276 OA
ATOM      7  N   UNL     1       4.169   0.028  22.879  0.00  0.00    -0.286 N 
ATOM     29  C   UNL     1       5.338  -0.296  23.580  0.00  0.00    +0.214 C 
ATOM     30  C   UNL     1       6.558  -0.221  22.696  0.00  0.00    +0.109 C 
ATOM     31  H   UNL     1       4.278   0.268  21.895  0.00  0.00    +0.155 HD
ENDBRANCH  27   7
ENDBRANCH  15  20
BRANCH  17  21
ATOM     21  C   UNL     1      -2.886   2.608  21.339  0.00  0.00    +0.124 C 
BRANCH  21  22
ATOM     22  C   UNL     1      -2.607   1.189  21.785  0.00  0.00    +0.168 C 
BRANCH  22   3
ATOM      3  O   UNL     1      -3.643   0.752  22.654  0.00  0.00    -0.382 OA
ATOM     28  C   UNL     1      -3.777  -0.663  22.635  0.00  0.00    +0.194 C 
ENDBRANCH  22   3
ENDBRANCH  21  22
ENDBRANCH  17  21
TORSDOF 5
ENDMDL
