MODEL 1
REMARK VINA RESULT:      -0.7      0.000      0.000
REMARK  Name = 11941657
REMARK  7 active torsions:
REMARK  status: ('A' for Active; 'I' for Inactive)
REMARK    1  A    between atoms: O_4  and  C_32
REMARK    2  A    between atoms: O_4  and  C_34
REMARK    3  A    between atoms: N_5  and  C_12
REMARK    4  A    between atoms: N_6  and  C_13
REMARK    5  A    between atoms: N_7  and  C_18
REMARK    6  A    between atoms: C_18  and  C_22
REMARK    7  A    between atoms: C_19  and  C_23
REMARK                            x       y       z     vdW  Elec       q    Type
REMARK                         _______ _______ _______ _____ _____    ______ ____
ROOT
ATOM      1  O   UNL     1      -2.450   3.380  27.055  0.00  0.00    -0.370 OA
ATOM      2  O   UNL     1      -1.072   4.258  24.397  0.00  0.00    -0.370 OA
ATOM     10  C   UNL     1      -2.361   3.698  24.699  0.00  0.00    +0.171 C 
ATOM     11  C   UNL     1      -2.166   2.699  25.822  0.00  0.00    +0.171 C 
ATOM     12  C   UNL     1      -3.264   4.752  25.295  0.00  0.00    +0.130 C 
ATOM     13  C   UNL     1      -0.698   2.342  25.746  0.00  0.00    +0.131 C 
ATOM     14  C   UNL     1      -2.894   4.714  26.767  0.00  0.00    +0.185 C 
ATOM     15  C   UNL     1      -0.080   3.623  25.216  0.00  0.00    +0.185 C 
ENDROOT
BRANCH  12   5
ATOM      5  N   UNL     1      -4.650   4.376  25.118  0.00  0.00    -0.306 N 
ATOM      8  N   UNL     1      -4.125   2.116  25.046  0.00  0.00    -0.214 NA
ATOM      9  N   UNL     1      -6.402   2.878  24.839  0.00  0.00    -0.223 NA
ATOM     16  C   UNL     1      -5.078   3.066  24.996  0.00  0.00    +0.216 A 
ATOM     19  C   UNL     1      -4.577   0.850  24.923  0.00  0.00    +0.076 A 
ATOM     20  C   UNL     1      -6.783   1.588  24.723  0.00  0.00    +0.116 A 
ATOM     21  C   UNL     1      -5.908   0.524  24.758  0.00  0.00    +0.048 A 
ATOM     35  H   UNL     1      -5.367   5.092  25.135  0.00  0.00    +0.149 HD
BRANCH  19  23
ATOM     23  C   UNL     1      -3.558  -0.172  24.978  0.00  0.00    +0.001 A 
ATOM     26  C   UNL     1      -3.190  -0.849  23.815  0.00  0.00    +0.013 A 
ATOM     27  C   UNL     1      -2.946  -0.484  26.191  0.00  0.00    +0.013 A 
ATOM     30  C   UNL     1      -2.207  -1.839  23.867  0.00  0.00    +0.046 A 
ATOM     31  C   UNL     1      -1.963  -1.472  26.242  0.00  0.00    +0.046 A 
ATOM     32  C   UNL     1      -1.594  -2.150  25.080  0.00  0.00    +0.120 A 
BRANCH  32   4
ATOM      4  O   UNL     1      -0.634  -3.113  25.129  0.00  0.00    -0.495 OA
ATOM     34  C   UNL     1       0.687  -2.698  25.476  0.00  0.00    +0.277 C 
ENDBRANCH  32   4
ENDBRANCH  19  23
ENDBRANCH  12   5
BRANCH  13   6
ATOM      3  O   UNL     1       1.472   2.046  23.867  0.00  0.00    -0.253 OA
ATOM      6  N   UNL     1      -0.476   1.241  24.841  0.00  0.00    -0.292 N 
ATOM      7  N   UNL     1       0.577   0.010  23.206  0.00  0.00    -0.295 N 
ATOM     17  C   UNL     1       0.605   1.179  23.963  0.00  0.00    +0.300 C 
ATOM     36  H   UNL     1      -1.099   0.440  24.890  0.00  0.00    +0.151 HD
ATOM     37  H   UNL     1      -0.168  -0.660  23.371  0.00  0.00    +0.151 HD
BRANCH   7  18
ATOM     18  C   UNL     1       1.581  -0.307  22.217  0.00  0.00    +0.141 C 
BRANCH  18  22
ATOM     22  C   UNL     1       2.966  -0.281  22.796  0.00  0.00    -0.030 A 
ATOM     24  C   UNL     1       3.768   0.850  22.637  0.00  0.00    +0.005 A 
ATOM     25  C   UNL     1       3.453  -1.387  23.490  0.00  0.00    +0.005 A 
ATOM     28  C   UNL     1       5.054   0.874  23.173  0.00  0.00    +0.000 A 
ATOM     29  C   UNL     1       4.740  -1.364  24.027  0.00  0.00    +0.000 A 
ATOM     33  C   UNL     1       5.541  -0.233  23.868  0.00  0.00    +0.000 A 
ENDBRANCH  18  22
ENDBRANCH   7  18
ENDBRANCH  13   6
TORSDOF 6
ENDMDL
MODEL 2
REMARK VINA RESULT:       0.9      2.103      4.274
REMARK  Name = 11941657
REMARK  7 active torsions:
REMARK  status: ('A' for Active; 'I' for Inactive)
REMARK    1  A    between atoms: O_4  and  C_32
REMARK    2  A    between atoms: O_4  and  C_34
REMARK    3  A    between atoms: N_5  and  C_12
REMARK    4  A    between atoms: N_6  and  C_13
REMARK    5  A    between atoms: N_7  and  C_18
REMARK    6  A    between atoms: C_18  and  C_22
REMARK    7  A    between atoms: C_19  and  C_23
REMARK                            x       y       z     vdW  Elec       q    Type
REMARK                         _______ _______ _______ _____ _____    ______ ____
ROOT
ATOM      1  O   UNL     1      -4.478  -1.420  23.466  0.00  0.00    -0.370 OA
ATOM      2  O   UNL     1      -3.317  -1.086  26.343  0.00  0.00    -0.370 OA
ATOM     10  C   UNL     1      -3.503  -0.177  25.245  0.00  0.00    +0.171 C 
ATOM     11  C   UNL     1      -3.219  -0.946  23.970  0.00  0.00    +0.171 C 
ATOM     12  C   UNL     1      -4.958   0.211  25.126  0.00  0.00    +0.130 C 
ATOM     13  C   UNL     1      -2.365  -2.109  24.425  0.00  0.00    +0.131 C 
ATOM     14  C   UNL     1      -5.538  -0.921  24.297  0.00  0.00    +0.185 C 
ATOM     15  C   UNL     1      -2.872  -2.353  25.835  0.00  0.00    +0.185 C 
ENDROOT
BRANCH  12   5
ATOM      5  N   UNL     1      -5.080   1.465  24.415  0.00  0.00    -0.306 N 
ATOM      8  N   UNL     1      -3.084   2.263  25.289  0.00  0.00    -0.214 NA
ATOM      9  N   UNL     1      -4.404   3.590  23.771  0.00  0.00    -0.223 NA
ATOM     16  C   UNL     1      -4.149   2.484  24.495  0.00  0.00    +0.216 A 
ATOM     19  C   UNL     1      -2.196   3.278  25.345  0.00  0.00    +0.076 A 
ATOM     20  C   UNL     1      -3.474   4.563  23.872  0.00  0.00    +0.116 A 
ATOM     21  C   UNL     1      -2.340   4.463  24.651  0.00  0.00    +0.048 A 
ATOM     35  H   UNL     1      -5.857   1.602  23.778  0.00  0.00    +0.149 HD
BRANCH  19  23
ATOM     23  C   UNL     1      -1.052   3.045  26.194  0.00  0.00    +0.001 A 
ATOM     26  C   UNL     1       0.218   2.914  25.631  0.00  0.00    +0.013 A 
ATOM     27  C   UNL     1      -1.216   2.949  27.576  0.00  0.00    +0.013 A 
ATOM     30  C   UNL     1       1.324   2.687  26.451  0.00  0.00    +0.046 A 
ATOM     31  C   UNL     1      -0.110   2.723  28.396  0.00  0.00    +0.046 A 
ATOM     32  C   UNL     1       1.159   2.592  27.833  0.00  0.00    +0.120 A 
BRANCH  32   4
ATOM      4  O   UNL     1       2.239   2.373  28.632  0.00  0.00    -0.495 OA
ATOM     34  C   UNL     1       1.991   2.202  30.027  0.00  0.00    +0.277 C 
ENDBRANCH  32   4
ENDBRANCH  19  23
ENDBRANCH  12   5
BRANCH  13   6
ATOM      3  O   UNL     1      -1.045  -0.209  22.699  0.00  0.00    -0.253 OA
ATOM      6  N   UNL     1      -0.965  -1.760  24.426  0.00  0.00    -0.292 N 
ATOM      7  N   UNL     1       0.959  -0.681  23.770  0.00  0.00    -0.295 N 
ATOM     17  C   UNL     1      -0.410  -0.826  23.554  0.00  0.00    +0.300 C 
ATOM     36  H   UNL     1      -0.366  -2.164  25.140  0.00  0.00    +0.151 HD
ATOM     37  H   UNL     1       1.394  -1.218  24.514  0.00  0.00    +0.151 HD
BRANCH   7  18
ATOM     18  C   UNL     1       1.782   0.223  23.002  0.00  0.00    +0.141 C 
BRANCH  18  22
ATOM     22  C   UNL     1       3.245  -0.003  23.249  0.00  0.00    -0.030 A 
ATOM     24  C   UNL     1       4.161   1.020  22.999  0.00  0.00    +0.005 A 
ATOM     25  C   UNL     1       3.691  -1.235  23.727  0.00  0.00    +0.005 A 
ATOM     28  C   UNL     1       5.520   0.810  23.227  0.00  0.00    +0.000 A 
ATOM     29  C   UNL     1       5.050  -1.444  23.956  0.00  0.00    +0.000 A 
ATOM     33  C   UNL     1       5.965  -0.422  23.706  0.00  0.00    +0.000 A 
ENDBRANCH  18  22
ENDBRANCH   7  18
ENDBRANCH  13   6
TORSDOF 6
ENDMDL
