MODEL 1
REMARK VINA RESULT:      -6.3      0.000      0.000
REMARK  Name = 75367100
REMARK  8 active torsions:
REMARK  status: ('A' for Active; 'I' for Inactive)
REMARK    1  A    between atoms: O_2  and  C_9
REMARK    2  A    between atoms: N_4  and  C_7
REMARK    3  A    between atoms: N_4  and  C_8
REMARK    4  A    between atoms: N_5  and  C_16
REMARK    5  A    between atoms: N_6  and  C_18
REMARK    6  A    between atoms: C_12  and  C_16
REMARK    7  A    between atoms: C_18  and  C_19
REMARK    8  A    between atoms: C_18  and  C_20
REMARK                            x       y       z     vdW  Elec       q    Type
REMARK                         _______ _______ _______ _____ _____    ______ ____
ROOT
ATOM      1  O   UNL     1      -2.213   2.770  23.232  0.00  0.00    -0.371 OA
ATOM      8  C   UNL     1      -4.181   1.900  24.237  0.00  0.00    +0.111 C 
ATOM      9  C   UNL     1      -3.328   2.555  25.307  0.00  0.00    +0.164 C 
ATOM     12  C   UNL     1      -2.453   3.471  24.463  0.00  0.00    +0.165 C 
ATOM     15  C   UNL     1      -3.166   1.698  23.124  0.00  0.00    +0.181 C 
ENDROOT
BRANCH   9   2
ATOM      2  O   UNL     1      -4.094   3.279  26.250  0.00  0.00    -0.388 OA
ATOM     22  H   UNL     1      -4.998   3.371  25.903  0.00  0.00    +0.210 HD
ENDBRANCH   9   2
BRANCH   8   4
ATOM      4  N   UNL     1      -4.804   0.659  24.667  0.00  0.00    -0.306 NA
ATOM     21  H   UNL     1      -5.644   0.478  24.117  0.00  0.00    +0.123 HD
BRANCH   4   7
ATOM      7  C   UNL     1      -3.881  -0.456  24.553  0.00  0.00    +0.054 C 
ATOM     10  C   UNL     1      -3.517  -1.060  25.903  0.00  0.00    +0.019 C 
ATOM     11  C   UNL     1      -4.484  -1.647  23.816  0.00  0.00    +0.019 C 
ATOM     13  C   UNL     1      -2.945  -2.430  25.543  0.00  0.00    +0.002 C 
ATOM     14  C   UNL     1      -3.570  -2.807  24.198  0.00  0.00    +0.002 C 
ENDBRANCH   4   7
ENDBRANCH   8   4
BRANCH  12  16
ATOM     16  C   UNL     1      -1.130   3.815  25.125  0.00  0.00    +0.140 C 
BRANCH  16   5
ATOM      3  O   UNL     1      -0.095   1.123  25.033  0.00  0.00    -0.253 OA
ATOM      5  N   UNL     1      -0.020   3.342  24.349  0.00  0.00    -0.297 N 
ATOM      6  N   UNL     1       1.514   1.831  23.518  0.00  0.00    -0.297 N 
ATOM     17  C   UNL     1       0.421   2.015  24.361  0.00  0.00    +0.300 C 
ATOM     23  H   UNL     1       0.481   4.010  23.772  0.00  0.00    +0.150 HD
ATOM     24  H   UNL     1       1.820   2.612  22.947  0.00  0.00    +0.150 HD
BRANCH   6  18
ATOM     18  C   UNL     1       2.162   0.551  23.345  0.00  0.00    +0.068 C 
ATOM     19  C   UNL     1       3.577   0.743  22.815  0.00  0.00    +0.027 C 
ATOM     20  C   UNL     1       1.344  -0.343  22.425  0.00  0.00    +0.027 C 
ENDBRANCH   6  18
ENDBRANCH  16   5
ENDBRANCH  12  16
TORSDOF 6
ENDMDL
MODEL 2
REMARK VINA RESULT:      -5.6      2.090      4.450
REMARK  Name = 75367100
REMARK  8 active torsions:
REMARK  status: ('A' for Active; 'I' for Inactive)
REMARK    1  A    between atoms: O_2  and  C_9
REMARK    2  A    between atoms: N_4  and  C_7
REMARK    3  A    between atoms: N_4  and  C_8
REMARK    4  A    between atoms: N_5  and  C_16
REMARK    5  A    between atoms: N_6  and  C_18
REMARK    6  A    between atoms: C_12  and  C_16
REMARK    7  A    between atoms: C_18  and  C_19
REMARK    8  A    between atoms: C_18  and  C_20
REMARK                            x       y       z     vdW  Elec       q    Type
REMARK                         _______ _______ _______ _____ _____    ______ ____
ROOT
ATOM      1  O   UNL     1      -0.183   3.209  23.521  0.00  0.00    -0.371 OA
ATOM      8  C   UNL     1      -1.248   3.739  25.577  0.00  0.00    +0.111 C 
ATOM      9  C   UNL     1      -0.665   2.341  25.668  0.00  0.00    +0.164 C 
ATOM     12  C   UNL     1       0.376   2.386  24.557  0.00  0.00    +0.165 C 
ATOM     15  C   UNL     1      -1.284   3.953  24.072  0.00  0.00    +0.181 C 
ENDROOT
BRANCH   9   2
ATOM      2  O   UNL     1      -0.080   2.075  26.927  0.00  0.00    -0.388 OA
ATOM     22  H   UNL     1       0.865   1.890  26.793  0.00  0.00    +0.210 HD
ENDBRANCH   9   2
BRANCH   8   4
ATOM      4  N   UNL     1      -2.556   3.867  26.198  0.00  0.00    -0.306 NA
ATOM     21  H   UNL     1      -2.751   4.845  26.408  0.00  0.00    +0.123 HD
BRANCH   4   7
ATOM      7  C   UNL     1      -3.595   3.320  25.345  0.00  0.00    +0.054 C 
ATOM     10  C   UNL     1      -3.538   1.801  25.246  0.00  0.00    +0.019 C 
ATOM     11  C   UNL     1      -4.996   3.557  25.899  0.00  0.00    +0.019 C 
ATOM     13  C   UNL     1      -4.919   1.422  24.716  0.00  0.00    +0.002 C 
ATOM     14  C   UNL     1      -5.858   2.554  25.138  0.00  0.00    +0.002 C 
ENDBRANCH   4   7
ENDBRANCH   8   4
BRANCH  12  16
ATOM     16  C   UNL     1       0.714   1.015  23.997  0.00  0.00    +0.140 C 
BRANCH  16   5
ATOM      3  O   UNL     1      -0.515  -0.962  25.703  0.00  0.00    -0.253 OA
ATOM      5  N   UNL     1      -0.472   0.255  23.725  0.00  0.00    -0.297 N 
ATOM      6  N   UNL     1      -2.157  -1.278  24.095  0.00  0.00    -0.297 N 
ATOM     17  C   UNL     1      -1.005  -0.688  24.608  0.00  0.00    +0.300 C 
ATOM     23  H   UNL     1      -0.941   0.401  22.836  0.00  0.00    +0.150 HD
ATOM     24  H   UNL     1      -2.526  -0.931  23.215  0.00  0.00    +0.150 HD
BRANCH   6  18
ATOM     18  C   UNL     1      -2.905  -2.286  24.809  0.00  0.00    +0.068 C 
ATOM     19  C   UNL     1      -4.027  -2.831  23.934  0.00  0.00    +0.027 C 
ATOM     20  C   UNL     1      -3.446  -1.725  26.117  0.00  0.00    +0.027 C 
ENDBRANCH   6  18
ENDBRANCH  16   5
ENDBRANCH  12  16
TORSDOF 6
ENDMDL
MODEL 3
REMARK VINA RESULT:      -5.5      2.161      5.987
REMARK  Name = 75367100
REMARK  8 active torsions:
REMARK  status: ('A' for Active; 'I' for Inactive)
REMARK    1  A    between atoms: O_2  and  C_9
REMARK    2  A    between atoms: N_4  and  C_7
REMARK    3  A    between atoms: N_4  and  C_8
REMARK    4  A    between atoms: N_5  and  C_16
REMARK    5  A    between atoms: N_6  and  C_18
REMARK    6  A    between atoms: C_12  and  C_16
REMARK    7  A    between atoms: C_18  and  C_19
REMARK    8  A    between atoms: C_18  and  C_20
REMARK                            x       y       z     vdW  Elec       q    Type
REMARK                         _______ _______ _______ _____ _____    ______ ____
ROOT
ATOM      1  O   UNL     1      -1.114  -1.916  23.472  0.00  0.00    -0.371 OA
ATOM      8  C   UNL     1       0.086  -0.291  24.722  0.00  0.00    +0.111 C 
ATOM      9  C   UNL     1      -1.173  -0.669  25.481  0.00  0.00    +0.164 C 
ATOM     12  C   UNL     1      -1.500  -2.017  24.852  0.00  0.00    +0.165 C 
ATOM     15  C   UNL     1      -0.252  -0.775  23.320  0.00  0.00    +0.181 C 
ENDROOT
BRANCH   9   2
ATOM      2  O   UNL     1      -0.958  -0.776  26.875  0.00  0.00    -0.388 OA
ATOM     22  H   UNL     1      -1.653  -1.344  27.249  0.00  0.00    +0.210 HD
ENDBRANCH   9   2
BRANCH   8   4
ATOM      4  N   UNL     1       0.393   1.129  24.772  0.00  0.00    -0.306 NA
ATOM     21  H   UNL     1       0.819   1.428  23.896  0.00  0.00    +0.123 HD
BRANCH   4   7
ATOM      7  C   UNL     1      -0.799   1.912  25.043  0.00  0.00    +0.054 C 
ATOM     10  C   UNL     1      -0.537   3.077  25.989  0.00  0.00    +0.019 C 
ATOM     11  C   UNL     1      -1.335   2.616  23.801  0.00  0.00    +0.019 C 
ATOM     13  C   UNL     1      -1.741   3.991  25.779  0.00  0.00    +0.002 C 
ATOM     14  C   UNL     1      -2.255   3.694  24.368  0.00  0.00    +0.002 C 
ENDBRANCH   4   7
ENDBRANCH   8   4
BRANCH  12  16
ATOM     16  C   UNL     1      -2.971  -2.382  24.949  0.00  0.00    +0.140 C 
BRANCH  16   5
ATOM      3  O   UNL     1      -3.862  -0.023  23.546  0.00  0.00    -0.253 OA
ATOM      5  N   UNL     1      -3.744  -1.298  25.484  0.00  0.00    -0.297 N 
ATOM      6  N   UNL     1      -4.876   0.713  25.499  0.00  0.00    -0.297 N 
ATOM     17  C   UNL     1      -4.136  -0.186  24.734  0.00  0.00    +0.300 C 
ATOM     23  H   UNL     1      -4.006  -1.335  26.464  0.00  0.00    +0.150 HD
ATOM     24  H   UNL     1      -5.114   0.454  26.451  0.00  0.00    +0.150 HD
BRANCH   6  18
ATOM     18  C   UNL     1      -5.403   1.947  24.964  0.00  0.00    +0.068 C 
ATOM     19  C   UNL     1      -5.264   3.068  25.986  0.00  0.00    +0.027 C 
ATOM     20  C   UNL     1      -6.853   1.767  24.535  0.00  0.00    +0.027 C 
ENDBRANCH   6  18
ENDBRANCH  16   5
ENDBRANCH  12  16
TORSDOF 6
ENDMDL
MODEL 4
REMARK VINA RESULT:      -5.5      2.093      4.879
REMARK  Name = 75367100
REMARK  8 active torsions:
REMARK  status: ('A' for Active; 'I' for Inactive)
REMARK    1  A    between atoms: O_2  and  C_9
REMARK    2  A    between atoms: N_4  and  C_7
REMARK    3  A    between atoms: N_4  and  C_8
REMARK    4  A    between atoms: N_5  and  C_16
REMARK    5  A    between atoms: N_6  and  C_18
REMARK    6  A    between atoms: C_12  and  C_16
REMARK    7  A    between atoms: C_18  and  C_19
REMARK    8  A    between atoms: C_18  and  C_20
REMARK                            x       y       z     vdW  Elec       q    Type
REMARK                         _______ _______ _______ _____ _____    ______ ____
ROOT
ATOM      1  O   UNL     1      -0.617   1.666  26.134  0.00  0.00    -0.371 OA
ATOM      8  C   UNL     1      -0.085  -0.194  24.757  0.00  0.00    +0.111 C 
ATOM      9  C   UNL     1      -0.017   1.072  23.925  0.00  0.00    +0.164 C 
ATOM     12  C   UNL     1       0.150   2.127  25.011  0.00  0.00    +0.165 C 
ATOM     15  C   UNL     1      -0.910   0.270  25.946  0.00  0.00    +0.181 C 
ENDROOT
BRANCH   9   2
ATOM      2  O   UNL     1       1.068   1.073  23.018  0.00  0.00    -0.388 OA
ATOM     22  H   UNL     1       1.563   1.902  23.132  0.00  0.00    +0.210 HD
ENDBRANCH   9   2
BRANCH   8   4
ATOM      4  N   UNL     1      -0.683  -1.320  24.058  0.00  0.00    -0.306 NA
ATOM     21  H   UNL     1      -0.118  -2.157  24.190  0.00  0.00    +0.123 HD
BRANCH   4   7
ATOM      7  C   UNL     1      -2.041  -1.556  24.514  0.00  0.00    +0.054 C 
ATOM     10  C   UNL     1      -3.072  -0.736  23.748  0.00  0.00    +0.019 C 
ATOM     11  C   UNL     1      -2.507  -2.985  24.260  0.00  0.00    +0.019 C 
ATOM     13  C   UNL     1      -4.391  -1.445  24.048  0.00  0.00    +0.002 C 
ATOM     14  C   UNL     1      -4.026  -2.895  24.377  0.00  0.00    +0.002 C 
ENDBRANCH   4   7
ENDBRANCH   8   4
BRANCH  12  16
ATOM     16  C   UNL     1      -0.333   3.504  24.589  0.00  0.00    +0.140 C 
BRANCH  16   5
ATOM      3  O   UNL     1      -2.951   2.701  23.678  0.00  0.00    -0.253 OA
ATOM      5  N   UNL     1      -1.594   3.822  25.195  0.00  0.00    -0.297 N 
ATOM      6  N   UNL     1      -3.885   3.844  25.469  0.00  0.00    -0.297 N 
ATOM     17  C   UNL     1      -2.824   3.393  24.688  0.00  0.00    +0.300 C 
ATOM     23  H   UNL     1      -1.593   4.403  26.027  0.00  0.00    +0.150 HD
ATOM     24  H   UNL     1      -3.674   4.345  26.325  0.00  0.00    +0.150 HD
BRANCH   6  18
ATOM     18  C   UNL     1      -5.264   3.540  25.165  0.00  0.00    +0.068 C 
ATOM     19  C   UNL     1      -6.171   4.669  25.638  0.00  0.00    +0.027 C 
ATOM     20  C   UNL     1      -5.668   2.210  25.787  0.00  0.00    +0.027 C 
ENDBRANCH   6  18
ENDBRANCH  16   5
ENDBRANCH  12  16
TORSDOF 6
ENDMDL
MODEL 5
REMARK VINA RESULT:      -4.9      2.283      4.995
REMARK  Name = 75367100
REMARK  8 active torsions:
REMARK  status: ('A' for Active; 'I' for Inactive)
REMARK    1  A    between atoms: O_2  and  C_9
REMARK    2  A    between atoms: N_4  and  C_7
REMARK    3  A    between atoms: N_4  and  C_8
REMARK    4  A    between atoms: N_5  and  C_16
REMARK    5  A    between atoms: N_6  and  C_18
REMARK    6  A    between atoms: C_12  and  C_16
REMARK    7  A    between atoms: C_18  and  C_19
REMARK    8  A    between atoms: C_18  and  C_20
REMARK                            x       y       z     vdW  Elec       q    Type
REMARK                         _______ _______ _______ _____ _____    ______ ____
ROOT
ATOM      1  O   UNL     1      -0.122   3.541  25.813  0.00  0.00    -0.371 OA
ATOM      8  C   UNL     1      -0.206   1.273  25.114  0.00  0.00    +0.111 C 
ATOM      9  C   UNL     1      -1.380   2.020  24.509  0.00  0.00    +0.164 C 
ATOM     12  C   UNL     1      -0.889   3.459  24.601  0.00  0.00    +0.165 C 
ATOM     15  C   UNL     1       0.195   2.206  26.245  0.00  0.00    +0.181 C 
ENDROOT
BRANCH   9   2
ATOM      2  O   UNL     1      -1.642   1.637  23.174  0.00  0.00    -0.388 OA
ATOM     22  H   UNL     1      -2.586   1.782  22.993  0.00  0.00    +0.210 HD
ENDBRANCH   9   2
BRANCH   8   4
ATOM      4  N   UNL     1      -0.541  -0.064  25.575  0.00  0.00    -0.306 NA
ATOM     21  H   UNL     1      -0.707  -0.058  26.581  0.00  0.00    +0.123 HD
BRANCH   4   7
ATOM      7  C   UNL     1      -1.704  -0.582  24.878  0.00  0.00    +0.054 C 
ATOM     10  C   UNL     1      -1.581  -2.063  24.544  0.00  0.00    +0.019 C 
ATOM     11  C   UNL     1      -2.967  -0.545  25.732  0.00  0.00    +0.019 C 
ATOM     13  C   UNL     1      -3.019  -2.488  24.253  0.00  0.00    +0.002 C 
ATOM     14  C   UNL     1      -3.911  -1.509  25.020  0.00  0.00    +0.002 C 
ENDBRANCH   4   7
ENDBRANCH   8   4
BRANCH  12  16
ATOM     16  C   UNL     1      -2.016   4.476  24.636  0.00  0.00    +0.140 C 
BRANCH  16   5
ATOM      3  O   UNL     1      -4.375   3.013  23.846  0.00  0.00    -0.253 OA
ATOM      5  N   UNL     1      -3.087   4.039  25.486  0.00  0.00    -0.297 N 
ATOM      6  N   UNL     1      -5.085   3.033  26.056  0.00  0.00    -0.297 N 
ATOM     17  C   UNL     1      -4.201   3.332  25.022  0.00  0.00    +0.300 C 
ATOM     23  H   UNL     1      -3.040   4.268  26.473  0.00  0.00    +0.150 HD
ATOM     24  H   UNL     1      -4.816   3.273  27.004  0.00  0.00    +0.150 HD
BRANCH   6  18
ATOM     18  C   UNL     1      -6.316   2.308  25.847  0.00  0.00    +0.068 C 
ATOM     19  C   UNL     1      -6.701   1.546  27.109  0.00  0.00    +0.027 C 
ATOM     20  C   UNL     1      -6.189   1.371  24.653  0.00  0.00    +0.027 C 
ENDBRANCH   6  18
ENDBRANCH  16   5
ENDBRANCH  12  16
TORSDOF 6
ENDMDL
MODEL 6
REMARK VINA RESULT:      -4.2     14.524     16.733
REMARK  Name = 75367100
REMARK  8 active torsions:
REMARK  status: ('A' for Active; 'I' for Inactive)
REMARK    1  A    between atoms: O_2  and  C_9
REMARK    2  A    between atoms: N_4  and  C_7
REMARK    3  A    between atoms: N_4  and  C_8
REMARK    4  A    between atoms: N_5  and  C_16
REMARK    5  A    between atoms: N_6  and  C_18
REMARK    6  A    between atoms: C_12  and  C_16
REMARK    7  A    between atoms: C_18  and  C_19
REMARK    8  A    between atoms: C_18  and  C_20
REMARK                            x       y       z     vdW  Elec       q    Type
REMARK                         _______ _______ _______ _____ _____    ______ ____
ROOT
ATOM      1  O   UNL     1      -3.856 -10.781  13.624  0.00  0.00    -0.371 OA
ATOM      8  C   UNL     1      -5.854 -10.298  14.813  0.00  0.00    +0.111 C 
ATOM      9  C   UNL     1      -5.919  -9.637  13.449  0.00  0.00    +0.164 C 
ATOM     12  C   UNL     1      -4.887 -10.453  12.680  0.00  0.00    +0.165 C 
ATOM     15  C   UNL     1      -4.362 -10.558  14.952  0.00  0.00    +0.181 C 
ENDROOT
BRANCH   9   2
ATOM      2  O   UNL     1      -7.202  -9.722  12.862  0.00  0.00    -0.388 OA
ATOM     22  H   UNL     1      -7.817 -10.088  13.520  0.00  0.00    +0.210 HD
ENDBRANCH   9   2
BRANCH   8   4
ATOM      4  N   UNL     1      -6.386  -9.474  15.886  0.00  0.00    -0.306 NA
ATOM     21  H   UNL     1      -7.053  -8.798  15.513  0.00  0.00    +0.123 HD
BRANCH   4   7
ATOM      7  C   UNL     1      -7.018 -10.289  16.908  0.00  0.00    +0.054 C 
ATOM     10  C   UNL     1      -6.260 -10.271  18.230  0.00  0.00    +0.019 C 
ATOM     11  C   UNL     1      -8.391  -9.766  17.313  0.00  0.00    +0.019 C 
ATOM     13  C   UNL     1      -7.285 -10.780  19.240  0.00  0.00    +0.002 C 
ATOM     14  C   UNL     1      -8.659 -10.453  18.649  0.00  0.00    +0.002 C 
ENDBRANCH   4   7
ENDBRANCH   8   4
BRANCH  12  16
ATOM     16  C   UNL     1      -4.288  -9.705  11.503  0.00  0.00    +0.140 C 
BRANCH  16   5
ATOM      3  O   UNL     1      -6.135 -10.002   9.306  0.00  0.00    -0.253 OA
ATOM      5  N   UNL     1      -5.195  -8.716  10.996  0.00  0.00    -0.297 N 
ATOM      6  N   UNL     1      -6.830  -7.813   9.640  0.00  0.00    -0.297 N 
ATOM     17  C   UNL     1      -6.062  -8.940   9.922  0.00  0.00    +0.300 C 
ATOM     23  H   UNL     1      -5.197  -7.799  11.433  0.00  0.00    +0.150 HD
ATOM     24  H   UNL     1      -6.751  -7.009  10.254  0.00  0.00    +0.150 HD
BRANCH   6  18
ATOM     18  C   UNL     1      -7.806  -7.779   8.576  0.00  0.00    +0.068 C 
ATOM     19  C   UNL     1      -8.045  -6.344   8.124  0.00  0.00    +0.027 C 
ATOM     20  C   UNL     1      -9.103  -8.442   9.018  0.00  0.00    +0.027 C 
ENDBRANCH   6  18
ENDBRANCH  16   5
ENDBRANCH  12  16
TORSDOF 6
ENDMDL
MODEL 7
REMARK VINA RESULT:      -4.0      2.127      4.480
REMARK  Name = 75367100
REMARK  8 active torsions:
REMARK  status: ('A' for Active; 'I' for Inactive)
REMARK    1  A    between atoms: O_2  and  C_9
REMARK    2  A    between atoms: N_4  and  C_7
REMARK    3  A    between atoms: N_4  and  C_8
REMARK    4  A    between atoms: N_5  and  C_16
REMARK    5  A    between atoms: N_6  and  C_18
REMARK    6  A    between atoms: C_12  and  C_16
REMARK    7  A    between atoms: C_18  and  C_19
REMARK    8  A    between atoms: C_18  and  C_20
REMARK                            x       y       z     vdW  Elec       q    Type
REMARK                         _______ _______ _______ _____ _____    ______ ____
ROOT
ATOM      1  O   UNL     1      -2.000  -1.414  25.800  0.00  0.00    -0.371 OA
ATOM      8  C   UNL     1      -4.082  -0.764  24.859  0.00  0.00    +0.111 C 
ATOM      9  C   UNL     1      -2.960  -0.285  23.956  0.00  0.00    +0.164 C 
ATOM     12  C   UNL     1      -1.824  -1.202  24.390  0.00  0.00    +0.165 C 
ATOM     15  C   UNL     1      -3.335  -1.016  26.159  0.00  0.00    +0.181 C 
ENDROOT
BRANCH   9   2
ATOM      2  O   UNL     1      -3.263  -0.435  22.583  0.00  0.00    -0.388 OA
ATOM     22  H   UNL     1      -3.086   0.411  22.136  0.00  0.00    +0.210 HD
ENDBRANCH   9   2
BRANCH   8   4
ATOM      4  N   UNL     1      -5.163   0.197  25.005  0.00  0.00    -0.306 NA
ATOM     21  H   UNL     1      -5.759  -0.061  25.790  0.00  0.00    +0.123 HD
BRANCH   4   7
ATOM      7  C   UNL     1      -4.646   1.541  25.189  0.00  0.00    +0.054 C 
ATOM     10  C   UNL     1      -4.399   2.264  23.870  0.00  0.00    +0.019 C 
ATOM     11  C   UNL     1      -5.641   2.464  25.884  0.00  0.00    +0.019 C 
ATOM     13  C   UNL     1      -4.312   3.734  24.276  0.00  0.00    +0.002 C 
ATOM     14  C   UNL     1      -5.114   3.861  25.574  0.00  0.00    +0.002 C 
ENDBRANCH   4   7
ENDBRANCH   8   4
BRANCH  12  16
ATOM     16  C   UNL     1      -0.448  -0.618  24.125  0.00  0.00    +0.140 C 
BRANCH  16   5
ATOM      3  O   UNL     1      -0.597   1.457  26.125  0.00  0.00    -0.253 OA
ATOM      5  N   UNL     1      -0.516   0.797  23.899  0.00  0.00    -0.297 N 
ATOM      6  N   UNL     1      -0.644   3.040  24.429  0.00  0.00    -0.297 N 
ATOM     17  C   UNL     1      -0.587   1.741  24.928  0.00  0.00    +0.300 C 
ATOM     23  H   UNL     1      -0.528   1.129  22.940  0.00  0.00    +0.150 HD
ATOM     24  H   UNL     1      -0.553   3.176  23.427  0.00  0.00    +0.150 HD
BRANCH   6  18
ATOM     18  C   UNL     1      -0.722   4.203  25.281  0.00  0.00    +0.068 C 
ATOM     19  C   UNL     1      -1.931   4.102  26.203  0.00  0.00    +0.027 C 
ATOM     20  C   UNL     1      -0.768   5.475  24.447  0.00  0.00    +0.027 C 
ENDBRANCH   6  18
ENDBRANCH  16   5
ENDBRANCH  12  16
TORSDOF 6
ENDMDL
MODEL 8
REMARK VINA RESULT:      -3.9     14.123     16.130
REMARK  Name = 75367100
REMARK  8 active torsions:
REMARK  status: ('A' for Active; 'I' for Inactive)
REMARK    1  A    between atoms: O_2  and  C_9
REMARK    2  A    between atoms: N_4  and  C_7
REMARK    3  A    between atoms: N_4  and  C_8
REMARK    4  A    between atoms: N_5  and  C_16
REMARK    5  A    between atoms: N_6  and  C_18
REMARK    6  A    between atoms: C_12  and  C_16
REMARK    7  A    between atoms: C_18  and  C_19
REMARK    8  A    between atoms: C_18  and  C_20
REMARK                            x       y       z     vdW  Elec       q    Type
REMARK                         _______ _______ _______ _____ _____    ______ ____
ROOT
ATOM      1  O   UNL     1      -4.011 -10.588  15.863  0.00  0.00    -0.371 OA
ATOM      8  C   UNL     1      -6.219 -10.272  16.679  0.00  0.00    +0.111 C 
ATOM      9  C   UNL     1      -6.210 -10.047  15.178  0.00  0.00    +0.164 C 
ATOM     12  C   UNL     1      -4.936 -10.781  14.781  0.00  0.00    +0.165 C 
ATOM     15  C   UNL     1      -4.743 -10.131  17.014  0.00  0.00    +0.181 C 
ENDROOT
BRANCH   9   2
ATOM      2  O   UNL     1      -7.350 -10.585  14.538  0.00  0.00    -0.388 OA
ATOM     22  H   UNL     1      -7.186 -11.528  14.361  0.00  0.00    +0.210 HD
ENDBRANCH   9   2
BRANCH   8   4
ATOM      4  N   UNL     1      -7.056  -9.331  17.404  0.00  0.00    -0.306 NA
ATOM     21  H   UNL     1      -6.812  -8.374  17.151  0.00  0.00    +0.123 HD
BRANCH   4   7
ATOM      7  C   UNL     1      -8.464  -9.574  17.143  0.00  0.00    +0.054 C 
ATOM     10  C   UNL     1      -9.149 -10.342  18.267  0.00  0.00    +0.019 C 
ATOM     11  C   UNL     1      -9.281  -8.289  17.082  0.00  0.00    +0.019 C 
ATOM     13  C   UNL     1     -10.635 -10.092  18.021  0.00  0.00    +0.002 C 
ATOM     14  C   UNL     1     -10.719  -8.768  17.258  0.00  0.00    +0.002 C 
ENDBRANCH   4   7
ENDBRANCH   8   4
BRANCH  12  16
ATOM     16  C   UNL     1      -4.328 -10.269  13.487  0.00  0.00    +0.140 C 
BRANCH  16   5
ATOM      3  O   UNL     1      -3.931  -9.170  10.848  0.00  0.00    -0.253 OA
ATOM      5  N   UNL     1      -5.342  -9.834  12.570  0.00  0.00    -0.297 N 
ATOM      6  N   UNL     1      -6.231  -8.968  10.624  0.00  0.00    -0.297 N 
ATOM     17  C   UNL     1      -5.065  -9.310  11.304  0.00  0.00    +0.300 C 
ATOM     23  H   UNL     1      -6.312  -9.896  12.863  0.00  0.00    +0.150 HD
ATOM     24  H   UNL     1      -7.123  -9.191  11.054  0.00  0.00    +0.150 HD
BRANCH   6  18
ATOM     18  C   UNL     1      -6.225  -8.405   9.294  0.00  0.00    +0.068 C 
ATOM     19  C   UNL     1      -7.595  -7.829   8.958  0.00  0.00    +0.027 C 
ATOM     20  C   UNL     1      -5.800  -9.451   8.273  0.00  0.00    +0.027 C 
ENDBRANCH   6  18
ENDBRANCH  16   5
ENDBRANCH  12  16
TORSDOF 6
ENDMDL
MODEL 9
REMARK VINA RESULT:      -3.9      2.173      4.423
REMARK  Name = 75367100
REMARK  8 active torsions:
REMARK  status: ('A' for Active; 'I' for Inactive)
REMARK    1  A    between atoms: O_2  and  C_9
REMARK    2  A    between atoms: N_4  and  C_7
REMARK    3  A    between atoms: N_4  and  C_8
REMARK    4  A    between atoms: N_5  and  C_16
REMARK    5  A    between atoms: N_6  and  C_18
REMARK    6  A    between atoms: C_12  and  C_16
REMARK    7  A    between atoms: C_18  and  C_19
REMARK    8  A    between atoms: C_18  and  C_20
REMARK                            x       y       z     vdW  Elec       q    Type
REMARK                         _______ _______ _______ _____ _____    ______ ____
ROOT
ATOM      1  O   UNL     1      -3.504  -1.399  26.289  0.00  0.00    -0.371 OA
ATOM      8  C   UNL     1      -4.550   0.111  24.782  0.00  0.00    +0.111 C 
ATOM      9  C   UNL     1      -3.670  -0.843  23.996  0.00  0.00    +0.164 C 
ATOM     12  C   UNL     1      -3.533  -1.995  24.982  0.00  0.00    +0.165 C 
ATOM     15  C   UNL     1      -3.985  -0.048  26.185  0.00  0.00    +0.181 C 
ENDROOT
BRANCH   9   2
ATOM      2  O   UNL     1      -4.264  -1.257  22.781  0.00  0.00    -0.388 OA
ATOM     22  H   UNL     1      -5.022  -1.830  22.990  0.00  0.00    +0.210 HD
ENDBRANCH   9   2
BRANCH   8   4
ATOM      4  N   UNL     1      -4.497   1.482  24.303  0.00  0.00    -0.306 NA
ATOM     21  H   UNL     1      -5.424   1.904  24.342  0.00  0.00    +0.123 HD
BRANCH   4   7
ATOM      7  C   UNL     1      -3.555   2.270  25.076  0.00  0.00    +0.054 C 
ATOM     10  C   UNL     1      -2.458   2.889  24.217  0.00  0.00    +0.019 C 
ATOM     11  C   UNL     1      -4.197   3.496  25.714  0.00  0.00    +0.019 C 
ATOM     13  C   UNL     1      -1.886   3.992  25.102  0.00  0.00    +0.002 C 
ATOM     14  C   UNL     1      -3.008   4.384  26.067  0.00  0.00    +0.002 C 
ENDBRANCH   4   7
ENDBRANCH   8   4
BRANCH  12  16
ATOM     16  C   UNL     1      -2.278  -2.823  24.767  0.00  0.00    +0.140 C 
BRANCH  16   5
ATOM      3  O   UNL     1      -0.375  -0.835  25.637  0.00  0.00    -0.253 OA
ATOM      5  N   UNL     1      -1.325  -2.124  23.953  0.00  0.00    -0.297 N 
ATOM      6  N   UNL     1       0.377  -0.649  23.450  0.00  0.00    -0.297 N 
ATOM     17  C   UNL     1      -0.434  -1.170  24.454  0.00  0.00    +0.300 C 
ATOM     23  H   UNL     1      -1.308  -2.322  22.958  0.00  0.00    +0.150 HD
ATOM     24  H   UNL     1       0.304  -1.044  22.518  0.00  0.00    +0.150 HD
BRANCH   6  18
ATOM     18  C   UNL     1       1.386   0.354  23.700  0.00  0.00    +0.068 C 
ATOM     19  C   UNL     1       0.744   1.731  23.813  0.00  0.00    +0.027 C 
ATOM     20  C   UNL     1       2.448   0.328  22.610  0.00  0.00    +0.027 C 
ENDBRANCH   6  18
ENDBRANCH  16   5
ENDBRANCH  12  16
TORSDOF 6
ENDMDL
MODEL 10
REMARK VINA RESULT:      -3.6      1.862      4.931
REMARK  Name = 75367100
REMARK  8 active torsions:
REMARK  status: ('A' for Active; 'I' for Inactive)
REMARK    1  A    between atoms: O_2  and  C_9
REMARK    2  A    between atoms: N_4  and  C_7
REMARK    3  A    between atoms: N_4  and  C_8
REMARK    4  A    between atoms: N_5  and  C_16
REMARK    5  A    between atoms: N_6  and  C_18
REMARK    6  A    between atoms: C_12  and  C_16
REMARK    7  A    between atoms: C_18  and  C_19
REMARK    8  A    between atoms: C_18  and  C_20
REMARK                            x       y       z     vdW  Elec       q    Type
REMARK                         _______ _______ _______ _____ _____    ______ ____
ROOT
ATOM      1  O   UNL     1      -4.027   3.677  26.570  0.00  0.00    -0.371 OA
ATOM      8  C   UNL     1      -2.561   4.174  24.768  0.00  0.00    +0.111 C 
ATOM      9  C   UNL     1      -3.698   3.310  24.257  0.00  0.00    +0.164 C 
ATOM     12  C   UNL     1      -4.748   3.539  25.336  0.00  0.00    +0.165 C 
ATOM     15  C   UNL     1      -2.642   3.923  26.266  0.00  0.00    +0.181 C 
ENDROOT
BRANCH   9   2
ATOM      2  O   UNL     1      -4.157   3.711  22.981  0.00  0.00    -0.388 OA
ATOM     22  H   UNL     1      -3.969   2.996  22.349  0.00  0.00    +0.210 HD
ENDBRANCH   9   2
BRANCH   8   4
ATOM      4  N   UNL     1      -1.266   3.827  24.206  0.00  0.00    -0.306 NA
ATOM     21  H   UNL     1      -0.536   4.404  24.622  0.00  0.00    +0.123 HD
BRANCH   4   7
ATOM      7  C   UNL     1      -0.969   2.420  24.408  0.00  0.00    +0.054 C 
ATOM     10  C   UNL     1      -1.469   1.542  23.268  0.00  0.00    +0.019 C 
ATOM     11  C   UNL     1       0.528   2.129  24.411  0.00  0.00    +0.019 C 
ATOM     13  C   UNL     1      -0.685   0.243  23.443  0.00  0.00    +0.002 C 
ATOM     14  C   UNL     1       0.602   0.623  24.179  0.00  0.00    +0.002 C 
ENDBRANCH   4   7
ENDBRANCH   8   4
BRANCH  12  16
ATOM     16  C   UNL     1      -5.749   2.403  25.450  0.00  0.00    +0.140 C 
BRANCH  16   5
ATOM      3  O   UNL     1      -3.956   0.229  26.070  0.00  0.00    -0.253 OA
ATOM      5  N   UNL     1      -5.393   1.306  24.596  0.00  0.00    -0.297 N 
ATOM      6  N   UNL     1      -4.344  -0.647  23.957  0.00  0.00    -0.297 N 
ATOM     17  C   UNL     1      -4.512   0.289  24.974  0.00  0.00    +0.300 C 
ATOM     23  H   UNL     1      -5.791   1.276  23.663  0.00  0.00    +0.150 HD
ATOM     24  H   UNL     1      -4.904  -0.552  23.116  0.00  0.00    +0.150 HD
BRANCH   6  18
ATOM     18  C   UNL     1      -3.485  -1.801  24.089  0.00  0.00    +0.068 C 
ATOM     19  C   UNL     1      -4.250  -3.072  23.744  0.00  0.00    +0.027 C 
ATOM     20  C   UNL     1      -2.900  -1.873  25.493  0.00  0.00    +0.027 C 
ENDBRANCH   6  18
ENDBRANCH  16   5
ENDBRANCH  12  16
TORSDOF 6
ENDMDL
