MODEL 1
REMARK VINA RESULT:      -4.6      0.000      0.000
REMARK  Name = 45784338
REMARK  3 active torsions:
REMARK  status: ('A' for Active; 'I' for Inactive)
REMARK    1  A    between atoms: N_4  and  C_10
REMARK    2  A    between atoms: C_6  and  C_11
REMARK    3  A    between atoms: C_10  and  C_12
REMARK                            x       y       z     vdW  Elec       q    Type
REMARK                         _______ _______ _______ _____ _____    ______ ____
ROOT
ATOM      4  N   UNL     1      -4.987 -10.126  10.010  0.00  0.00    -0.297 NA
ATOM      6  C   UNL     1      -7.037  -9.865  11.118  0.00  0.00    +0.090 C 
ATOM      7  C   UNL     1      -6.582  -8.509  10.552  0.00  0.00    +0.029 C 
ATOM      8  C   UNL     1      -5.781 -10.745  11.073  0.00  0.00    +0.097 C 
ATOM      9  C   UNL     1      -5.101  -8.687  10.246  0.00  0.00    +0.085 C 
ENDROOT
BRANCH   6  11
ATOM      2  F   UNL     1     -10.587  -9.524  17.403  0.00  0.00    -0.205 F 
ATOM      3  O   UNL     1      -6.795  -9.842  13.543  0.00  0.00    -0.439 OA
ATOM      5  N   UNL     1      -8.935  -9.710  12.810  0.00  0.00    -0.213 NA
ATOM     11  C   UNL     1      -7.662  -9.801  12.493  0.00  0.00    +0.201 A 
ATOM     13  C   UNL     1      -8.919  -9.689  14.183  0.00  0.00    +0.112 A 
ATOM     14  C   UNL     1      -7.610  -9.770  14.636  0.00  0.00    +0.156 A 
ATOM     17  C   UNL     1      -9.956  -9.604  15.123  0.00  0.00    +0.070 A 
ATOM     18  C   UNL     1      -7.234  -9.774  15.974  0.00  0.00    +0.051 A 
ATOM     21  C   UNL     1      -9.616  -9.605  16.483  0.00  0.00    +0.126 A 
ATOM     22  C   UNL     1      -8.281  -9.688  16.897  0.00  0.00    +0.042 A 
ENDBRANCH   6  11
BRANCH   4  10
ATOM     10  C   UNL     1      -3.604 -10.580  10.014  0.00  0.00    +0.119 C 
BRANCH  10  12
ATOM      1 CL   UNL     1      -1.003  -9.806  15.383  0.00  0.00    -0.084 Cl
ATOM     12  C   UNL     1      -2.953 -10.388  11.357  0.00  0.00    -0.033 A 
ATOM     15  C   UNL     1      -1.684  -9.814  11.442  0.00  0.00    +0.006 A 
ATOM     16  C   UNL     1      -3.618 -10.781  12.518  0.00  0.00    +0.006 A 
ATOM     19  C   UNL     1      -1.080  -9.636  12.685  0.00  0.00    +0.020 A 
ATOM     20  C   UNL     1      -3.015 -10.602  13.763  0.00  0.00    +0.020 A 
ATOM     23  C   UNL     1      -1.746 -10.030  13.846  0.00  0.00    +0.041 A 
ENDBRANCH  10  12
ENDBRANCH   4  10
TORSDOF 3
ENDMDL
MODEL 2
REMARK VINA RESULT:      -4.2     15.393     16.771
REMARK  Name = 45784338
REMARK  3 active torsions:
REMARK  status: ('A' for Active; 'I' for Inactive)
REMARK    1  A    between atoms: N_4  and  C_10
REMARK    2  A    between atoms: C_6  and  C_11
REMARK    3  A    between atoms: C_10  and  C_12
REMARK                            x       y       z     vdW  Elec       q    Type
REMARK                         _______ _______ _______ _____ _____    ______ ____
ROOT
ATOM      4  N   UNL     1       0.555  -0.470  23.871  0.00  0.00    -0.297 NA
ATOM      6  C   UNL     1      -1.108   0.363  25.299  0.00  0.00    +0.090 C 
ATOM      7  C   UNL     1      -1.412  -1.106  24.958  0.00  0.00    +0.029 C 
ATOM      8  C   UNL     1      -0.069   0.797  24.256  0.00  0.00    +0.097 C 
ATOM      9  C   UNL     1      -0.557  -1.411  23.735  0.00  0.00    +0.085 C 
ENDROOT
BRANCH   6  11
ATOM      2  F   UNL     1      -6.492   5.176  25.567  0.00  0.00    -0.205 F 
ATOM      3  O   UNL     1      -3.525   0.655  25.186  0.00  0.00    -0.439 OA
ATOM      5  N   UNL     1      -2.359   2.573  25.497  0.00  0.00    -0.213 NA
ATOM     11  C   UNL     1      -2.318   1.269  25.337  0.00  0.00    +0.201 A 
ATOM     13  C   UNL     1      -3.702   2.856  25.449  0.00  0.00    +0.112 A 
ATOM     14  C   UNL     1      -4.420   1.685  25.259  0.00  0.00    +0.156 A 
ATOM     17  C   UNL     1      -4.400   4.068  25.558  0.00  0.00    +0.070 A 
ATOM     18  C   UNL     1      -5.804   1.610  25.163  0.00  0.00    +0.051 A 
ATOM     21  C   UNL     1      -5.799   4.033  25.466  0.00  0.00    +0.126 A 
ATOM     22  C   UNL     1      -6.484   2.827  25.273  0.00  0.00    +0.042 A 
ENDBRANCH   6  11
BRANCH   4  10
ATOM     10  C   UNL     1       1.337  -0.357  22.649  0.00  0.00    +0.119 C 
BRANCH  10  12
ATOM      1 CL   UNL     1       7.232   0.040  23.782  0.00  0.00    -0.084 Cl
ATOM     12  C   UNL     1       2.811  -0.256  22.933  0.00  0.00    -0.033 A 
ATOM     15  C   UNL     1       3.480  -1.324  23.532  0.00  0.00    +0.006 A 
ATOM     16  C   UNL     1       3.510   0.903  22.597  0.00  0.00    +0.006 A 
ATOM     19  C   UNL     1       4.846  -1.233  23.796  0.00  0.00    +0.020 A 
ATOM     20  C   UNL     1       4.877   0.995  22.860  0.00  0.00    +0.020 A 
ATOM     23  C   UNL     1       5.544  -0.072  23.460  0.00  0.00    +0.041 A 
ENDBRANCH  10  12
ENDBRANCH   4  10
TORSDOF 3
ENDMDL
MODEL 3
REMARK VINA RESULT:      -2.3     14.890     17.144
REMARK  Name = 45784338
REMARK  3 active torsions:
REMARK  status: ('A' for Active; 'I' for Inactive)
REMARK    1  A    between atoms: N_4  and  C_10
REMARK    2  A    between atoms: C_6  and  C_11
REMARK    3  A    between atoms: C_10  and  C_12
REMARK                            x       y       z     vdW  Elec       q    Type
REMARK                         _______ _______ _______ _____ _____    ______ ____
ROOT
ATOM      4  N   UNL     1      -3.645   2.411  25.315  0.00  0.00    -0.297 NA
ATOM      6  C   UNL     1      -1.366   2.779  24.905  0.00  0.00    +0.090 C 
ATOM      7  C   UNL     1      -2.206   3.681  23.984  0.00  0.00    +0.029 C 
ATOM      8  C   UNL     1      -2.355   1.728  25.426  0.00  0.00    +0.097 C 
ATOM      9  C   UNL     1      -3.606   3.080  24.015  0.00  0.00    +0.085 C 
ENDROOT
BRANCH   6  11
ATOM      2  F   UNL     1       4.790   0.355  21.998  0.00  0.00    -0.205 F 
ATOM      3  O   UNL     1      -0.348   0.985  23.607  0.00  0.00    -0.439 OA
ATOM      5  N   UNL     1       1.084   2.628  24.225  0.00  0.00    -0.213 NA
ATOM     11  C   UNL     1      -0.147   2.167  24.252  0.00  0.00    +0.201 A 
ATOM     13  C   UNL     1       1.763   1.677  23.504  0.00  0.00    +0.112 A 
ATOM     14  C   UNL     1       0.890   0.669  23.123  0.00  0.00    +0.156 A 
ATOM     17  C   UNL     1       3.110   1.584  23.125  0.00  0.00    +0.070 A 
ATOM     18  C   UNL     1       1.247  -0.451  22.381  0.00  0.00    +0.051 A 
ATOM     21  C   UNL     1       3.509   0.469  22.375  0.00  0.00    +0.126 A 
ATOM     22  C   UNL     1       2.593  -0.527  22.012  0.00  0.00    +0.042 A 
ENDBRANCH   6  11
BRANCH   4  10
ATOM     10  C   UNL     1      -4.771   1.495  25.433  0.00  0.00    +0.119 C 
BRANCH  10  12
ATOM      1 CL   UNL     1      -3.197  -4.166  24.139  0.00  0.00    -0.084 Cl
ATOM     12  C   UNL     1      -4.378   0.079  25.110  0.00  0.00    -0.033 A 
ATOM     15  C   UNL     1      -4.712  -0.473  23.873  0.00  0.00    +0.006 A 
ATOM     16  C   UNL     1      -3.679  -0.682  26.047  0.00  0.00    +0.006 A 
ATOM     19  C   UNL     1      -4.348  -1.785  23.573  0.00  0.00    +0.020 A 
ATOM     20  C   UNL     1      -3.314  -1.995  25.747  0.00  0.00    +0.020 A 
ATOM     23  C   UNL     1      -3.650  -2.546  24.510  0.00  0.00    +0.041 A 
ENDBRANCH  10  12
ENDBRANCH   4  10
TORSDOF 3
ENDMDL
MODEL 4
REMARK VINA RESULT:      -1.7     15.544     17.650
REMARK  Name = 45784338
REMARK  3 active torsions:
REMARK  status: ('A' for Active; 'I' for Inactive)
REMARK    1  A    between atoms: N_4  and  C_10
REMARK    2  A    between atoms: C_6  and  C_11
REMARK    3  A    between atoms: C_10  and  C_12
REMARK                            x       y       z     vdW  Elec       q    Type
REMARK                         _______ _______ _______ _____ _____    ______ ____
ROOT
ATOM      4  N   UNL     1      -3.295  -0.461  24.660  0.00  0.00    -0.297 NA
ATOM      6  C   UNL     1      -1.249  -1.279  23.857  0.00  0.00    +0.090 C 
ATOM      7  C   UNL     1      -1.590  -1.967  25.190  0.00  0.00    +0.029 C 
ATOM      8  C   UNL     1      -2.180  -0.060  23.800  0.00  0.00    +0.097 C 
ATOM      9  C   UNL     1      -2.666  -1.092  25.821  0.00  0.00    +0.085 C 
ENDROOT
BRANCH   6  11
ATOM      2  F   UNL     1       5.858  -0.118  23.251  0.00  0.00    -0.205 F 
ATOM      3  O   UNL     1       0.456   0.337  23.210  0.00  0.00    -0.439 OA
ATOM      5  N   UNL     1       1.270  -1.649  23.936  0.00  0.00    -0.213 NA
ATOM     11  C   UNL     1       0.208  -0.915  23.685  0.00  0.00    +0.201 A 
ATOM     13  C   UNL     1       2.313  -0.822  23.600  0.00  0.00    +0.112 A 
ATOM     14  C   UNL     1       1.820   0.395  23.155  0.00  0.00    +0.156 A 
ATOM     17  C   UNL     1       3.702  -1.016  23.640  0.00  0.00    +0.070 A 
ATOM     18  C   UNL     1       2.604   1.463  22.735  0.00  0.00    +0.051 A 
ATOM     21  C   UNL     1       4.527   0.039  23.224  0.00  0.00    +0.126 A 
ATOM     22  C   UNL     1       3.986   1.252  22.781  0.00  0.00    +0.042 A 
ENDBRANCH   6  11
BRANCH   4  10
ATOM     10  C   UNL     1      -4.141   0.663  25.033  0.00  0.00    +0.119 C 
BRANCH  10  12
ATOM      1 CL   UNL     1      -1.122   5.866  24.943  0.00  0.00    -0.084 Cl
ATOM     12  C   UNL     1      -3.387   1.965  25.011  0.00  0.00    -0.033 A 
ATOM     15  C   UNL     1      -2.131   2.053  25.611  0.00  0.00    +0.006 A 
ATOM     16  C   UNL     1      -3.943   3.083  24.390  0.00  0.00    +0.006 A 
ATOM     19  C   UNL     1      -1.431   3.259  25.592  0.00  0.00    +0.020 A 
ATOM     20  C   UNL     1      -3.242   4.290  24.370  0.00  0.00    +0.020 A 
ATOM     23  C   UNL     1      -1.987   4.377  24.971  0.00  0.00    +0.041 A 
ENDBRANCH  10  12
ENDBRANCH   4  10
TORSDOF 3
ENDMDL
MODEL 5
REMARK VINA RESULT:      -1.4     15.577     17.362
REMARK  Name = 45784338
REMARK  3 active torsions:
REMARK  status: ('A' for Active; 'I' for Inactive)
REMARK    1  A    between atoms: N_4  and  C_10
REMARK    2  A    between atoms: C_6  and  C_11
REMARK    3  A    between atoms: C_10  and  C_12
REMARK                            x       y       z     vdW  Elec       q    Type
REMARK                         _______ _______ _______ _____ _____    ______ ____
ROOT
ATOM      4  N   UNL     1       0.094   3.481  25.106  0.00  0.00    -0.297 NA
ATOM      6  C   UNL     1       0.006   1.138  25.066  0.00  0.00    +0.090 C 
ATOM      7  C   UNL     1       0.733   1.647  23.810  0.00  0.00    +0.029 C 
ATOM      8  C   UNL     1      -0.710   2.374  25.628  0.00  0.00    +0.097 C 
ATOM      9  C   UNL     1       0.369   3.123  23.715  0.00  0.00    +0.085 C 
ENDROOT
BRANCH   6  11
ATOM      2  F   UNL     1      -3.970  -4.813  24.074  0.00  0.00    -0.205 F 
ATOM      3  O   UNL     1      -2.205   0.296  24.483  0.00  0.00    -0.439 OA
ATOM      5  N   UNL     1      -0.669  -1.313  24.916  0.00  0.00    -0.213 NA
ATOM     11  C   UNL     1      -0.928  -0.027  24.831  0.00  0.00    +0.201 A 
ATOM     13  C   UNL     1      -1.870  -1.900  24.601  0.00  0.00    +0.112 A 
ATOM     14  C   UNL     1      -2.813  -0.919  24.335  0.00  0.00    +0.156 A 
ATOM     17  C   UNL     1      -2.252  -3.247  24.515  0.00  0.00    +0.070 A 
ATOM     18  C   UNL     1      -4.135  -1.164  23.984  0.00  0.00    +0.051 A 
ATOM     21  C   UNL     1      -3.578  -3.535  24.163  0.00  0.00    +0.126 A 
ATOM     22  C   UNL     1      -4.499  -2.512  23.903  0.00  0.00    +0.042 A 
ENDBRANCH   6  11
BRANCH   4  10
ATOM     10  C   UNL     1      -0.585   4.764  25.225  0.00  0.00    +0.119 C 
BRANCH  10  12
ATOM      1 CL   UNL     1      -6.556   4.115  25.568  0.00  0.00    -0.084 Cl
ATOM     12  C   UNL     1      -2.078   4.603  25.311  0.00  0.00    -0.033 A 
ATOM     15  C   UNL     1      -2.843   4.552  24.145  0.00  0.00    +0.006 A 
ATOM     16  C   UNL     1      -2.699   4.503  26.556  0.00  0.00    +0.006 A 
ATOM     19  C   UNL     1      -4.227   4.403  24.224  0.00  0.00    +0.020 A 
ATOM     20  C   UNL     1      -4.084   4.353  26.636  0.00  0.00    +0.020 A 
ATOM     23  C   UNL     1      -4.847   4.303  25.470  0.00  0.00    +0.041 A 
ENDBRANCH  10  12
ENDBRANCH   4  10
TORSDOF 3
ENDMDL
MODEL 6
REMARK VINA RESULT:      -1.1     15.722     16.676
REMARK  Name = 45784338
REMARK  3 active torsions:
REMARK  status: ('A' for Active; 'I' for Inactive)
REMARK    1  A    between atoms: N_4  and  C_10
REMARK    2  A    between atoms: C_6  and  C_11
REMARK    3  A    between atoms: C_10  and  C_12
REMARK                            x       y       z     vdW  Elec       q    Type
REMARK                         _______ _______ _______ _____ _____    ______ ____
ROOT
ATOM      4  N   UNL     1       0.729   0.691  22.973  0.00  0.00    -0.297 NA
ATOM      6  C   UNL     1      -1.206   1.977  23.289  0.00  0.00    +0.090 C 
ATOM      7  C   UNL     1      -0.025   2.637  24.020  0.00  0.00    +0.029 C 
ATOM      8  C   UNL     1      -0.728   0.550  22.989  0.00  0.00    +0.097 C 
ATOM      9  C   UNL     1       1.037   1.549  24.117  0.00  0.00    +0.085 C 
ENDROOT
BRANCH   6  11
ATOM      2  F   UNL     1      -7.438   1.519  26.920  0.00  0.00    -0.205 F 
ATOM      3  O   UNL     1      -3.057   3.248  24.236  0.00  0.00    -0.439 OA
ATOM      5  N   UNL     1      -3.207   1.007  24.531  0.00  0.00    -0.213 NA
ATOM     11  C   UNL     1      -2.517   2.013  24.041  0.00  0.00    +0.201 A 
ATOM     13  C   UNL     1      -4.297   1.618  25.102  0.00  0.00    +0.112 A 
ATOM     14  C   UNL     1      -4.208   2.991  24.924  0.00  0.00    +0.156 A 
ATOM     17  C   UNL     1      -5.403   1.094  25.787  0.00  0.00    +0.070 A 
ATOM     18  C   UNL     1      -5.146   3.911  25.378  0.00  0.00    +0.051 A 
ATOM     21  C   UNL     1      -6.370   1.991  26.262  0.00  0.00    +0.126 A 
ATOM     22  C   UNL     1      -6.241   3.371  26.059  0.00  0.00    +0.042 A 
ENDBRANCH   6  11
BRANCH   4  10
ATOM     10  C   UNL     1       1.412  -0.593  23.044  0.00  0.00    +0.119 C 
BRANCH  10  12
ATOM      1 CL   UNL     1       7.371   0.060  23.558  0.00  0.00    -0.084 Cl
ATOM     12  C   UNL     1       2.903  -0.428  23.173  0.00  0.00    -0.033 A 
ATOM     15  C   UNL     1       3.668  -1.439  23.756  0.00  0.00    +0.006 A 
ATOM     16  C   UNL     1       3.520   0.733  22.709  0.00  0.00    +0.006 A 
ATOM     19  C   UNL     1       5.048  -1.288  23.876  0.00  0.00    +0.020 A 
ATOM     20  C   UNL     1       4.902   0.885  22.829  0.00  0.00    +0.020 A 
ATOM     23  C   UNL     1       5.665  -0.126  23.413  0.00  0.00    +0.041 A 
ENDBRANCH  10  12
ENDBRANCH   4  10
TORSDOF 3
ENDMDL
