MODEL 1
REMARK VINA RESULT:      -5.4      0.000      0.000
REMARK  Name = 40777850
REMARK  9 active torsions:
REMARK  status: ('A' for Active; 'I' for Inactive)
REMARK    1  A    between atoms: O_2  and  C_10
REMARK    2  A    between atoms: O_3  and  C_11
REMARK    3  A    between atoms: O_6  and  C_25
REMARK    4  A    between atoms: O_6  and  C_26
REMARK    5  A    between atoms: N_8  and  C_14
REMARK    6  A    between atoms: C_9  and  C_13
REMARK    7  A    between atoms: C_12  and  C_14
REMARK    8  A    between atoms: C_13  and  C_15
REMARK    9  A    between atoms: C_22  and  C_25
REMARK                            x       y       z     vdW  Elec       q    Type
REMARK                         _______ _______ _______ _____ _____    ______ ____
ROOT
ATOM      1  O   UNL     1      -3.025  -0.584  25.722  0.00  0.00    -0.366 OA
ATOM      9  C   UNL     1      -4.079  -1.124  24.893  0.00  0.00    +0.159 C 
ATOM     10  C   UNL     1      -3.506  -2.370  24.228  0.00  0.00    +0.175 C 
ATOM     11  C   UNL     1      -2.029  -2.040  24.158  0.00  0.00    +0.176 C 
ATOM     12  C   UNL     1      -1.815  -1.324  25.480  0.00  0.00    +0.167 C 
ENDROOT
BRANCH  10   2
ATOM      2  O   UNL     1      -3.725  -3.478  25.100  0.00  0.00    -0.387 OA
ATOM     27  H   UNL     1      -3.533  -3.178  26.005  0.00  0.00    +0.210 HD
ENDBRANCH  10   2
BRANCH  11   3
ATOM      3  O   UNL     1      -1.207  -3.180  24.034  0.00  0.00    -0.387 OA
ATOM     28  H   UNL     1      -1.784  -3.937  23.831  0.00  0.00    +0.210 HD
ENDBRANCH  11   3
BRANCH   9  13
ATOM     13  C   UNL     1      -4.482  -0.047  23.894  0.00  0.00    +0.130 C 
BRANCH  13  15
ATOM      4  O   UNL     1      -2.441   0.735  22.978  0.00  0.00    -0.275 OA
ATOM      7  N   UNL     1      -3.512   2.100  24.538  0.00  0.00    -0.271 N 
ATOM     15  C   UNL     1      -3.370   0.965  23.752  0.00  0.00    +0.222 C 
ATOM     16  C   UNL     1      -4.628   2.375  25.467  0.00  0.00    +0.118 C 
ATOM     17  C   UNL     1      -4.373   3.740  26.114  0.00  0.00    +0.056 C 
ATOM     18  C   UNL     1      -2.615   3.188  24.589  0.00  0.00    +0.039 A 
ATOM     19  C   UNL     1      -3.080   4.150  25.488  0.00  0.00    -0.024 A 
ATOM     20  C   UNL     1      -1.426   3.383  23.900  0.00  0.00    +0.024 A 
ATOM     21  C   UNL     1      -2.376   5.322  25.719  0.00  0.00    +0.005 A 
ATOM     23  C   UNL     1      -0.709   4.562  24.128  0.00  0.00    +0.002 A 
ATOM     24  C   UNL     1      -1.180   5.524  25.031  0.00  0.00    +0.000 A 
ENDBRANCH  13  15
ENDBRANCH   9  13
BRANCH  12  14
ATOM     14  C   UNL     1      -0.630  -0.375  25.465  0.00  0.00    +0.138 C 
BRANCH  14   8
ATOM      5  O   UNL     1       1.043   1.605  24.180  0.00  0.00    -0.273 OA
ATOM      8  N   UNL     1       0.155  -0.544  24.277  0.00  0.00    -0.311 N 
ATOM     22  C   UNL     1       0.935   0.468  23.726  0.00  0.00    +0.239 C 
ATOM     29  H   UNL     1       0.141  -1.453  23.825  0.00  0.00    +0.149 HD
BRANCH  22  25
ATOM     25  C   UNL     1       1.656   0.014  22.475  0.00  0.00    +0.255 C 
BRANCH  25   6
ATOM      6  O   UNL     1       2.992  -0.334  22.769  0.00  0.00    -0.374 OA
ATOM     26  C   UNL     1       3.865   0.789  22.683  0.00  0.00    +0.194 C 
ENDBRANCH  25   6
ENDBRANCH  22  25
ENDBRANCH  14   8
ENDBRANCH  12  14
TORSDOF 8
ENDMDL
MODEL 2
REMARK VINA RESULT:      -4.8      1.860      5.020
REMARK  Name = 40777850
REMARK  9 active torsions:
REMARK  status: ('A' for Active; 'I' for Inactive)
REMARK    1  A    between atoms: O_2  and  C_10
REMARK    2  A    between atoms: O_3  and  C_11
REMARK    3  A    between atoms: O_6  and  C_25
REMARK    4  A    between atoms: O_6  and  C_26
REMARK    5  A    between atoms: N_8  and  C_14
REMARK    6  A    between atoms: C_9  and  C_13
REMARK    7  A    between atoms: C_12  and  C_14
REMARK    8  A    between atoms: C_13  and  C_15
REMARK    9  A    between atoms: C_22  and  C_25
REMARK                            x       y       z     vdW  Elec       q    Type
REMARK                         _______ _______ _______ _____ _____    ______ ____
ROOT
ATOM      1  O   UNL     1      -2.753   3.076  23.746  0.00  0.00    -0.366 OA
ATOM      9  C   UNL     1      -3.034   3.859  24.929  0.00  0.00    +0.159 C 
ATOM     10  C   UNL     1      -1.686   4.195  25.553  0.00  0.00    +0.175 C 
ATOM     11  C   UNL     1      -0.834   3.020  25.117  0.00  0.00    +0.176 C 
ATOM     12  C   UNL     1      -1.344   2.784  23.706  0.00  0.00    +0.167 C 
ENDROOT
BRANCH  10   2
ATOM      2  O   UNL     1      -1.208   5.401  24.958  0.00  0.00    -0.387 OA
ATOM     27  H   UNL     1      -1.888   6.082  25.097  0.00  0.00    +0.210 HD
ENDBRANCH  10   2
BRANCH  11   3
ATOM      3  O   UNL     1       0.550   3.293  25.141  0.00  0.00    -0.387 OA
ATOM     28  H   UNL     1       1.013   2.444  25.247  0.00  0.00    +0.210 HD
ENDBRANCH  11   3
BRANCH   9  13
ATOM     13  C   UNL     1      -3.922   3.023  25.840  0.00  0.00    +0.130 C 
BRANCH  13  15
ATOM      4  O   UNL     1      -5.342   1.747  24.434  0.00  0.00    -0.275 OA
ATOM      7  N   UNL     1      -3.488   0.669  25.352  0.00  0.00    -0.271 N 
ATOM     15  C   UNL     1      -4.329   1.751  25.134  0.00  0.00    +0.222 C 
ATOM     16  C   UNL     1      -2.272   0.675  26.192  0.00  0.00    +0.118 C 
ATOM     17  C   UNL     1      -1.658  -0.728  26.136  0.00  0.00    +0.056 C 
ATOM     18  C   UNL     1      -3.646  -0.624  24.811  0.00  0.00    +0.039 A 
ATOM     19  C   UNL     1      -2.610  -1.454  25.243  0.00  0.00    -0.024 A 
ATOM     20  C   UNL     1      -4.635  -1.111  23.968  0.00  0.00    +0.024 A 
ATOM     21  C   UNL     1      -2.536  -2.782  24.848  0.00  0.00    +0.005 A 
ATOM     23  C   UNL     1      -4.568  -2.449  23.566  0.00  0.00    +0.002 A 
ATOM     24  C   UNL     1      -3.527  -3.278  24.003  0.00  0.00    +0.000 A 
ENDBRANCH  13  15
ENDBRANCH   9  13
BRANCH  12  14
ATOM     14  C   UNL     1      -1.132   1.361  23.219  0.00  0.00    +0.138 C 
BRANCH  14   8
ATOM      5  O   UNL     1       0.605  -0.889  23.755  0.00  0.00    -0.273 OA
ATOM      8  N   UNL     1       0.208   1.170  22.747  0.00  0.00    -0.311 N 
ATOM     22  C   UNL     1       0.975   0.050  23.056  0.00  0.00    +0.239 C 
ATOM     29  H   UNL     1       0.609   1.889  22.152  0.00  0.00    +0.149 HD
BRANCH  22  25
ATOM     25  C   UNL     1       2.349   0.110  22.425  0.00  0.00    +0.255 C 
BRANCH  25   6
ATOM      6  O   UNL     1       3.178   1.019  23.119  0.00  0.00    -0.374 OA
ATOM     26  C   UNL     1       4.540   0.602  23.120  0.00  0.00    +0.194 C 
ENDBRANCH  25   6
ENDBRANCH  22  25
ENDBRANCH  14   8
ENDBRANCH  12  14
TORSDOF 8
ENDMDL
MODEL 3
REMARK VINA RESULT:      -3.9      1.701      2.760
REMARK  Name = 40777850
REMARK  9 active torsions:
REMARK  status: ('A' for Active; 'I' for Inactive)
REMARK    1  A    between atoms: O_2  and  C_10
REMARK    2  A    between atoms: O_3  and  C_11
REMARK    3  A    between atoms: O_6  and  C_25
REMARK    4  A    between atoms: O_6  and  C_26
REMARK    5  A    between atoms: N_8  and  C_14
REMARK    6  A    between atoms: C_9  and  C_13
REMARK    7  A    between atoms: C_12  and  C_14
REMARK    8  A    between atoms: C_13  and  C_15
REMARK    9  A    between atoms: C_22  and  C_25
REMARK                            x       y       z     vdW  Elec       q    Type
REMARK                         _______ _______ _______ _____ _____    ______ ____
ROOT
ATOM      1  O   UNL     1      -2.814  -0.830  25.710  0.00  0.00    -0.366 OA
ATOM      9  C   UNL     1      -4.030  -1.357  25.133  0.00  0.00    +0.159 C 
ATOM     10  C   UNL     1      -3.622  -2.563  24.297  0.00  0.00    +0.175 C 
ATOM     11  C   UNL     1      -2.208  -2.202  23.890  0.00  0.00    +0.176 C 
ATOM     12  C   UNL     1      -1.690  -1.535  25.153  0.00  0.00    +0.167 C 
ENDROOT
BRANCH  10   2
ATOM      2  O   UNL     1      -3.615  -3.710  25.146  0.00  0.00    -0.387 OA
ATOM     27  H   UNL     1      -3.163  -3.458  25.970  0.00  0.00    +0.210 HD
ENDBRANCH  10   2
BRANCH  11   3
ATOM      3  O   UNL     1      -1.428  -3.319  23.524  0.00  0.00    -0.387 OA
ATOM     28  H   UNL     1      -1.474  -3.960  24.255  0.00  0.00    +0.210 HD
ENDBRANCH  11   3
BRANCH   9  13
ATOM     13  C   UNL     1      -4.672  -0.249  24.308  0.00  0.00    +0.130 C 
BRANCH  13  15
ATOM      4  O   UNL     1      -5.080   1.433  25.928  0.00  0.00    -0.275 OA
ATOM      7  N   UNL     1      -3.395   1.833  24.364  0.00  0.00    -0.271 N 
ATOM     15  C   UNL     1      -4.408   1.091  24.954  0.00  0.00    +0.222 C 
ATOM     16  C   UNL     1      -2.589   1.422  23.196  0.00  0.00    +0.118 C 
ATOM     17  C   UNL     1      -1.590   2.544  22.897  0.00  0.00    +0.056 C 
ATOM     18  C   UNL     1      -2.958   3.109  24.776  0.00  0.00    +0.039 A 
ATOM     19  C   UNL     1      -1.920   3.549  23.952  0.00  0.00    -0.024 A 
ATOM     20  C   UNL     1      -3.411   3.901  25.822  0.00  0.00    +0.024 A 
ATOM     21  C   UNL     1      -1.313   4.780  24.149  0.00  0.00    +0.005 A 
ATOM     23  C   UNL     1      -2.806   5.145  26.027  0.00  0.00    +0.002 A 
ATOM     24  C   UNL     1      -1.764   5.582  25.197  0.00  0.00    +0.000 A 
ENDBRANCH  13  15
ENDBRANCH   9  13
BRANCH  12  14
ATOM     14  C   UNL     1      -0.552  -0.563  24.898  0.00  0.00    +0.138 C 
BRANCH  14   8
ATOM      5  O   UNL     1       0.880   1.947  24.770  0.00  0.00    -0.273 OA
ATOM      8  N   UNL     1      -0.512   0.463  25.898  0.00  0.00    -0.311 N 
ATOM     22  C   UNL     1       0.207   1.646  25.753  0.00  0.00    +0.239 C 
ATOM     29  H   UNL     1      -1.043   0.314  26.751  0.00  0.00    +0.149 HD
BRANCH  22  25
ATOM     25  C   UNL     1       0.072   2.546  26.961  0.00  0.00    +0.255 C 
BRANCH  25   6
ATOM      6  O   UNL     1       1.331   2.771  27.559  0.00  0.00    -0.374 OA
ATOM     26  C   UNL     1       1.332   2.426  28.942  0.00  0.00    +0.194 C 
ENDBRANCH  25   6
ENDBRANCH  22  25
ENDBRANCH  14   8
ENDBRANCH  12  14
TORSDOF 8
ENDMDL
MODEL 4
REMARK VINA RESULT:      -3.8      1.863      4.882
REMARK  Name = 40777850
REMARK  9 active torsions:
REMARK  status: ('A' for Active; 'I' for Inactive)
REMARK    1  A    between atoms: O_2  and  C_10
REMARK    2  A    between atoms: O_3  and  C_11
REMARK    3  A    between atoms: O_6  and  C_25
REMARK    4  A    between atoms: O_6  and  C_26
REMARK    5  A    between atoms: N_8  and  C_14
REMARK    6  A    between atoms: C_9  and  C_13
REMARK    7  A    between atoms: C_12  and  C_14
REMARK    8  A    between atoms: C_13  and  C_15
REMARK    9  A    between atoms: C_22  and  C_25
REMARK                            x       y       z     vdW  Elec       q    Type
REMARK                         _______ _______ _______ _____ _____    ______ ____
ROOT
ATOM      1  O   UNL     1       0.939   2.546  24.040  0.00  0.00    -0.366 OA
ATOM      9  C   UNL     1       0.374   3.510  24.958  0.00  0.00    +0.159 C 
ATOM     10  C   UNL     1      -0.169   2.714  26.138  0.00  0.00    +0.175 C 
ATOM     11  C   UNL     1      -0.515   1.388  25.492  0.00  0.00    +0.176 C 
ATOM     12  C   UNL     1       0.632   1.220  24.509  0.00  0.00    +0.167 C 
ENDROOT
BRANCH  10   2
ATOM      2  O   UNL     1       0.887   2.543  27.082  0.00  0.00    -0.387 OA
ATOM     27  H   UNL     1       0.596   2.945  27.919  0.00  0.00    +0.210 HD
ENDBRANCH  10   2
BRANCH  11   3
ATOM      3  O   UNL     1      -0.586   0.319  26.410  0.00  0.00    -0.387 OA
ATOM     28  H   UNL     1       0.179  -0.260  26.244  0.00  0.00    +0.210 HD
ENDBRANCH  11   3
BRANCH   9  13
ATOM     13  C   UNL     1      -0.705   4.284  24.213  0.00  0.00    +0.130 C 
BRANCH  13  15
ATOM      4  O   UNL     1      -2.268   4.929  25.874  0.00  0.00    -0.275 OA
ATOM      7  N   UNL     1      -2.857   3.158  24.473  0.00  0.00    -0.271 N 
ATOM     15  C   UNL     1      -2.022   4.161  24.943  0.00  0.00    +0.222 C 
ATOM     16  C   UNL     1      -2.560   2.238  23.355  0.00  0.00    +0.118 C 
ATOM     17  C   UNL     1      -3.763   1.305  23.184  0.00  0.00    +0.056 C 
ATOM     18  C   UNL     1      -4.134   2.840  24.980  0.00  0.00    +0.039 A 
ATOM     19  C   UNL     1      -4.684   1.777  24.262  0.00  0.00    -0.024 A 
ATOM     20  C   UNL     1      -4.837   3.424  26.025  0.00  0.00    +0.024 A 
ATOM     21  C   UNL     1      -5.940   1.273  24.566  0.00  0.00    +0.005 A 
ATOM     23  C   UNL     1      -6.104   2.920  26.339  0.00  0.00    +0.002 A 
ATOM     24  C   UNL     1      -6.652   1.853  25.615  0.00  0.00    +0.000 A 
ENDBRANCH  13  15
ENDBRANCH   9  13
BRANCH  12  14
ATOM     14  C   UNL     1       0.289   0.327  23.330  0.00  0.00    +0.138 C 
BRANCH  14   8
ATOM      5  O   UNL     1       0.445  -2.010  25.028  0.00  0.00    -0.273 OA
ATOM      8  N   UNL     1      -0.774  -0.578  23.657  0.00  0.00    -0.311 N 
ATOM     22  C   UNL     1      -0.609  -1.683  24.487  0.00  0.00    +0.239 C 
ATOM     29  H   UNL     1      -1.693  -0.392  23.266  0.00  0.00    +0.149 HD
BRANCH  22  25
ATOM     25  C   UNL     1      -1.894  -2.462  24.661  0.00  0.00    +0.255 C 
BRANCH  25   6
ATOM      6  O   UNL     1      -3.014  -1.609  24.542  0.00  0.00    -0.374 OA
ATOM     26  C   UNL     1      -3.609  -1.336  25.808  0.00  0.00    +0.194 C 
ENDBRANCH  25   6
ENDBRANCH  22  25
ENDBRANCH  14   8
ENDBRANCH  12  14
TORSDOF 8
ENDMDL
MODEL 5
REMARK VINA RESULT:      -3.2      1.995      3.295
REMARK  Name = 40777850
REMARK  9 active torsions:
REMARK  status: ('A' for Active; 'I' for Inactive)
REMARK    1  A    between atoms: O_2  and  C_10
REMARK    2  A    between atoms: O_3  and  C_11
REMARK    3  A    between atoms: O_6  and  C_25
REMARK    4  A    between atoms: O_6  and  C_26
REMARK    5  A    between atoms: N_8  and  C_14
REMARK    6  A    between atoms: C_9  and  C_13
REMARK    7  A    between atoms: C_12  and  C_14
REMARK    8  A    between atoms: C_13  and  C_15
REMARK    9  A    between atoms: C_22  and  C_25
REMARK                            x       y       z     vdW  Elec       q    Type
REMARK                         _______ _______ _______ _____ _____    ______ ____
ROOT
ATOM      1  O   UNL     1      -2.518  -1.450  25.992  0.00  0.00    -0.366 OA
ATOM      9  C   UNL     1      -2.698  -2.288  24.828  0.00  0.00    +0.159 C 
ATOM     10  C   UNL     1      -1.365  -2.295  24.090  0.00  0.00    +0.175 C 
ATOM     11  C   UNL     1      -0.789  -0.945  24.469  0.00  0.00    +0.176 C 
ATOM     12  C   UNL     1      -1.223  -0.826  25.920  0.00  0.00    +0.167 C 
ENDROOT
BRANCH  10   2
ATOM      2  O   UNL     1      -0.564  -3.344  24.631  0.00  0.00    -0.387 OA
ATOM     27  H   UNL     1      -0.188  -3.838  23.883  0.00  0.00    +0.210 HD
ENDBRANCH  10   2
BRANCH  11   3
ATOM      3  O   UNL     1       0.614  -0.876  24.328  0.00  0.00    -0.387 OA
ATOM     28  H   UNL     1       0.874   0.054  24.448  0.00  0.00    +0.210 HD
ENDBRANCH  11   3
BRANCH   9  13
ATOM     13  C   UNL     1      -3.834  -1.699  24.002  0.00  0.00    +0.130 C 
BRANCH  13  15
ATOM      4  O   UNL     1      -5.078  -0.597  25.692  0.00  0.00    -0.275 OA
ATOM      7  N   UNL     1      -4.029   0.734  24.089  0.00  0.00    -0.271 N 
ATOM     15  C   UNL     1      -4.381  -0.468  24.685  0.00  0.00    +0.222 C 
ATOM     16  C   UNL     1      -3.192   0.888  22.881  0.00  0.00    +0.118 C 
ATOM     17  C   UNL     1      -3.061   2.387  22.589  0.00  0.00    +0.056 C 
ATOM     18  C   UNL     1      -4.410   2.019  24.530  0.00  0.00    +0.039 A 
ATOM     19  C   UNL     1      -3.870   2.993  23.688  0.00  0.00    -0.024 A 
ATOM     20  C   UNL     1      -5.193   2.381  25.617  0.00  0.00    +0.024 A 
ATOM     21  C   UNL     1      -4.097   4.344  23.909  0.00  0.00    +0.005 A 
ATOM     23  C   UNL     1      -5.428   3.741  25.845  0.00  0.00    +0.002 A 
ATOM     24  C   UNL     1      -4.884   4.715  24.998  0.00  0.00    +0.000 A 
ENDBRANCH  13  15
ENDBRANCH   9  13
BRANCH  12  14
ATOM     14  C   UNL     1      -1.320   0.611  26.403  0.00  0.00    +0.138 C 
BRANCH  14   8
ATOM      5  O   UNL     1       0.751   2.620  26.616  0.00  0.00    -0.273 OA
ATOM      8  N   UNL     1      -0.896   1.529  25.386  0.00  0.00    -0.311 N 
ATOM     22  C   UNL     1       0.114   2.467  25.577  0.00  0.00    +0.239 C 
ATOM     29  H   UNL     1      -1.356   1.481  24.482  0.00  0.00    +0.149 HD
BRANCH  22  25
ATOM     25  C   UNL     1       0.355   3.304  24.339  0.00  0.00    +0.255 C 
BRANCH  25   6
ATOM      6  O   UNL     1      -0.765   4.120  24.064  0.00  0.00    -0.374 OA
ATOM     26  C   UNL     1      -0.858   5.216  24.971  0.00  0.00    +0.194 C 
ENDBRANCH  25   6
ENDBRANCH  22  25
ENDBRANCH  14   8
ENDBRANCH  12  14
TORSDOF 8
ENDMDL
MODEL 6
REMARK VINA RESULT:      -3.0      2.104      4.808
REMARK  Name = 40777850
REMARK  9 active torsions:
REMARK  status: ('A' for Active; 'I' for Inactive)
REMARK    1  A    between atoms: O_2  and  C_10
REMARK    2  A    between atoms: O_3  and  C_11
REMARK    3  A    between atoms: O_6  and  C_25
REMARK    4  A    between atoms: O_6  and  C_26
REMARK    5  A    between atoms: N_8  and  C_14
REMARK    6  A    between atoms: C_9  and  C_13
REMARK    7  A    between atoms: C_12  and  C_14
REMARK    8  A    between atoms: C_13  and  C_15
REMARK    9  A    between atoms: C_22  and  C_25
REMARK                            x       y       z     vdW  Elec       q    Type
REMARK                         _______ _______ _______ _____ _____    ______ ____
ROOT
ATOM      1  O   UNL     1      -0.782   3.297  23.503  0.00  0.00    -0.366 OA
ATOM      9  C   UNL     1      -2.032   4.021  23.568  0.00  0.00    +0.159 C 
ATOM     10  C   UNL     1      -2.277   4.325  25.041  0.00  0.00    +0.175 C 
ATOM     11  C   UNL     1      -1.569   3.172  25.723  0.00  0.00    +0.176 C 
ATOM     12  C   UNL     1      -0.342   3.006  24.842  0.00  0.00    +0.167 C 
ENDROOT
BRANCH  10   2
ATOM      2  O   UNL     1      -1.631   5.558  25.354  0.00  0.00    -0.387 OA
ATOM     27  H   UNL     1      -1.596   6.083  24.536  0.00  0.00    +0.210 HD
ENDBRANCH  10   2
BRANCH  11   3
ATOM      3  O   UNL     1      -1.224   3.442  27.065  0.00  0.00    -0.387 OA
ATOM     28  H   UNL     1      -1.984   3.192  27.618  0.00  0.00    +0.210 HD
ENDBRANCH  11   3
BRANCH   9  13
ATOM     13  C   UNL     1      -3.111   3.142  22.952  0.00  0.00    +0.130 C 
BRANCH  13  15
ATOM      4  O   UNL     1      -1.852   1.283  22.192  0.00  0.00    -0.275 OA
ATOM      7  N   UNL     1      -3.294   0.939  23.993  0.00  0.00    -0.271 N 
ATOM     15  C   UNL     1      -2.684   1.693  23.001  0.00  0.00    +0.222 C 
ATOM     16  C   UNL     1      -4.293   1.433  24.964  0.00  0.00    +0.118 C 
ATOM     17  C   UNL     1      -4.685   0.262  25.870  0.00  0.00    +0.056 C 
ATOM     18  C   UNL     1      -3.070  -0.430  24.248  0.00  0.00    +0.039 A 
ATOM     19  C   UNL     1      -3.856  -0.852  25.322  0.00  0.00    -0.024 A 
ATOM     20  C   UNL     1      -2.224  -1.319  23.599  0.00  0.00    +0.024 A 
ATOM     21  C   UNL     1      -3.817  -2.164  25.772  0.00  0.00    +0.005 A 
ATOM     23  C   UNL     1      -2.180  -2.643  24.047  0.00  0.00    +0.002 A 
ATOM     24  C   UNL     1      -2.971  -3.063  25.125  0.00  0.00    +0.000 A 
ENDBRANCH  13  15
ENDBRANCH   9  13
BRANCH  12  14
ATOM     14  C   UNL     1       0.251   1.609  24.893  0.00  0.00    +0.138 C 
BRANCH  14   8
ATOM      5  O   UNL     1       0.866  -0.563  23.084  0.00  0.00    -0.273 OA
ATOM      8  N   UNL     1       1.389   1.498  24.029  0.00  0.00    -0.311 N 
ATOM     22  C   UNL     1       1.607   0.411  23.187  0.00  0.00    +0.239 C 
ATOM     29  H   UNL     1       2.063   2.258  24.032  0.00  0.00    +0.149 HD
BRANCH  22  25
ATOM     25  C   UNL     1       2.884   0.556  22.389  0.00  0.00    +0.255 C 
BRANCH  25   6
ATOM      6  O   UNL     1       3.908   1.117  23.184  0.00  0.00    -0.374 OA
ATOM     26  C   UNL     1       5.041   0.257  23.274  0.00  0.00    +0.194 C 
ENDBRANCH  25   6
ENDBRANCH  22  25
ENDBRANCH  14   8
ENDBRANCH  12  14
TORSDOF 8
ENDMDL
MODEL 7
REMARK VINA RESULT:      -2.9      2.641      5.204
REMARK  Name = 40777850
REMARK  9 active torsions:
REMARK  status: ('A' for Active; 'I' for Inactive)
REMARK    1  A    between atoms: O_2  and  C_10
REMARK    2  A    between atoms: O_3  and  C_11
REMARK    3  A    between atoms: O_6  and  C_25
REMARK    4  A    between atoms: O_6  and  C_26
REMARK    5  A    between atoms: N_8  and  C_14
REMARK    6  A    between atoms: C_9  and  C_13
REMARK    7  A    between atoms: C_12  and  C_14
REMARK    8  A    between atoms: C_13  and  C_15
REMARK    9  A    between atoms: C_22  and  C_25
REMARK                            x       y       z     vdW  Elec       q    Type
REMARK                         _______ _______ _______ _____ _____    ______ ____
ROOT
ATOM      1  O   UNL     1      -3.827   3.861  23.843  0.00  0.00    -0.366 OA
ATOM      9  C   UNL     1      -5.091   3.256  24.197  0.00  0.00    +0.159 C 
ATOM     10  C   UNL     1      -5.246   3.432  25.703  0.00  0.00    +0.175 C 
ATOM     11  C   UNL     1      -3.804   3.460  26.167  0.00  0.00    +0.176 C 
ATOM     12  C   UNL     1      -3.140   4.244  25.048  0.00  0.00    +0.167 C 
ENDROOT
BRANCH  10   2
ATOM      2  O   UNL     1      -5.867   4.695  25.940  0.00  0.00    -0.387 OA
ATOM     27  H   UNL     1      -6.702   4.706  25.442  0.00  0.00    +0.210 HD
ENDBRANCH  10   2
BRANCH  11   3
ATOM      3  O   UNL     1      -3.633   4.080  27.423  0.00  0.00    -0.387 OA
ATOM     28  H   UNL     1      -2.807   4.595  27.384  0.00  0.00    +0.210 HD
ENDBRANCH  11   3
BRANCH   9  13
ATOM     13  C   UNL     1      -5.045   1.796  23.769  0.00  0.00    +0.130 C 
BRANCH  13  15
ATOM      4  O   UNL     1      -2.990   1.929  22.595  0.00  0.00    -0.275 OA
ATOM      7  N   UNL     1      -3.130   0.393  24.345  0.00  0.00    -0.271 N 
ATOM     15  C   UNL     1      -3.616   1.383  23.504  0.00  0.00    +0.222 C 
ATOM     16  C   UNL     1      -3.882  -0.261  25.436  0.00  0.00    +0.118 C 
ATOM     17  C   UNL     1      -2.952  -1.282  26.100  0.00  0.00    +0.056 C 
ATOM     18  C   UNL     1      -1.834  -0.164  24.305  0.00  0.00    +0.039 A 
ATOM     19  C   UNL     1      -1.699  -1.133  25.301  0.00  0.00    -0.024 A 
ATOM     20  C   UNL     1      -0.776   0.127  23.455  0.00  0.00    +0.024 A 
ATOM     21  C   UNL     1      -0.512  -1.830  25.473  0.00  0.00    +0.005 A 
ATOM     23  C   UNL     1       0.423  -0.574  23.621  0.00  0.00    +0.002 A 
ATOM     24  C   UNL     1       0.555  -1.545  24.622  0.00  0.00    +0.000 A 
ENDBRANCH  13  15
ENDBRANCH   9  13
BRANCH  12  14
ATOM     14  C   UNL     1      -1.657   3.951  24.907  0.00  0.00    +0.138 C 
BRANCH  14   8
ATOM      5  O   UNL     1       0.730   2.347  25.220  0.00  0.00    -0.273 OA
ATOM      8  N   UNL     1      -1.110   3.442  26.130  0.00  0.00    -0.311 N 
ATOM     22  C   UNL     1       0.050   2.675  26.189  0.00  0.00    +0.239 C 
ATOM     29  H   UNL     1      -1.595   3.663  26.995  0.00  0.00    +0.149 HD
BRANCH  22  25
ATOM     25  C   UNL     1       0.397   2.274  27.606  0.00  0.00    +0.255 C 
BRANCH  25   6
ATOM      6  O   UNL     1       1.696   2.711  27.944  0.00  0.00    -0.374 OA
ATOM     26  C   UNL     1       1.990   2.490  29.321  0.00  0.00    +0.194 C 
ENDBRANCH  25   6
ENDBRANCH  22  25
ENDBRANCH  14   8
ENDBRANCH  12  14
TORSDOF 8
ENDMDL
MODEL 8
REMARK VINA RESULT:      -2.8      1.929      2.844
REMARK  Name = 40777850
REMARK  9 active torsions:
REMARK  status: ('A' for Active; 'I' for Inactive)
REMARK    1  A    between atoms: O_2  and  C_10
REMARK    2  A    between atoms: O_3  and  C_11
REMARK    3  A    between atoms: O_6  and  C_25
REMARK    4  A    between atoms: O_6  and  C_26
REMARK    5  A    between atoms: N_8  and  C_14
REMARK    6  A    between atoms: C_9  and  C_13
REMARK    7  A    between atoms: C_12  and  C_14
REMARK    8  A    between atoms: C_13  and  C_15
REMARK    9  A    between atoms: C_22  and  C_25
REMARK                            x       y       z     vdW  Elec       q    Type
REMARK                         _______ _______ _______ _____ _____    ______ ____
ROOT
ATOM      1  O   UNL     1      -2.938  -1.241  26.036  0.00  0.00    -0.366 OA
ATOM      9  C   UNL     1      -3.146  -2.150  24.931  0.00  0.00    +0.159 C 
ATOM     10  C   UNL     1      -1.798  -2.298  24.235  0.00  0.00    +0.175 C 
ATOM     11  C   UNL     1      -1.143  -0.965  24.531  0.00  0.00    +0.176 C 
ATOM     12  C   UNL     1      -1.603  -0.709  25.956  0.00  0.00    +0.167 C 
ENDROOT
BRANCH  10   2
ATOM      2  O   UNL     1      -1.082  -3.354  24.874  0.00  0.00    -0.387 OA
ATOM     27  H   UNL     1      -0.723  -3.926  24.174  0.00  0.00    +0.210 HD
ENDBRANCH  10   2
BRANCH  11   3
ATOM      3  O   UNL     1       0.264  -0.997  24.426  0.00  0.00    -0.387 OA
ATOM     28  H   UNL     1       0.583  -0.080  24.486  0.00  0.00    +0.210 HD
ENDBRANCH  11   3
BRANCH   9  13
ATOM     13  C   UNL     1      -4.219  -1.552  24.032  0.00  0.00    +0.130 C 
BRANCH  13  15
ATOM      4  O   UNL     1      -3.102   0.229  22.937  0.00  0.00    -0.275 OA
ATOM      7  N   UNL     1      -4.657   0.787  24.585  0.00  0.00    -0.271 N 
ATOM     15  C   UNL     1      -3.931  -0.089  23.791  0.00  0.00    +0.222 C 
ATOM     16  C   UNL     1      -5.652   0.404  25.609  0.00  0.00    +0.118 C 
ATOM     17  C   UNL     1      -6.205   1.691  26.229  0.00  0.00    +0.056 C 
ATOM     18  C   UNL     1      -4.573   2.195  24.555  0.00  0.00    +0.039 A 
ATOM     19  C   UNL     1      -5.450   2.747  25.490  0.00  0.00    -0.024 A 
ATOM     20  C   UNL     1      -3.780   3.013  23.762  0.00  0.00    +0.024 A 
ATOM     21  C   UNL     1      -5.557   4.120  25.656  0.00  0.00    +0.005 A 
ATOM     23  C   UNL     1      -3.881   4.398  23.925  0.00  0.00    +0.002 A 
ATOM     24  C   UNL     1      -4.763   4.948  24.864  0.00  0.00    +0.000 A 
ENDBRANCH  13  15
ENDBRANCH   9  13
BRANCH  12  14
ATOM     14  C   UNL     1      -1.615   0.762  26.330  0.00  0.00    +0.138 C 
BRANCH  14   8
ATOM      5  O   UNL     1       0.675   2.520  26.521  0.00  0.00    -0.273 OA
ATOM      8  N   UNL     1      -1.052   1.567  25.286  0.00  0.00    -0.311 N 
ATOM     22  C   UNL     1       0.057   2.388  25.467  0.00  0.00    +0.239 C 
ATOM     29  H   UNL     1      -1.486   1.525  24.368  0.00  0.00    +0.149 HD
BRANCH  22  25
ATOM     25  C   UNL     1       0.436   3.122  24.199  0.00  0.00    +0.255 C 
BRANCH  25   6
ATOM      6  O   UNL     1      -0.558   4.063  23.852  0.00  0.00    -0.374 OA
ATOM     26  C   UNL     1      -0.702   5.074  24.846  0.00  0.00    +0.194 C 
ENDBRANCH  25   6
ENDBRANCH  22  25
ENDBRANCH  14   8
ENDBRANCH  12  14
TORSDOF 8
ENDMDL
MODEL 9
REMARK VINA RESULT:      -2.8      1.920      5.964
REMARK  Name = 40777850
REMARK  9 active torsions:
REMARK  status: ('A' for Active; 'I' for Inactive)
REMARK    1  A    between atoms: O_2  and  C_10
REMARK    2  A    between atoms: O_3  and  C_11
REMARK    3  A    between atoms: O_6  and  C_25
REMARK    4  A    between atoms: O_6  and  C_26
REMARK    5  A    between atoms: N_8  and  C_14
REMARK    6  A    between atoms: C_9  and  C_13
REMARK    7  A    between atoms: C_12  and  C_14
REMARK    8  A    between atoms: C_13  and  C_15
REMARK    9  A    between atoms: C_22  and  C_25
REMARK                            x       y       z     vdW  Elec       q    Type
REMARK                         _______ _______ _______ _____ _____    ______ ____
ROOT
ATOM      1  O   UNL     1      -3.479   3.343  26.457  0.00  0.00    -0.366 OA
ATOM      9  C   UNL     1      -2.103   3.580  26.082  0.00  0.00    +0.159 C 
ATOM     10  C   UNL     1      -2.109   3.864  24.584  0.00  0.00    +0.175 C 
ATOM     11  C   UNL     1      -3.318   3.078  24.119  0.00  0.00    +0.176 C 
ATOM     12  C   UNL     1      -4.287   3.305  25.267  0.00  0.00    +0.167 C 
ENDROOT
BRANCH  10   2
ATOM      2  O   UNL     1      -2.325   5.261  24.398  0.00  0.00    -0.387 OA
ATOM     27  H   UNL     1      -2.551   5.639  25.266  0.00  0.00    +0.210 HD
ENDBRANCH  10   2
BRANCH  11   3
ATOM      3  O   UNL     1      -3.840   3.531  22.889  0.00  0.00    -0.387 OA
ATOM     28  H   UNL     1      -3.974   4.492  22.965  0.00  0.00    +0.210 HD
ENDBRANCH  11   3
BRANCH   9  13
ATOM     13  C   UNL     1      -1.299   2.342  26.452  0.00  0.00    +0.130 C 
BRANCH  13  15
ATOM      4  O   UNL     1       0.842   3.134  25.811  0.00  0.00    -0.275 OA
ATOM      7  N   UNL     1       0.023   1.244  24.715  0.00  0.00    -0.271 N 
ATOM     15  C   UNL     1      -0.033   2.286  25.629  0.00  0.00    +0.222 C 
ATOM     16  C   UNL     1      -1.027   0.226  24.498  0.00  0.00    +0.118 C 
ATOM     17  C   UNL     1      -0.537  -0.727  23.403  0.00  0.00    +0.056 C 
ATOM     18  C   UNL     1       1.090   0.973  23.833  0.00  0.00    +0.039 A 
ATOM     19  C   UNL     1       0.800  -0.154  23.062  0.00  0.00    -0.024 A 
ATOM     20  C   UNL     1       2.290   1.651  23.668  0.00  0.00    +0.024 A 
ATOM     21  C   UNL     1       1.694  -0.630  22.114  0.00  0.00    +0.005 A 
ATOM     23  C   UNL     1       3.196   1.178  22.713  0.00  0.00    +0.002 A 
ATOM     24  C   UNL     1       2.901   0.046  21.942  0.00  0.00    +0.000 A 
ENDBRANCH  13  15
ENDBRANCH   9  13
BRANCH  12  14
ATOM     14  C   UNL     1      -5.334   2.213  25.395  0.00  0.00    +0.138 C 
BRANCH  14   8
ATOM      5  O   UNL     1      -4.086  -0.319  26.026  0.00  0.00    -0.273 OA
ATOM      8  N   UNL     1      -5.067   1.131  24.494  0.00  0.00    -0.311 N 
ATOM     22  C   UNL     1      -4.460  -0.059  24.886  0.00  0.00    +0.239 C 
ATOM     29  H   UNL     1      -5.345   1.242  23.523  0.00  0.00    +0.149 HD
BRANCH  22  25
ATOM     25  C   UNL     1      -4.302  -1.024  23.731  0.00  0.00    +0.255 C 
BRANCH  25   6
ATOM      6  O   UNL     1      -4.461  -2.357  24.171  0.00  0.00    -0.374 OA
ATOM     26  C   UNL     1      -3.211  -2.962  24.495  0.00  0.00    +0.194 C 
ENDBRANCH  25   6
ENDBRANCH  22  25
ENDBRANCH  14   8
ENDBRANCH  12  14
TORSDOF 8
ENDMDL
MODEL 10
REMARK VINA RESULT:      -2.6      2.132      6.380
REMARK  Name = 40777850
REMARK  9 active torsions:
REMARK  status: ('A' for Active; 'I' for Inactive)
REMARK    1  A    between atoms: O_2  and  C_10
REMARK    2  A    between atoms: O_3  and  C_11
REMARK    3  A    between atoms: O_6  and  C_25
REMARK    4  A    between atoms: O_6  and  C_26
REMARK    5  A    between atoms: N_8  and  C_14
REMARK    6  A    between atoms: C_9  and  C_13
REMARK    7  A    between atoms: C_12  and  C_14
REMARK    8  A    between atoms: C_13  and  C_15
REMARK    9  A    between atoms: C_22  and  C_25
REMARK                            x       y       z     vdW  Elec       q    Type
REMARK                         _______ _______ _______ _____ _____    ______ ____
ROOT
ATOM      1  O   UNL     1       0.119   3.231  25.994  0.00  0.00    -0.366 OA
ATOM      9  C   UNL     1       0.260   1.810  25.771  0.00  0.00    +0.159 C 
ATOM     10  C   UNL     1       0.110   1.592  24.270  0.00  0.00    +0.175 C 
ATOM     11  C   UNL     1      -0.791   2.744  23.873  0.00  0.00    +0.176 C 
ATOM     12  C   UNL     1      -0.263   3.861  24.757  0.00  0.00    +0.167 C 
ENDROOT
BRANCH  10   2
ATOM      2  O   UNL     1       1.395   1.740  23.670  0.00  0.00    -0.387 OA
ATOM     27  H   UNL     1       1.490   1.032  23.009  0.00  0.00    +0.210 HD
ENDBRANCH  10   2
BRANCH  11   3
ATOM      3  O   UNL     1      -0.710   3.071  22.502  0.00  0.00    -0.387 OA
ATOM     28  H   UNL     1      -0.645   2.236  22.007  0.00  0.00    +0.210 HD
ENDBRANCH  11   3
BRANCH   9  13
ATOM     13  C   UNL     1      -0.814   1.103  26.587  0.00  0.00    +0.130 C 
BRANCH  13  15
ATOM      4  O   UNL     1      -0.272  -1.150  26.086  0.00  0.00    -0.275 OA
ATOM      7  N   UNL     1      -2.340  -0.354  25.354  0.00  0.00    -0.271 N 
ATOM     15  C   UNL     1      -1.108  -0.252  25.985  0.00  0.00    +0.222 C 
ATOM     16  C   UNL     1      -3.342   0.726  25.234  0.00  0.00    +0.118 C 
ATOM     17  C   UNL     1      -4.545   0.164  24.469  0.00  0.00    +0.056 C 
ATOM     18  C   UNL     1      -2.849  -1.504  24.717  0.00  0.00    +0.039 A 
ATOM     19  C   UNL     1      -4.117  -1.240  24.195  0.00  0.00    -0.024 A 
ATOM     20  C   UNL     1      -2.273  -2.758  24.569  0.00  0.00    +0.024 A 
ATOM     21  C   UNL     1      -4.837  -2.214  23.518  0.00  0.00    +0.005 A 
ATOM     23  C   UNL     1      -2.991  -3.745  23.886  0.00  0.00    +0.002 A 
ATOM     24  C   UNL     1      -4.263  -3.476  23.365  0.00  0.00    +0.000 A 
ENDBRANCH  13  15
ENDBRANCH   9  13
BRANCH  12  14
ATOM     14  C   UNL     1      -1.288   4.947  25.032  0.00  0.00    +0.138 C 
BRANCH  14   8
ATOM      5  O   UNL     1      -3.361   4.097  26.862  0.00  0.00    -0.273 OA
ATOM      8  N   UNL     1      -2.611   4.506  24.698  0.00  0.00    -0.311 N 
ATOM     22  C   UNL     1      -3.549   4.114  25.648  0.00  0.00    +0.239 C 
ATOM     29  H   UNL     1      -2.872   4.490  23.716  0.00  0.00    +0.149 HD
BRANCH  22  25
ATOM     25  C   UNL     1      -4.860   3.699  25.017  0.00  0.00    +0.255 C 
BRANCH  25   6
ATOM      6  O   UNL     1      -5.884   3.637  25.988  0.00  0.00    -0.374 OA
ATOM     26  C   UNL     1      -6.302   2.296  26.233  0.00  0.00    +0.194 C 
ENDBRANCH  25   6
ENDBRANCH  22  25
ENDBRANCH  14   8
ENDBRANCH  12  14
TORSDOF 8
ENDMDL
