MODEL 1
REMARK VINA RESULT:      -1.1      0.000      0.000
REMARK  Name = 26763150
REMARK  15 active torsions:
REMARK  status: ('A' for Active; 'I' for Inactive)
REMARK    1  A    between atoms: O_4  and  C_30
REMARK    2  A    between atoms: O_4  and  C_33
REMARK    3  A    between atoms: N_7  and  C_10
REMARK    4  A    between atoms: N_8  and  C_14
REMARK    5  A    between atoms: N_9  and  C_25
REMARK    6  A    between atoms: C_11  and  C_15
REMARK    7  A    between atoms: C_16  and  C_19
REMARK    8  A    between atoms: C_19  and  C_20
REMARK    9  A    between atoms: C_20  and  C_26
REMARK   10  A    between atoms: C_20  and  C_27
REMARK   11  A    between atoms: C_20  and  C_28
REMARK   12  A    between atoms: C_25  and  C_29
REMARK   13  A    between atoms: C_25  and  C_30
REMARK   14  A    between atoms: C_29  and  C_31
REMARK   15  A    between atoms: C_29  and  C_32
REMARK                            x       y       z     vdW  Elec       q    Type
REMARK                         _______ _______ _______ _____ _____    ______ ____
ROOT
ATOM      2  O   UNL     1      -1.429  -0.523  26.777  0.00  0.00    -0.276 OA
ATOM      6  N   UNL     1      -1.211   0.634  24.783  0.00  0.00    -0.288 N 
ATOM     10  C   UNL     1      -0.158   2.672  24.185  0.00  0.00    +0.105 C 
ATOM     11  C   UNL     1      -0.714   1.876  25.366  0.00  0.00    +0.182 C 
ATOM     12  C   UNL     1      -0.983   2.170  22.997  0.00  0.00    +0.043 C 
ATOM     13  C   UNL     1      -1.238   0.705  23.325  0.00  0.00    +0.110 C 
ATOM     16  C   UNL     1      -1.460  -0.497  25.545  0.00  0.00    +0.217 C 
ENDROOT
BRANCH  10   7
ATOM      3  O   UNL     1       1.000   0.620  22.538  0.00  0.00    -0.253 OA
ATOM      7  N   UNL     1       1.249   2.407  23.997  0.00  0.00    -0.294 N 
ATOM      8  N   UNL     1       3.113   1.347  23.169  0.00  0.00    -0.297 N 
ATOM     24  C   UNL     1       1.721   1.387  23.175  0.00  0.00    +0.300 C 
ATOM     34  H   UNL     1       1.924   3.028  24.430  0.00  0.00    +0.151 HD
ATOM     35  H   UNL     1       3.611   2.073  23.675  0.00  0.00    +0.151 HD
BRANCH   8  14
ATOM     14  C   UNL     1       3.874   0.387  22.401  0.00  0.00    +0.074 C 
ATOM     17  C   UNL     1       5.376   0.534  22.667  0.00  0.00    +0.022 C 
ATOM     18  C   UNL     1       3.398  -1.043  22.680  0.00  0.00    +0.022 C 
ATOM     21  C   UNL     1       5.774   0.043  24.059  0.00  0.00    +0.002 C 
ATOM     22  C   UNL     1       3.800  -1.531  24.072  0.00  0.00    +0.002 C 
ATOM     23  C   UNL     1       5.300  -1.385  24.309  0.00  0.00    +0.000 C 
ENDBRANCH   8  14
ENDBRANCH  10   7
BRANCH  11  15
ATOM      1  O   UNL     1      -1.764   3.431  26.842  0.00  0.00    -0.274 OA
ATOM      9  N   UNL     1      -3.097   2.082  25.490  0.00  0.00    -0.301 N 
ATOM     15  C   UNL     1      -1.895   2.561  25.984  0.00  0.00    +0.236 C 
ATOM     36  H   UNL     1      -3.077   1.400  24.740  0.00  0.00    +0.150 HD
BRANCH   9  25
ATOM     25  C   UNL     1      -4.383   2.562  25.940  0.00  0.00    +0.184 C 
BRANCH  25  29
ATOM     29  C   UNL     1      -5.494   1.499  25.797  0.00  0.00    +0.014 C 
ATOM     31  C   UNL     1      -6.476   1.562  26.970  0.00  0.00    +0.009 C 
ATOM     32  C   UNL     1      -6.258   1.596  24.472  0.00  0.00    +0.009 C 
ENDBRANCH  25  29
BRANCH  25  30
ATOM      5  O   UNL     1      -5.775   4.501  25.549  0.00  0.00    -0.249 OA
ATOM     30  C   UNL     1      -4.771   3.864  25.248  0.00  0.00    +0.328 C 
BRANCH  30   4
ATOM      4  O   UNL     1      -3.882   4.217  24.278  0.00  0.00    -0.467 OA
ATOM     33  C   UNL     1      -4.101   3.635  22.989  0.00  0.00    +0.280 C 
ENDBRANCH  30   4
ENDBRANCH  25  30
ENDBRANCH   9  25
ENDBRANCH  11  15
BRANCH  16  19
ATOM     19  C   UNL     1      -1.794  -1.745  24.767  0.00  0.00    +0.102 C 
BRANCH  19  20
ATOM     20  C   UNL     1      -3.302  -2.051  24.746  0.00  0.00    -0.029 C 
ATOM     26  C   UNL     1      -3.561  -3.558  24.576  0.00  0.00    +0.011 C 
ATOM     27  C   UNL     1      -4.010  -1.281  23.619  0.00  0.00    +0.011 C 
ATOM     28  C   UNL     1      -3.893  -1.602  26.096  0.00  0.00    +0.011 C 
ENDBRANCH  19  20
ENDBRANCH  16  19
TORSDOF 9
ENDMDL
MODEL 2
REMARK VINA RESULT:       2.2      1.713      7.143
REMARK  Name = 26763150
REMARK  15 active torsions:
REMARK  status: ('A' for Active; 'I' for Inactive)
REMARK    1  A    between atoms: O_4  and  C_30
REMARK    2  A    between atoms: O_4  and  C_33
REMARK    3  A    between atoms: N_7  and  C_10
REMARK    4  A    between atoms: N_8  and  C_14
REMARK    5  A    between atoms: N_9  and  C_25
REMARK    6  A    between atoms: C_11  and  C_15
REMARK    7  A    between atoms: C_16  and  C_19
REMARK    8  A    between atoms: C_19  and  C_20
REMARK    9  A    between atoms: C_20  and  C_26
REMARK   10  A    between atoms: C_20  and  C_27
REMARK   11  A    between atoms: C_20  and  C_28
REMARK   12  A    between atoms: C_25  and  C_29
REMARK   13  A    between atoms: C_25  and  C_30
REMARK   14  A    between atoms: C_29  and  C_31
REMARK   15  A    between atoms: C_29  and  C_32
REMARK                            x       y       z     vdW  Elec       q    Type
REMARK                         _______ _______ _______ _____ _____    ______ ____
ROOT
ATOM      2  O   UNL     1      -1.009  -0.636  23.051  0.00  0.00    -0.276 OA
ATOM      6  N   UNL     1      -0.409   0.429  25.016  0.00  0.00    -0.288 N 
ATOM     10  C   UNL     1       0.145   2.670  25.555  0.00  0.00    +0.105 C 
ATOM     11  C   UNL     1       0.037   1.674  24.401  0.00  0.00    +0.182 C 
ATOM     12  C   UNL     1       0.434   1.780  26.767  0.00  0.00    +0.043 C 
ATOM     13  C   UNL     1      -0.341   0.503  26.473  0.00  0.00    +0.110 C 
ATOM     16  C   UNL     1      -0.969  -0.605  24.281  0.00  0.00    +0.217 C 
ENDROOT
BRANCH  10   7
ATOM      3  O   UNL     1      -2.169   2.561  23.853  0.00  0.00    -0.253 OA
ATOM      7  N   UNL     1      -1.087   3.404  25.724  0.00  0.00    -0.294 N 
ATOM      8  N   UNL     1      -3.222   4.100  25.236  0.00  0.00    -0.297 N 
ATOM     24  C   UNL     1      -2.161   3.288  24.845  0.00  0.00    +0.300 C 
ATOM     34  H   UNL     1      -1.201   3.981  26.551  0.00  0.00    +0.151 HD
ATOM     35  H   UNL     1      -3.137   4.604  26.112  0.00  0.00    +0.151 HD
BRANCH   8  14
ATOM     14  C   UNL     1      -4.469   4.178  24.507  0.00  0.00    +0.074 C 
ATOM     17  C   UNL     1      -4.606   3.011  23.523  0.00  0.00    +0.022 C 
ATOM     18  C   UNL     1      -5.663   4.240  25.464  0.00  0.00    +0.022 C 
ATOM     21  C   UNL     1      -4.866   1.680  24.227  0.00  0.00    +0.002 C 
ATOM     22  C   UNL     1      -5.921   2.906  26.165  0.00  0.00    +0.002 C 
ATOM     23  C   UNL     1      -6.065   1.763  25.165  0.00  0.00    +0.000 C 
ENDBRANCH   8  14
ENDBRANCH  10   7
BRANCH  11  15
ATOM      1  O   UNL     1       2.148   2.297  23.475  0.00  0.00    -0.274 OA
ATOM      9  N   UNL     1       1.601   0.038  23.617  0.00  0.00    -0.301 N 
ATOM     15  C   UNL     1       1.377   1.393  23.790  0.00  0.00    +0.236 C 
ATOM     36  H   UNL     1       0.911  -0.618  23.969  0.00  0.00    +0.150 HD
BRANCH   9  25
ATOM     25  C   UNL     1       2.808  -0.495  23.027  0.00  0.00    +0.184 C 
BRANCH  25  29
ATOM     29  C   UNL     1       4.007  -0.458  24.000  0.00  0.00    +0.014 C 
ATOM     31  C   UNL     1       4.709  -1.818  24.067  0.00  0.00    +0.009 C 
ATOM     32  C   UNL     1       5.024   0.638  23.664  0.00  0.00    +0.009 C 
ENDBRANCH  25  29
BRANCH  25  30
ATOM      5  O   UNL     1       4.114   0.932  21.576  0.00  0.00    -0.249 OA
ATOM     30  C   UNL     1       3.142   0.196  21.710  0.00  0.00    +0.328 C 
BRANCH  30   4
ATOM      4  O   UNL     1       2.245  -0.102  20.729  0.00  0.00    -0.467 OA
ATOM     33  C   UNL     1       1.115  -0.882  21.133  0.00  0.00    +0.280 C 
ENDBRANCH  30   4
ENDBRANCH  25  30
ENDBRANCH   9  25
ENDBRANCH  11  15
BRANCH  16  19
ATOM     19  C   UNL     1      -1.541  -1.742  25.091  0.00  0.00    +0.102 C 
BRANCH  19  20
ATOM     20  C   UNL     1      -3.074  -1.835  24.991  0.00  0.00    -0.029 C 
ATOM     26  C   UNL     1      -3.536  -3.298  24.876  0.00  0.00    +0.011 C 
ATOM     27  C   UNL     1      -3.602  -1.037  23.787  0.00  0.00    +0.011 C 
ATOM     28  C   UNL     1      -3.668  -1.234  26.279  0.00  0.00    +0.011 C 
ENDBRANCH  19  20
ENDBRANCH  16  19
TORSDOF 9
ENDMDL
MODEL 3
REMARK VINA RESULT:       2.6      2.340      4.098
REMARK  Name = 26763150
REMARK  15 active torsions:
REMARK  status: ('A' for Active; 'I' for Inactive)
REMARK    1  A    between atoms: O_4  and  C_30
REMARK    2  A    between atoms: O_4  and  C_33
REMARK    3  A    between atoms: N_7  and  C_10
REMARK    4  A    between atoms: N_8  and  C_14
REMARK    5  A    between atoms: N_9  and  C_25
REMARK    6  A    between atoms: C_11  and  C_15
REMARK    7  A    between atoms: C_16  and  C_19
REMARK    8  A    between atoms: C_19  and  C_20
REMARK    9  A    between atoms: C_20  and  C_26
REMARK   10  A    between atoms: C_20  and  C_27
REMARK   11  A    between atoms: C_20  and  C_28
REMARK   12  A    between atoms: C_25  and  C_29
REMARK   13  A    between atoms: C_25  and  C_30
REMARK   14  A    between atoms: C_29  and  C_31
REMARK   15  A    between atoms: C_29  and  C_32
REMARK                            x       y       z     vdW  Elec       q    Type
REMARK                         _______ _______ _______ _____ _____    ______ ____
ROOT
ATOM      2  O   UNL     1       0.338   3.278  26.503  0.00  0.00    -0.276 OA
ATOM      6  N   UNL     1      -0.456   1.125  26.200  0.00  0.00    -0.288 N 
ATOM     10  C   UNL     1      -0.595  -0.314  24.321  0.00  0.00    +0.105 C 
ATOM     11  C   UNL     1      -0.443   1.147  24.741  0.00  0.00    +0.182 C 
ATOM     12  C   UNL     1      -1.363  -0.943  25.487  0.00  0.00    +0.043 C 
ATOM     13  C   UNL     1      -0.853  -0.186  26.706  0.00  0.00    +0.110 C 
ATOM     16  C   UNL     1       0.011   2.183  26.964  0.00  0.00    +0.217 C 
ENDROOT
BRANCH  10   7
ATOM      3  O   UNL     1       1.543   0.603  22.631  0.00  0.00    -0.253 OA
ATOM      7  N   UNL     1       0.695  -0.939  24.144  0.00  0.00    -0.294 N 
ATOM      8  N   UNL     1       2.821  -1.212  23.313  0.00  0.00    -0.297 N 
ATOM     24  C   UNL     1       1.675  -0.421  23.300  0.00  0.00    +0.300 C 
ATOM     34  H   UNL     1       0.924  -1.754  24.704  0.00  0.00    +0.151 HD
ATOM     35  H   UNL     1       2.850  -1.996  23.957  0.00  0.00    +0.151 HD
BRANCH   8  14
ATOM     14  C   UNL     1       3.999  -0.911  22.529  0.00  0.00    +0.074 C 
ATOM     17  C   UNL     1       4.136   0.597  22.298  0.00  0.00    +0.022 C 
ATOM     18  C   UNL     1       5.257  -1.490  23.184  0.00  0.00    +0.022 C 
ATOM     21  C   UNL     1       4.538   1.349  23.567  0.00  0.00    +0.002 C 
ATOM     22  C   UNL     1       5.658  -0.734  24.452  0.00  0.00    +0.002 C 
ATOM     23  C   UNL     1       5.799   0.763  24.193  0.00  0.00    +0.000 C 
ENDBRANCH   8  14
ENDBRANCH  10   7
BRANCH  11  15
ATOM      1  O   UNL     1      -1.550   2.784  23.401  0.00  0.00    -0.274 OA
ATOM      9  N   UNL     1      -2.750   1.701  25.078  0.00  0.00    -0.301 N 
ATOM     15  C   UNL     1      -1.625   1.967  24.316  0.00  0.00    +0.236 C 
ATOM     36  H   UNL     1      -2.703   0.961  25.770  0.00  0.00    +0.150 HD
BRANCH   9  25
ATOM     25  C   UNL     1      -4.013   2.374  24.884  0.00  0.00    +0.184 C 
BRANCH  25  29
ATOM     29  C   UNL     1      -4.231   3.524  25.892  0.00  0.00    +0.014 C 
ATOM     31  C   UNL     1      -2.941   4.317  26.116  0.00  0.00    +0.009 C 
ATOM     32  C   UNL     1      -5.364   4.474  25.489  0.00  0.00    +0.009 C 
ENDBRANCH  25  29
BRANCH  25  30
ATOM      5  O   UNL     1      -6.336   1.736  24.669  0.00  0.00    -0.249 OA
ATOM     30  C   UNL     1      -5.180   1.394  24.901  0.00  0.00    +0.328 C 
BRANCH  30   4
ATOM      4  O   UNL     1      -4.785   0.125  25.198  0.00  0.00    -0.467 OA
ATOM     33  C   UNL     1      -4.488  -0.714  24.077  0.00  0.00    +0.280 C 
ENDBRANCH  30   4
ENDBRANCH  25  30
ENDBRANCH   9  25
ENDBRANCH  11  15
BRANCH  16  19
ATOM     19  C   UNL     1       0.096   1.926  28.448  0.00  0.00    +0.102 C 
BRANCH  19  20
ATOM     20  C   UNL     1       1.349   2.544  29.092  0.00  0.00    -0.029 C 
ATOM     26  C   UNL     1       2.223   3.250  28.041  0.00  0.00    +0.011 C 
ATOM     27  C   UNL     1       2.185   1.477  29.817  0.00  0.00    +0.011 C 
ATOM     28  C   UNL     1       0.884   3.589  30.123  0.00  0.00    +0.011 C 
ENDBRANCH  19  20
ENDBRANCH  16  19
TORSDOF 9
ENDMDL
MODEL 4
REMARK VINA RESULT:       2.7      1.795      4.233
REMARK  Name = 26763150
REMARK  15 active torsions:
REMARK  status: ('A' for Active; 'I' for Inactive)
REMARK    1  A    between atoms: O_4  and  C_30
REMARK    2  A    between atoms: O_4  and  C_33
REMARK    3  A    between atoms: N_7  and  C_10
REMARK    4  A    between atoms: N_8  and  C_14
REMARK    5  A    between atoms: N_9  and  C_25
REMARK    6  A    between atoms: C_11  and  C_15
REMARK    7  A    between atoms: C_16  and  C_19
REMARK    8  A    between atoms: C_19  and  C_20
REMARK    9  A    between atoms: C_20  and  C_26
REMARK   10  A    between atoms: C_20  and  C_27
REMARK   11  A    between atoms: C_20  and  C_28
REMARK   12  A    between atoms: C_25  and  C_29
REMARK   13  A    between atoms: C_25  and  C_30
REMARK   14  A    between atoms: C_29  and  C_31
REMARK   15  A    between atoms: C_29  and  C_32
REMARK                            x       y       z     vdW  Elec       q    Type
REMARK                         _______ _______ _______ _____ _____    ______ ____
ROOT
ATOM      2  O   UNL     1      -2.576   4.502  23.470  0.00  0.00    -0.276 OA
ATOM      6  N   UNL     1      -1.619   2.812  24.729  0.00  0.00    -0.288 N 
ATOM     10  C   UNL     1      -0.321   0.904  24.183  0.00  0.00    +0.105 C 
ATOM     11  C   UNL     1      -1.293   1.935  23.609  0.00  0.00    +0.182 C 
ATOM     12  C   UNL     1      -0.705   0.839  25.664  0.00  0.00    +0.043 C 
ATOM     13  C   UNL     1      -1.132   2.263  25.992  0.00  0.00    +0.110 C 
ATOM     16  C   UNL     1      -2.175   4.069  24.551  0.00  0.00    +0.217 C 
ENDROOT
BRANCH  10   7
ATOM      3  O   UNL     1       1.741  -0.466  22.721  0.00  0.00    -0.253 OA
ATOM      7  N   UNL     1       1.048   1.332  24.014  0.00  0.00    -0.294 N 
ATOM      8  N   UNL     1       3.223   1.233  23.277  0.00  0.00    -0.297 N 
ATOM     24  C   UNL     1       1.982   0.601  23.284  0.00  0.00    +0.300 C 
ATOM     34  H   UNL     1       1.327   2.234  24.387  0.00  0.00    +0.151 HD
ATOM     35  H   UNL     1       3.293   2.147  23.713  0.00  0.00    +0.151 HD
BRANCH   8  14
ATOM     14  C   UNL     1       4.380   0.697  22.594  0.00  0.00    +0.074 C 
ATOM     17  C   UNL     1       5.675   1.090  23.313  0.00  0.00    +0.022 C 
ATOM     18  C   UNL     1       4.271  -0.823  22.438  0.00  0.00    +0.022 C 
ATOM     21  C   UNL     1       5.858   0.348  24.636  0.00  0.00    +0.002 C 
ATOM     22  C   UNL     1       4.457  -1.562  23.764  0.00  0.00    +0.002 C 
ATOM     23  C   UNL     1       5.757  -1.163  24.454  0.00  0.00    +0.000 C 
ENDBRANCH   8  14
ENDBRANCH  10   7
BRANCH  11  15
ATOM      1  O   UNL     1      -3.135   1.607  22.126  0.00  0.00    -0.274 OA
ATOM      9  N   UNL     1      -3.040   0.371  24.098  0.00  0.00    -0.301 N 
ATOM     15  C   UNL     1      -2.579   1.297  23.178  0.00  0.00    +0.236 C 
ATOM     36  H   UNL     1      -2.463   0.158  24.904  0.00  0.00    +0.150 HD
BRANCH   9  25
ATOM     25  C   UNL     1      -4.271  -0.367  23.928  0.00  0.00    +0.184 C 
BRANCH  25  29
ATOM     29  C   UNL     1      -5.386   0.117  24.880  0.00  0.00    +0.014 C 
ATOM     31  C   UNL     1      -4.820   0.487  26.254  0.00  0.00    +0.009 C 
ATOM     32  C   UNL     1      -6.196   1.290  24.317  0.00  0.00    +0.009 C 
ENDBRANCH  25  29
BRANCH  25  30
ATOM      5  O   UNL     1      -4.672  -2.691  23.390  0.00  0.00    -0.249 OA
ATOM     30  C   UNL     1      -4.048  -1.869  24.055  0.00  0.00    +0.328 C 
BRANCH  30   4
ATOM      4  O   UNL     1      -3.091  -2.173  24.977  0.00  0.00    -0.467 OA
ATOM     33  C   UNL     1      -1.824  -2.577  24.449  0.00  0.00    +0.280 C 
ENDBRANCH  30   4
ENDBRANCH  25  30
ENDBRANCH   9  25
ENDBRANCH  11  15
BRANCH  16  19
ATOM     19  C   UNL     1      -2.281   4.915  25.796  0.00  0.00    +0.102 C 
BRANCH  19  20
ATOM     20  C   UNL     1      -3.572   4.652  26.590  0.00  0.00    -0.029 C 
ATOM     26  C   UNL     1      -3.262   4.044  27.969  0.00  0.00    +0.011 C 
ATOM     27  C   UNL     1      -4.517   3.714  25.820  0.00  0.00    +0.011 C 
ATOM     28  C   UNL     1      -4.282   6.002  26.799  0.00  0.00    +0.011 C 
ENDBRANCH  19  20
ENDBRANCH  16  19
TORSDOF 9
ENDMDL
MODEL 5
REMARK VINA RESULT:       2.8      2.305      3.906
REMARK  Name = 26763150
REMARK  15 active torsions:
REMARK  status: ('A' for Active; 'I' for Inactive)
REMARK    1  A    between atoms: O_4  and  C_30
REMARK    2  A    between atoms: O_4  and  C_33
REMARK    3  A    between atoms: N_7  and  C_10
REMARK    4  A    between atoms: N_8  and  C_14
REMARK    5  A    between atoms: N_9  and  C_25
REMARK    6  A    between atoms: C_11  and  C_15
REMARK    7  A    between atoms: C_16  and  C_19
REMARK    8  A    between atoms: C_19  and  C_20
REMARK    9  A    between atoms: C_20  and  C_26
REMARK   10  A    between atoms: C_20  and  C_27
REMARK   11  A    between atoms: C_20  and  C_28
REMARK   12  A    between atoms: C_25  and  C_29
REMARK   13  A    between atoms: C_25  and  C_30
REMARK   14  A    between atoms: C_29  and  C_31
REMARK   15  A    between atoms: C_29  and  C_32
REMARK                            x       y       z     vdW  Elec       q    Type
REMARK                         _______ _______ _______ _____ _____    ______ ____
ROOT
ATOM      2  O   UNL     1       0.369   3.158  26.620  0.00  0.00    -0.276 OA
ATOM      6  N   UNL     1      -0.403   1.006  26.259  0.00  0.00    -0.288 N 
ATOM     10  C   UNL     1      -0.579  -0.364  24.331  0.00  0.00    +0.105 C 
ATOM     11  C   UNL     1      -0.436   1.083  24.802  0.00  0.00    +0.182 C 
ATOM     12  C   UNL     1      -1.302  -1.048  25.496  0.00  0.00    +0.043 C 
ATOM     13  C   UNL     1      -0.766  -0.329  26.727  0.00  0.00    +0.110 C 
ATOM     16  C   UNL     1       0.072   2.041  27.048  0.00  0.00    +0.217 C 
ENDROOT
BRANCH  10   7
ATOM      3  O   UNL     1       1.551   0.727  22.737  0.00  0.00    -0.253 OA
ATOM      7  N   UNL     1       0.713  -0.961  24.091  0.00  0.00    -0.294 N 
ATOM      8  N   UNL     1       2.839  -1.140  23.234  0.00  0.00    -0.297 N 
ATOM     24  C   UNL     1       1.689  -0.357  23.302  0.00  0.00    +0.300 C 
ATOM     34  H   UNL     1       0.947  -1.826  24.568  0.00  0.00    +0.151 HD
ATOM     35  H   UNL     1       2.873  -1.984  23.797  0.00  0.00    +0.151 HD
BRANCH   8  14
ATOM     14  C   UNL     1       4.013  -0.757  22.482  0.00  0.00    +0.074 C 
ATOM     17  C   UNL     1       4.169   0.767  22.442  0.00  0.00    +0.022 C 
ATOM     18  C   UNL     1       5.270  -1.429  23.045  0.00  0.00    +0.022 C 
ATOM     21  C   UNL     1       4.593   1.347  23.791  0.00  0.00    +0.002 C 
ATOM     22  C   UNL     1       5.692  -0.844  24.394  0.00  0.00    +0.002 C 
ATOM     23  C   UNL     1       5.851   0.671  24.325  0.00  0.00    +0.000 C 
ENDBRANCH   8  14
ENDBRANCH  10   7
BRANCH  11  15
ATOM      1  O   UNL     1      -1.759   2.434  23.344  0.00  0.00    -0.274 OA
ATOM      9  N   UNL     1      -2.549   1.981  25.487  0.00  0.00    -0.301 N 
ATOM     15  C   UNL     1      -1.642   1.899  24.444  0.00  0.00    +0.236 C 
ATOM     36  H   UNL     1      -2.367   1.448  26.332  0.00  0.00    +0.150 HD
BRANCH   9  25
ATOM     25  C   UNL     1      -3.783   2.728  25.405  0.00  0.00    +0.184 C 
BRANCH  25  29
ATOM     29  C   UNL     1      -4.872   1.984  24.602  0.00  0.00    +0.014 C 
ATOM     31  C   UNL     1      -4.554   0.490  24.489  0.00  0.00    +0.009 C 
ATOM     32  C   UNL     1      -6.281   2.175  25.174  0.00  0.00    +0.009 C 
ENDBRANCH  25  29
BRANCH  25  30
ATOM      5  O   UNL     1      -4.043   4.519  23.801  0.00  0.00    -0.249 OA
ATOM     30  C   UNL     1      -3.554   4.132  24.858  0.00  0.00    +0.328 C 
BRANCH  30   4
ATOM      4  O   UNL     1      -2.758   4.881  25.672  0.00  0.00    -0.467 OA
ATOM     33  C   UNL     1      -1.570   5.405  25.071  0.00  0.00    +0.280 C 
ENDBRANCH  30   4
ENDBRANCH  25  30
ENDBRANCH   9  25
ENDBRANCH  11  15
BRANCH  16  19
ATOM     19  C   UNL     1       0.206   1.730  28.518  0.00  0.00    +0.102 C 
BRANCH  19  20
ATOM     20  C   UNL     1       1.373   2.479  29.184  0.00  0.00    -0.029 C 
ATOM     26  C   UNL     1       2.232   3.212  28.139  0.00  0.00    +0.011 C 
ATOM     27  C   UNL     1       2.262   1.519  29.992  0.00  0.00    +0.011 C 
ATOM     28  C   UNL     1       0.776   3.523  30.147  0.00  0.00    +0.011 C 
ENDBRANCH  19  20
ENDBRANCH  16  19
TORSDOF 9
ENDMDL
