MODEL 1
REMARK VINA RESULT:      -1.9      0.000      0.000
REMARK  Name = 11886015
REMARK  9 active torsions:
REMARK  status: ('A' for Active; 'I' for Inactive)
REMARK    1  A    between atoms: S_1  and  C_19
REMARK    2  A    between atoms: S_1  and  C_21
REMARK    3  A    between atoms: O_4  and  C_16
REMARK    4  A    between atoms: O_4  and  C_20
REMARK    5  A    between atoms: O_7  and  C_27
REMARK    6  A    between atoms: O_7  and  C_32
REMARK    7  A    between atoms: N_8  and  C_15
REMARK    8  A    between atoms: N_12  and  C_22
REMARK    9  A    between atoms: C_21  and  C_23
REMARK                            x       y       z     vdW  Elec       q    Type
REMARK                         _______ _______ _______ _____ _____    ______ ____
ROOT
ATOM      2  O   UNL     1      -2.309   0.400  24.975  0.00  0.00    -0.368 OA
ATOM      3  O   UNL     1      -4.666  -1.369  24.040  0.00  0.00    -0.368 OA
ATOM     13  C   UNL     1      -4.585  -0.284  24.991  0.00  0.00    +0.177 C 
ATOM     14  C   UNL     1      -3.248  -0.417  25.693  0.00  0.00    +0.192 C 
ATOM     15  C   UNL     1      -4.496   1.035  24.249  0.00  0.00    +0.168 C 
ATOM     16  C   UNL     1      -2.938  -1.887  25.544  0.00  0.00    +0.235 C 
ATOM     17  C   UNL     1      -3.000   1.170  23.981  0.00  0.00    +0.190 C 
ATOM     18  C   UNL     1      -3.499  -2.192  24.174  0.00  0.00    +0.207 C 
ENDROOT
BRANCH  15   8
ATOM      8  N   UNL     1      -5.102   2.140  24.996  0.00  0.00    -0.212 N 
ATOM      9  N   UNL     1      -6.077   1.903  25.884  0.00  0.00    -0.043 NA
ATOM     10  N   UNL     1      -5.628   4.085  25.798  0.00  0.00    -0.101 NA
ATOM     11  N   UNL     1      -6.395   3.096  26.371  0.00  0.00    -0.022 NA
ATOM     19  C   UNL     1      -4.834   3.471  24.951  0.00  0.00    +0.210 A 
BRANCH  19   1
ATOM      1  S   UNL     1      -3.641   4.176  23.932  0.00  0.00    -0.077 S 
BRANCH   1  21
ATOM     21  C   UNL     1      -2.425   4.764  25.148  0.00  0.00    +0.151 C 
BRANCH  21  23
ATOM      6  O   UNL     1      -0.550   3.545  24.194  0.00  0.00    -0.467 OA
ATOM     23  C   UNL     1      -1.296   3.786  25.305  0.00  0.00    +0.115 A 
ATOM     26  C   UNL     1      -0.831   3.049  26.368  0.00  0.00    +0.045 A 
ATOM     30  C   UNL     1       0.272   2.307  25.880  0.00  0.00    +0.041 A 
ATOM     31  C   UNL     1       0.402   2.645  24.554  0.00  0.00    +0.195 A 
ENDBRANCH  21  23
ENDBRANCH   1  21
ENDBRANCH  19   1
ENDBRANCH  15   8
BRANCH  16   4
ATOM      4  O   UNL     1      -1.563  -2.186  25.632  0.00  0.00    -0.442 OA
BRANCH   4  20
ATOM      5  O   UNL     1      -0.988  -2.983  23.567  0.00  0.00    -0.226 OA
ATOM     12  N   UNL     1       0.022  -1.075  24.474  0.00  0.00    -0.251 N 
ATOM     20  C   UNL     1      -0.842  -2.154  24.457  0.00  0.00    +0.405 C 
ATOM     33  H   UNL     1      -0.002  -0.495  25.309  0.00  0.00    +0.158 HD
BRANCH  12  22
ATOM     22  C   UNL     1       0.936  -0.678  23.473  0.00  0.00    +0.040 A 
ATOM     24  C   UNL     1       2.219  -0.258  23.827  0.00  0.00    +0.069 A 
ATOM     25  C   UNL     1       0.558  -0.706  22.130  0.00  0.00    +0.023 A 
ATOM     27  C   UNL     1       3.122   0.135  22.838  0.00  0.00    +0.122 A 
ATOM     28  C   UNL     1       1.460  -0.312  21.142  0.00  0.00    +0.005 A 
ATOM     29  C   UNL     1       2.743   0.108  21.497  0.00  0.00    +0.046 A 
BRANCH  27   7
ATOM      7  O   UNL     1       4.372   0.546  23.184  0.00  0.00    -0.495 OA
ATOM     32  C   UNL     1       5.207  -0.402  23.849  0.00  0.00    +0.277 C 
ENDBRANCH  27   7
ENDBRANCH  12  22
ENDBRANCH   4  20
ENDBRANCH  16   4
TORSDOF 8
ENDMDL
MODEL 2
REMARK VINA RESULT:       1.0      1.931      3.831
REMARK  Name = 11886015
REMARK  9 active torsions:
REMARK  status: ('A' for Active; 'I' for Inactive)
REMARK    1  A    between atoms: S_1  and  C_19
REMARK    2  A    between atoms: S_1  and  C_21
REMARK    3  A    between atoms: O_4  and  C_16
REMARK    4  A    between atoms: O_4  and  C_20
REMARK    5  A    between atoms: O_7  and  C_27
REMARK    6  A    between atoms: O_7  and  C_32
REMARK    7  A    between atoms: N_8  and  C_15
REMARK    8  A    between atoms: N_12  and  C_22
REMARK    9  A    between atoms: C_21  and  C_23
REMARK                            x       y       z     vdW  Elec       q    Type
REMARK                         _______ _______ _______ _____ _____    ______ ____
ROOT
ATOM      2  O   UNL     1      -2.150   3.537  24.666  0.00  0.00    -0.368 OA
ATOM      3  O   UNL     1      -3.263   2.245  22.087  0.00  0.00    -0.368 OA
ATOM     13  C   UNL     1      -3.506   1.981  23.487  0.00  0.00    +0.177 C 
ATOM     14  C   UNL     1      -2.185   2.177  24.204  0.00  0.00    +0.192 C 
ATOM     15  C   UNL     1      -4.411   3.057  24.056  0.00  0.00    +0.168 C 
ATOM     16  C   UNL     1      -1.172   1.931  23.111  0.00  0.00    +0.235 C 
ATOM     17  C   UNL     1      -3.425   4.156  24.441  0.00  0.00    +0.190 C 
ATOM     18  C   UNL     1      -1.866   2.512  21.901  0.00  0.00    +0.207 C 
ENDROOT
BRANCH  15   8
ATOM      8  N   UNL     1      -5.256   2.561  25.144  0.00  0.00    -0.212 N 
ATOM      9  N   UNL     1      -5.869   3.420  25.971  0.00  0.00    -0.043 NA
ATOM     10  N   UNL     1      -6.355   1.322  26.543  0.00  0.00    -0.101 NA
ATOM     11  N   UNL     1      -6.539   2.656  26.824  0.00  0.00    -0.022 NA
ATOM     19  C   UNL     1      -5.559   1.286  25.499  0.00  0.00    +0.210 A 
BRANCH  19   1
ATOM      1  S   UNL     1      -4.966  -0.105  24.680  0.00  0.00    -0.077 S 
BRANCH   1  21
ATOM     21  C   UNL     1      -3.899  -0.850  25.949  0.00  0.00    +0.151 C 
BRANCH  21  23
ATOM      6  O   UNL     1      -1.480  -0.790  25.722  0.00  0.00    -0.467 OA
ATOM     23  C   UNL     1      -2.637  -1.396  25.347  0.00  0.00    +0.115 A 
ATOM     26  C   UNL     1      -2.383  -2.417  24.462  0.00  0.00    +0.045 A 
ATOM     30  C   UNL     1      -0.979  -2.440  24.281  0.00  0.00    +0.041 A 
ATOM     31  C   UNL     1      -0.476  -1.431  25.069  0.00  0.00    +0.195 A 
ENDBRANCH  21  23
ENDBRANCH   1  21
ENDBRANCH  19   1
ENDBRANCH  15   8
BRANCH  16   4
ATOM      4  O   UNL     1       0.076   2.541  23.351  0.00  0.00    -0.442 OA
BRANCH   4  20
ATOM      5  O   UNL     1       1.077   1.675  25.216  0.00  0.00    -0.226 OA
ATOM     12  N   UNL     1       1.862   1.193  23.063  0.00  0.00    -0.251 N 
ATOM     20  C   UNL     1       1.027   1.779  23.996  0.00  0.00    +0.405 C 
ATOM     33  H   UNL     1       1.659   1.400  22.089  0.00  0.00    +0.158 HD
BRANCH  12  22
ATOM     22  C   UNL     1       2.963   0.339  23.297  0.00  0.00    +0.040 A 
ATOM     24  C   UNL     1       4.262   0.841  23.220  0.00  0.00    +0.069 A 
ATOM     25  C   UNL     1       2.752  -1.005  23.605  0.00  0.00    +0.023 A 
ATOM     27  C   UNL     1       5.350  -0.002  23.450  0.00  0.00    +0.122 A 
ATOM     28  C   UNL     1       3.839  -1.848  23.834  0.00  0.00    +0.005 A 
ATOM     29  C   UNL     1       5.138  -1.346  23.757  0.00  0.00    +0.046 A 
BRANCH  27   7
ATOM      7  O   UNL     1       6.618   0.487  23.374  0.00  0.00    -0.495 OA
ATOM     32  C   UNL     1       7.647  -0.429  23.003  0.00  0.00    +0.277 C 
ENDBRANCH  27   7
ENDBRANCH  12  22
ENDBRANCH   4  20
ENDBRANCH  16   4
TORSDOF 8
ENDMDL
MODEL 3
REMARK VINA RESULT:       1.2      2.717      3.915
REMARK  Name = 11886015
REMARK  9 active torsions:
REMARK  status: ('A' for Active; 'I' for Inactive)
REMARK    1  A    between atoms: S_1  and  C_19
REMARK    2  A    between atoms: S_1  and  C_21
REMARK    3  A    between atoms: O_4  and  C_16
REMARK    4  A    between atoms: O_4  and  C_20
REMARK    5  A    between atoms: O_7  and  C_27
REMARK    6  A    between atoms: O_7  and  C_32
REMARK    7  A    between atoms: N_8  and  C_15
REMARK    8  A    between atoms: N_12  and  C_22
REMARK    9  A    between atoms: C_21  and  C_23
REMARK                            x       y       z     vdW  Elec       q    Type
REMARK                         _______ _______ _______ _____ _____    ______ ____
ROOT
ATOM      2  O   UNL     1      -3.919   2.006  23.563  0.00  0.00    -0.368 OA
ATOM      3  O   UNL     1      -5.638   3.187  25.845  0.00  0.00    -0.368 OA
ATOM     13  C   UNL     1      -4.212   3.172  25.613  0.00  0.00    +0.177 C 
ATOM     14  C   UNL     1      -3.884   1.830  24.988  0.00  0.00    +0.192 C 
ATOM     15  C   UNL     1      -3.863   4.186  24.541  0.00  0.00    +0.168 C 
ATOM     16  C   UNL     1      -5.014   0.953  25.471  0.00  0.00    +0.235 C 
ATOM     17  C   UNL     1      -4.073   3.398  23.251  0.00  0.00    +0.190 C 
ATOM     18  C   UNL     1      -6.182   1.913  25.473  0.00  0.00    +0.207 C 
ENDROOT
BRANCH  15   8
ATOM      8  N   UNL     1      -2.525   4.753  24.719  0.00  0.00    -0.212 N 
ATOM      9  N   UNL     1      -2.231   5.965  24.227  0.00  0.00    -0.043 NA
ATOM     10  N   UNL     1      -0.452   5.098  25.253  0.00  0.00    -0.101 NA
ATOM     11  N   UNL     1      -0.962   6.171  24.557  0.00  0.00    -0.022 NA
ATOM     19  C   UNL     1      -1.436   4.233  25.343  0.00  0.00    +0.210 A 
BRANCH  19   1
ATOM      1  S   UNL     1      -1.411   2.692  26.105  0.00  0.00    -0.077 S 
BRANCH   1  21
ATOM     21  C   UNL     1       0.374   2.368  26.215  0.00  0.00    +0.151 C 
BRANCH  21  23
ATOM      6  O   UNL     1       2.178   2.783  27.791  0.00  0.00    -0.467 OA
ATOM     23  C   UNL     1       0.861   2.487  27.630  0.00  0.00    +0.115 A 
ATOM     26  C   UNL     1       0.243   2.357  28.852  0.00  0.00    +0.045 A 
ATOM     30  C   UNL     1       1.245   2.588  29.826  0.00  0.00    +0.041 A 
ATOM     31  C   UNL     1       2.403   2.842  29.129  0.00  0.00    +0.195 A 
ENDBRANCH  21  23
ENDBRANCH   1  21
ENDBRANCH  19   1
ENDBRANCH  15   8
BRANCH  16   4
ATOM      4  O   UNL     1      -5.250  -0.168  24.650  0.00  0.00    -0.442 OA
BRANCH   4  20
ATOM      5  O   UNL     1      -4.233  -1.930  23.606  0.00  0.00    -0.226 OA
ATOM     12  N   UNL     1      -3.000  -0.302  24.751  0.00  0.00    -0.251 N 
ATOM     20  C   UNL     1      -4.147  -0.904  24.270  0.00  0.00    +0.405 C 
ATOM     33  H   UNL     1      -3.134   0.551  25.287  0.00  0.00    +0.158 HD
BRANCH  12  22
ATOM     22  C   UNL     1      -1.662  -0.727  24.591  0.00  0.00    +0.040 A 
ATOM     24  C   UNL     1      -0.843  -0.107  23.647  0.00  0.00    +0.069 A 
ATOM     25  C   UNL     1      -1.160  -1.765  25.375  0.00  0.00    +0.023 A 
ATOM     27  C   UNL     1       0.479  -0.526  23.488  0.00  0.00    +0.122 A 
ATOM     28  C   UNL     1       0.161  -2.184  25.216  0.00  0.00    +0.005 A 
ATOM     29  C   UNL     1       0.980  -1.564  24.272  0.00  0.00    +0.046 A 
BRANCH  27   7
ATOM      7  O   UNL     1       1.278   0.078  22.567  0.00  0.00    -0.495 OA
ATOM     32  C   UNL     1       2.682   0.067  22.818  0.00  0.00    +0.277 C 
ENDBRANCH  27   7
ENDBRANCH  12  22
ENDBRANCH   4  20
ENDBRANCH  16   4
TORSDOF 8
ENDMDL
MODEL 4
REMARK VINA RESULT:       1.3      1.652      4.372
REMARK  Name = 11886015
REMARK  9 active torsions:
REMARK  status: ('A' for Active; 'I' for Inactive)
REMARK    1  A    between atoms: S_1  and  C_19
REMARK    2  A    between atoms: S_1  and  C_21
REMARK    3  A    between atoms: O_4  and  C_16
REMARK    4  A    between atoms: O_4  and  C_20
REMARK    5  A    between atoms: O_7  and  C_27
REMARK    6  A    between atoms: O_7  and  C_32
REMARK    7  A    between atoms: N_8  and  C_15
REMARK    8  A    between atoms: N_12  and  C_22
REMARK    9  A    between atoms: C_21  and  C_23
REMARK                            x       y       z     vdW  Elec       q    Type
REMARK                         _______ _______ _______ _____ _____    ______ ____
ROOT
ATOM      2  O   UNL     1      -2.240   3.403  26.527  0.00  0.00    -0.368 OA
ATOM      3  O   UNL     1      -3.125   5.708  24.667  0.00  0.00    -0.368 OA
ATOM     13  C   UNL     1      -3.462   4.303  24.698  0.00  0.00    +0.177 C 
ATOM     14  C   UNL     1      -2.203   3.560  25.100  0.00  0.00    +0.192 C 
ATOM     15  C   UNL     1      -4.436   4.040  25.830  0.00  0.00    +0.168 C 
ATOM     16  C   UNL     1      -1.107   4.507  24.671  0.00  0.00    +0.235 C 
ATOM     17  C   UNL     1      -3.513   3.837  27.028  0.00  0.00    +0.190 C 
ATOM     18  C   UNL     1      -1.727   5.857  24.949  0.00  0.00    +0.207 C 
ENDROOT
BRANCH  15   8
ATOM      8  N   UNL     1      -5.344   2.927  25.542  0.00  0.00    -0.212 N 
ATOM      9  N   UNL     1      -6.535   2.850  26.151  0.00  0.00    -0.043 NA
ATOM     10  N   UNL     1      -6.264   1.123  24.768  0.00  0.00    -0.101 NA
ATOM     11  N   UNL     1      -7.093   1.744  25.674  0.00  0.00    -0.022 NA
ATOM     19  C   UNL     1      -5.188   1.873  24.700  0.00  0.00    +0.210 A 
BRANCH  19   1
ATOM      1  S   UNL     1      -3.789   1.615  23.733  0.00  0.00    -0.077 S 
BRANCH   1  21
ATOM     21  C   UNL     1      -2.765   0.598  24.837  0.00  0.00    +0.151 C 
BRANCH  21  23
ATOM      6  O   UNL     1      -1.890  -1.667  24.712  0.00  0.00    -0.467 OA
ATOM     23  C   UNL     1      -2.981  -0.866  24.582  0.00  0.00    +0.115 A 
ATOM     26  C   UNL     1      -4.085  -1.607  24.232  0.00  0.00    +0.045 A 
ATOM     30  C   UNL     1      -3.645  -2.950  24.140  0.00  0.00    +0.041 A 
ATOM     31  C   UNL     1      -2.303  -2.932  24.442  0.00  0.00    +0.195 A 
ENDBRANCH  21  23
ENDBRANCH   1  21
ENDBRANCH  19   1
ENDBRANCH  15   8
BRANCH  16   4
ATOM      4  O   UNL     1       0.103   4.324  25.371  0.00  0.00    -0.442 OA
BRANCH   4  20
ATOM      5  O   UNL     1       0.925   2.416  26.326  0.00  0.00    -0.226 OA
ATOM     12  N   UNL     1       0.875   2.705  24.003  0.00  0.00    -0.251 N 
ATOM     20  C   UNL     1       0.668   3.067  25.321  0.00  0.00    +0.405 C 
ATOM     33  H   UNL     1       0.594   3.386  23.302  0.00  0.00    +0.158 HD
BRANCH  12  22
ATOM     22  C   UNL     1       1.430   1.504  23.508  0.00  0.00    +0.040 A 
ATOM     24  C   UNL     1       2.802   1.417  23.269  0.00  0.00    +0.069 A 
ATOM     25  C   UNL     1       0.609   0.405  23.260  0.00  0.00    +0.023 A 
ATOM     27  C   UNL     1       3.351   0.230  22.780  0.00  0.00    +0.122 A 
ATOM     28  C   UNL     1       1.157  -0.781  22.771  0.00  0.00    +0.005 A 
ATOM     29  C   UNL     1       2.528  -0.868  22.531  0.00  0.00    +0.046 A 
BRANCH  27   7
ATOM      7  O   UNL     1       4.689   0.146  22.546  0.00  0.00    -0.495 OA
ATOM     32  C   UNL     1       5.546   0.084  23.685  0.00  0.00    +0.277 C 
ENDBRANCH  27   7
ENDBRANCH  12  22
ENDBRANCH   4  20
ENDBRANCH  16   4
TORSDOF 8
ENDMDL
MODEL 5
REMARK VINA RESULT:       1.9      1.966      2.430
REMARK  Name = 11886015
REMARK  9 active torsions:
REMARK  status: ('A' for Active; 'I' for Inactive)
REMARK    1  A    between atoms: S_1  and  C_19
REMARK    2  A    between atoms: S_1  and  C_21
REMARK    3  A    between atoms: O_4  and  C_16
REMARK    4  A    between atoms: O_4  and  C_20
REMARK    5  A    between atoms: O_7  and  C_27
REMARK    6  A    between atoms: O_7  and  C_32
REMARK    7  A    between atoms: N_8  and  C_15
REMARK    8  A    between atoms: N_12  and  C_22
REMARK    9  A    between atoms: C_21  and  C_23
REMARK                            x       y       z     vdW  Elec       q    Type
REMARK                         _______ _______ _______ _____ _____    ______ ____
ROOT
ATOM      2  O   UNL     1      -1.805   0.641  23.834  0.00  0.00    -0.368 OA
ATOM      3  O   UNL     1      -4.738  -0.240  24.258  0.00  0.00    -0.368 OA
ATOM     13  C   UNL     1      -3.883   0.669  24.987  0.00  0.00    +0.177 C 
ATOM     14  C   UNL     1      -2.489   0.073  24.962  0.00  0.00    +0.192 C 
ATOM     15  C   UNL     1      -3.754   1.970  24.219  0.00  0.00    +0.168 C 
ATOM     16  C   UNL     1      -2.760  -1.400  24.769  0.00  0.00    +0.235 C 
ATOM     17  C   UNL     1      -2.608   1.678  23.254  0.00  0.00    +0.190 C 
ATOM     18  C   UNL     1      -3.969  -1.383  23.860  0.00  0.00    +0.207 C 
ENDROOT
BRANCH  15   8
ATOM      8  N   UNL     1      -3.555   3.124  25.099  0.00  0.00    -0.212 N 
ATOM      9  N   UNL     1      -4.598   3.877  25.475  0.00  0.00    -0.043 NA
ATOM     10  N   UNL     1      -2.716   4.666  26.371  0.00  0.00    -0.101 NA
ATOM     11  N   UNL     1      -4.079   4.819  26.252  0.00  0.00    -0.022 NA
ATOM     19  C   UNL     1      -2.414   3.612  25.650  0.00  0.00    +0.210 A 
BRANCH  19   1
ATOM      1  S   UNL     1      -0.858   2.919  25.406  0.00  0.00    -0.077 S 
BRANCH   1  21
ATOM     21  C   UNL     1      -0.655   1.937  26.922  0.00  0.00    +0.151 C 
BRANCH  21  23
ATOM      6  O   UNL     1       0.558   2.063  29.025  0.00  0.00    -0.467 OA
ATOM     23  C   UNL     1       0.544   2.388  27.705  0.00  0.00    +0.115 A 
ATOM     26  C   UNL     1       1.678   3.088  27.368  0.00  0.00    +0.045 A 
ATOM     30  C   UNL     1       2.439   3.201  28.557  0.00  0.00    +0.041 A 
ATOM     31  C   UNL     1       1.715   2.561  29.535  0.00  0.00    +0.195 A 
ENDBRANCH  21  23
ENDBRANCH   1  21
ENDBRANCH  19   1
ENDBRANCH  15   8
BRANCH  16   4
ATOM      4  O   UNL     1      -1.679  -2.103  24.200  0.00  0.00    -0.442 OA
BRANCH   4  20
ATOM      5  O   UNL     1       0.082  -1.811  25.629  0.00  0.00    -0.226 OA
ATOM     12  N   UNL     1       0.158  -1.055  23.415  0.00  0.00    -0.251 N 
ATOM     20  C   UNL     1      -0.412  -1.661  24.518  0.00  0.00    +0.405 C 
ATOM     33  H   UNL     1      -0.414  -1.026  22.574  0.00  0.00    +0.158 HD
BRANCH  12  22
ATOM     22  C   UNL     1       1.439  -0.468  23.309  0.00  0.00    +0.040 A 
ATOM     24  C   UNL     1       2.578  -1.236  23.551  0.00  0.00    +0.069 A 
ATOM     25  C   UNL     1       1.566   0.876  22.962  0.00  0.00    +0.023 A 
ATOM     27  C   UNL     1       3.844  -0.658  23.447  0.00  0.00    +0.122 A 
ATOM     28  C   UNL     1       2.830   1.455  22.859  0.00  0.00    +0.005 A 
ATOM     29  C   UNL     1       3.970   0.687  23.101  0.00  0.00    +0.046 A 
BRANCH  27   7
ATOM      7  O   UNL     1       4.956  -1.406  23.684  0.00  0.00    -0.495 OA
ATOM     32  C   UNL     1       6.140  -0.709  24.067  0.00  0.00    +0.277 C 
ENDBRANCH  27   7
ENDBRANCH  12  22
ENDBRANCH   4  20
ENDBRANCH  16   4
TORSDOF 8
ENDMDL
MODEL 6
REMARK VINA RESULT:       2.0      2.550      5.099
REMARK  Name = 11886015
REMARK  9 active torsions:
REMARK  status: ('A' for Active; 'I' for Inactive)
REMARK    1  A    between atoms: S_1  and  C_19
REMARK    2  A    between atoms: S_1  and  C_21
REMARK    3  A    between atoms: O_4  and  C_16
REMARK    4  A    between atoms: O_4  and  C_20
REMARK    5  A    between atoms: O_7  and  C_27
REMARK    6  A    between atoms: O_7  and  C_32
REMARK    7  A    between atoms: N_8  and  C_15
REMARK    8  A    between atoms: N_12  and  C_22
REMARK    9  A    between atoms: C_21  and  C_23
REMARK                            x       y       z     vdW  Elec       q    Type
REMARK                         _______ _______ _______ _____ _____    ______ ____
ROOT
ATOM      2  O   UNL     1      -4.399   2.268  24.310  0.00  0.00    -0.368 OA
ATOM      3  O   UNL     1      -5.460   4.835  25.669  0.00  0.00    -0.368 OA
ATOM     13  C   UNL     1      -4.160   4.205  25.667  0.00  0.00    +0.177 C 
ATOM     14  C   UNL     1      -4.399   2.707  25.678  0.00  0.00    +0.192 C 
ATOM     15  C   UNL     1      -3.470   4.470  24.344  0.00  0.00    +0.168 C 
ATOM     16  C   UNL     1      -5.770   2.594  26.302  0.00  0.00    +0.235 C 
ATOM     17  C   UNL     1      -4.004   3.351  23.455  0.00  0.00    +0.190 C 
ATOM     18  C   UNL     1      -6.468   3.818  25.757  0.00  0.00    +0.207 C 
ENDROOT
BRANCH  15   8
ATOM      8  N   UNL     1      -2.012   4.527  24.472  0.00  0.00    -0.212 N 
ATOM      9  N   UNL     1      -1.418   5.621  24.969  0.00  0.00    -0.043 NA
ATOM     10  N   UNL     1       0.111   4.087  24.443  0.00  0.00    -0.101 NA
ATOM     11  N   UNL     1      -0.120   5.346  24.948  0.00  0.00    -0.022 NA
ATOM     19  C   UNL     1      -1.073   3.598  24.156  0.00  0.00    +0.210 A 
BRANCH  19   1
ATOM      1  S   UNL     1      -1.438   2.054  23.491  0.00  0.00    -0.077 S 
BRANCH   1  21
ATOM     21  C   UNL     1      -0.253   0.991  24.368  0.00  0.00    +0.151 C 
BRANCH  21  23
ATOM      6  O   UNL     1       2.041   1.409  23.680  0.00  0.00    -0.467 OA
ATOM     23  C   UNL     1       0.924   0.656  23.498  0.00  0.00    +0.115 A 
ATOM     26  C   UNL     1       1.131  -0.285  22.516  0.00  0.00    +0.045 A 
ATOM     30  C   UNL     1       2.460  -0.097  22.066  0.00  0.00    +0.041 A 
ATOM     31  C   UNL     1       2.970   0.944  22.805  0.00  0.00    +0.195 A 
ENDBRANCH  21  23
ENDBRANCH   1  21
ENDBRANCH  19   1
ENDBRANCH  15   8
BRANCH  16   4
ATOM      4  O   UNL     1      -6.445   1.403  25.966  0.00  0.00    -0.442 OA
BRANCH   4  20
ATOM      5  O   UNL     1      -6.136   0.286  23.994  0.00  0.00    -0.226 OA
ATOM     12  N   UNL     1      -4.700  -0.018  25.819  0.00  0.00    -0.251 N 
ATOM     20  C   UNL     1      -5.779   0.520  25.143  0.00  0.00    +0.405 C 
ATOM     33  H   UNL     1      -4.566   0.302  26.774  0.00  0.00    +0.158 HD
BRANCH  12  22
ATOM     22  C   UNL     1      -3.759  -0.960  25.345  0.00  0.00    +0.040 A 
ATOM     24  C   UNL     1      -2.438  -0.908  25.790  0.00  0.00    +0.069 A 
ATOM     25  C   UNL     1      -4.150  -1.942  24.435  0.00  0.00    +0.023 A 
ATOM     27  C   UNL     1      -1.508  -1.838  25.322  0.00  0.00    +0.122 A 
ATOM     28  C   UNL     1      -3.221  -2.870  23.967  0.00  0.00    +0.005 A 
ATOM     29  C   UNL     1      -1.900  -2.818  24.411  0.00  0.00    +0.046 A 
BRANCH  27   7
ATOM      7  O   UNL     1      -0.219  -1.787  25.755  0.00  0.00    -0.495 OA
ATOM     32  C   UNL     1       0.637  -2.865  25.378  0.00  0.00    +0.277 C 
ENDBRANCH  27   7
ENDBRANCH  12  22
ENDBRANCH   4  20
ENDBRANCH  16   4
TORSDOF 8
ENDMDL
