MODEL 1
REMARK VINA RESULT:      -6.3      0.000      0.000
REMARK  Name = 75367060
REMARK  10 active torsions:
REMARK  status: ('A' for Active; 'I' for Inactive)
REMARK    1  A    between atoms: O_2  and  C_8
REMARK    2  A    between atoms: N_4  and  C_6
REMARK    3  A    between atoms: N_4  and  C_7
REMARK    4  A    between atoms: N_5  and  C_15
REMARK    5  A    between atoms: C_11  and  C_15
REMARK    6  A    between atoms: C_16  and  C_17
REMARK    7  A    between atoms: C_16  and  C_19
REMARK    8  A    between atoms: C_16  and  C_20
REMARK    9  A    between atoms: C_16  and  C_21
REMARK   10  A    between atoms: C_17  and  C_18
REMARK                            x       y       z     vdW  Elec       q    Type
REMARK                         _______ _______ _______ _____ _____    ______ ____
ROOT
ATOM      1  O   UNL     1      -0.667   1.846  23.006  0.00  0.00    -0.371 OA
ATOM      7  C   UNL     1      -1.180   3.095  24.960  0.00  0.00    +0.111 C 
ATOM      8  C   UNL     1      -0.251   1.955  25.332  0.00  0.00    +0.164 C 
ATOM     11  C   UNL     1       0.368   1.628  23.980  0.00  0.00    +0.165 C 
ATOM     14  C   UNL     1      -1.711   2.625  23.616  0.00  0.00    +0.181 C 
ENDROOT
BRANCH   8   2
ATOM      2  O   UNL     1       0.726   2.334  26.282  0.00  0.00    -0.388 OA
ATOM     23  H   UNL     1       0.270   2.695  27.060  0.00  0.00    +0.210 HD
ENDBRANCH   8   2
BRANCH   7   4
ATOM      4  N   UNL     1      -2.234   3.331  25.933  0.00  0.00    -0.306 NA
ATOM     22  H   UNL     1      -2.106   4.240  26.376  0.00  0.00    +0.123 HD
BRANCH   4   6
ATOM      6  C   UNL     1      -3.545   3.259  25.312  0.00  0.00    +0.054 C 
ATOM      9  C   UNL     1      -4.192   1.888  25.460  0.00  0.00    +0.019 C 
ATOM     10  C   UNL     1      -4.564   4.174  25.978  0.00  0.00    +0.019 C 
ATOM     12  C   UNL     1      -5.667   2.152  25.166  0.00  0.00    +0.002 C 
ATOM     13  C   UNL     1      -5.907   3.627  25.502  0.00  0.00    +0.002 C 
ENDBRANCH   4   6
ENDBRANCH   7   4
BRANCH  11  15
ATOM     15  C   UNL     1       0.872   0.199  23.881  0.00  0.00    +0.138 C 
BRANCH  15   5
ATOM      3  O   UNL     1      -0.392  -1.480  25.874  0.00  0.00    -0.276 OA
ATOM      5  N   UNL     1      -0.215  -0.732  23.681  0.00  0.00    -0.313 N 
ATOM     18  C   UNL     1      -0.757  -1.497  24.699  0.00  0.00    +0.214 C 
ATOM     24  H   UNL     1      -0.595  -0.813  22.742  0.00  0.00    +0.149 HD
BRANCH  18  17
ATOM     17  C   UNL     1      -1.882  -2.403  24.229  0.00  0.00    +0.102 C 
BRANCH  17  16
ATOM     16  C   UNL     1      -3.304  -1.830  24.437  0.00  0.00    -0.029 C 
ATOM     19  C   UNL     1      -4.320  -2.902  23.996  0.00  0.00    +0.011 C 
ATOM     20  C   UNL     1      -3.564  -1.493  25.914  0.00  0.00    +0.011 C 
ATOM     21  C   UNL     1      -3.524  -0.570  23.583  0.00  0.00    +0.011 C 
ENDBRANCH  17  16
ENDBRANCH  18  17
ENDBRANCH  15   5
ENDBRANCH  11  15
TORSDOF 7
ENDMDL
MODEL 2
REMARK VINA RESULT:      -5.7      2.340      5.180
REMARK  Name = 75367060
REMARK  10 active torsions:
REMARK  status: ('A' for Active; 'I' for Inactive)
REMARK    1  A    between atoms: O_2  and  C_8
REMARK    2  A    between atoms: N_4  and  C_6
REMARK    3  A    between atoms: N_4  and  C_7
REMARK    4  A    between atoms: N_5  and  C_15
REMARK    5  A    between atoms: C_11  and  C_15
REMARK    6  A    between atoms: C_16  and  C_17
REMARK    7  A    between atoms: C_16  and  C_19
REMARK    8  A    between atoms: C_16  and  C_20
REMARK    9  A    between atoms: C_16  and  C_21
REMARK   10  A    between atoms: C_17  and  C_18
REMARK                            x       y       z     vdW  Elec       q    Type
REMARK                         _______ _______ _______ _____ _____    ______ ____
ROOT
ATOM      1  O   UNL     1      -3.904   3.579  23.992  0.00  0.00    -0.371 OA
ATOM      7  C   UNL     1      -5.487   1.899  24.552  0.00  0.00    +0.111 C 
ATOM      8  C   UNL     1      -4.928   2.498  25.830  0.00  0.00    +0.164 C 
ATOM     11  C   UNL     1      -4.395   3.829  25.320  0.00  0.00    +0.165 C 
ATOM     14  C   UNL     1      -4.439   2.323  23.537  0.00  0.00    +0.181 C 
ENDROOT
BRANCH   8   2
ATOM      2  O   UNL     1      -5.915   2.672  26.828  0.00  0.00    -0.388 OA
ATOM     23  H   UNL     1      -5.864   1.920  27.442  0.00  0.00    +0.210 HD
ENDBRANCH   8   2
BRANCH   7   4
ATOM      4  N   UNL     1      -5.665   0.457  24.612  0.00  0.00    -0.306 NA
ATOM     22  H   UNL     1      -6.256   0.144  23.843  0.00  0.00    +0.123 HD
BRANCH   4   6
ATOM      6  C   UNL     1      -4.386  -0.230  24.573  0.00  0.00    +0.054 C 
ATOM      9  C   UNL     1      -3.931  -0.707  25.946  0.00  0.00    +0.019 C 
ATOM     10  C   UNL     1      -4.438  -1.528  23.778  0.00  0.00    +0.019 C 
ATOM     12  C   UNL     1      -2.861  -1.748  25.629  0.00  0.00    +0.002 C 
ATOM     13  C   UNL     1      -3.189  -2.279  24.230  0.00  0.00    +0.002 C 
ENDBRANCH   4   6
ENDBRANCH   7   4
BRANCH  11  15
ATOM     15  C   UNL     1      -3.279   4.397  26.180  0.00  0.00    +0.138 C 
BRANCH  15   5
ATOM      3  O   UNL     1      -0.821   4.994  24.770  0.00  0.00    -0.276 OA
ATOM      5  N   UNL     1      -2.090   3.580  26.109  0.00  0.00    -0.313 N 
ATOM     18  C   UNL     1      -0.956   3.950  25.406  0.00  0.00    +0.214 C 
ATOM     24  H   UNL     1      -2.097   2.698  26.612  0.00  0.00    +0.149 HD
BRANCH  18  17
ATOM     17  C   UNL     1       0.154   2.914  25.480  0.00  0.00    +0.102 C 
BRANCH  17  16
ATOM     16  C   UNL     1      -0.028   1.702  24.536  0.00  0.00    -0.029 C 
ATOM     19  C   UNL     1      -0.526   0.512  25.378  0.00  0.00    +0.011 C 
ATOM     20  C   UNL     1      -1.069   1.992  23.442  0.00  0.00    +0.011 C 
ATOM     21  C   UNL     1       1.304   1.308  23.877  0.00  0.00    +0.011 C 
ENDBRANCH  17  16
ENDBRANCH  18  17
ENDBRANCH  15   5
ENDBRANCH  11  15
TORSDOF 7
ENDMDL
MODEL 3
REMARK VINA RESULT:      -5.7      1.354      4.825
REMARK  Name = 75367060
REMARK  10 active torsions:
REMARK  status: ('A' for Active; 'I' for Inactive)
REMARK    1  A    between atoms: O_2  and  C_8
REMARK    2  A    between atoms: N_4  and  C_6
REMARK    3  A    between atoms: N_4  and  C_7
REMARK    4  A    between atoms: N_5  and  C_15
REMARK    5  A    between atoms: C_11  and  C_15
REMARK    6  A    between atoms: C_16  and  C_17
REMARK    7  A    between atoms: C_16  and  C_19
REMARK    8  A    between atoms: C_16  and  C_20
REMARK    9  A    between atoms: C_16  and  C_21
REMARK   10  A    between atoms: C_17  and  C_18
REMARK                            x       y       z     vdW  Elec       q    Type
REMARK                         _______ _______ _______ _____ _____    ______ ____
ROOT
ATOM      1  O   UNL     1      -0.879   1.518  25.786  0.00  0.00    -0.371 OA
ATOM      7  C   UNL     1      -0.273  -0.625  24.960  0.00  0.00    +0.111 C 
ATOM      8  C   UNL     1       0.032   0.418  23.901  0.00  0.00    +0.164 C 
ATOM     11  C   UNL     1       0.099   1.683  24.745  0.00  0.00    +0.165 C 
ATOM     14  C   UNL     1      -1.245   0.128  25.853  0.00  0.00    +0.181 C 
ENDROOT
BRANCH   8   2
ATOM      2  O   UNL     1       1.250   0.170  23.225  0.00  0.00    -0.388 OA
ATOM     23  H   UNL     1       1.714  -0.549  23.687  0.00  0.00    +0.210 HD
ENDBRANCH   8   2
BRANCH   7   4
ATOM      4  N   UNL     1      -0.834  -1.855  24.425  0.00  0.00    -0.306 NA
ATOM     22  H   UNL     1      -0.377  -2.663  24.848  0.00  0.00    +0.123 HD
BRANCH   4   6
ATOM      6  C   UNL     1      -2.267  -1.917  24.649  0.00  0.00    +0.054 C 
ATOM      9  C   UNL     1      -3.043  -0.941  23.773  0.00  0.00    +0.019 C 
ATOM     10  C   UNL     1      -2.868  -3.259  24.252  0.00  0.00    +0.019 C 
ATOM     12  C   UNL     1      -4.474  -1.469  23.827  0.00  0.00    +0.002 C 
ATOM     13  C   UNL     1      -4.361  -2.965  24.134  0.00  0.00    +0.002 C 
ENDBRANCH   4   6
ENDBRANCH   7   4
BRANCH  11  15
ATOM     15  C   UNL     1      -0.198   2.946  23.957  0.00  0.00    +0.138 C 
BRANCH  15   5
ATOM      3  O   UNL     1      -2.556   2.122  22.492  0.00  0.00    -0.276 OA
ATOM      5  N   UNL     1      -1.558   3.390  24.164  0.00  0.00    -0.313 N 
ATOM     18  C   UNL     1      -2.627   2.938  23.409  0.00  0.00    +0.214 C 
ATOM     24  H   UNL     1      -1.723   4.060  24.909  0.00  0.00    +0.149 HD
BRANCH  18  17
ATOM     17  C   UNL     1      -3.950   3.563  23.817  0.00  0.00    +0.102 C 
BRANCH  17  16
ATOM     16  C   UNL     1      -4.400   3.239  25.262  0.00  0.00    -0.029 C 
ATOM     19  C   UNL     1      -5.755   3.932  25.506  0.00  0.00    +0.011 C 
ATOM     20  C   UNL     1      -4.583   1.727  25.468  0.00  0.00    +0.011 C 
ATOM     21  C   UNL     1      -3.388   3.773  26.290  0.00  0.00    +0.011 C 
ENDBRANCH  17  16
ENDBRANCH  18  17
ENDBRANCH  15   5
ENDBRANCH  11  15
TORSDOF 7
ENDMDL
MODEL 4
REMARK VINA RESULT:      -5.4      2.387      4.420
REMARK  Name = 75367060
REMARK  10 active torsions:
REMARK  status: ('A' for Active; 'I' for Inactive)
REMARK    1  A    between atoms: O_2  and  C_8
REMARK    2  A    between atoms: N_4  and  C_6
REMARK    3  A    between atoms: N_4  and  C_7
REMARK    4  A    between atoms: N_5  and  C_15
REMARK    5  A    between atoms: C_11  and  C_15
REMARK    6  A    between atoms: C_16  and  C_17
REMARK    7  A    between atoms: C_16  and  C_19
REMARK    8  A    between atoms: C_16  and  C_20
REMARK    9  A    between atoms: C_16  and  C_21
REMARK   10  A    between atoms: C_17  and  C_18
REMARK                            x       y       z     vdW  Elec       q    Type
REMARK                         _______ _______ _______ _____ _____    ______ ____
ROOT
ATOM      1  O   UNL     1      -5.518   3.270  26.051  0.00  0.00    -0.371 OA
ATOM      7  C   UNL     1      -3.742   4.188  24.767  0.00  0.00    +0.111 C 
ATOM      8  C   UNL     1      -4.030   2.780  24.279  0.00  0.00    +0.164 C 
ATOM     11  C   UNL     1      -5.447   2.575  24.795  0.00  0.00    +0.165 C 
ATOM     14  C   UNL     1      -4.400   4.171  26.138  0.00  0.00    +0.181 C 
ENDROOT
BRANCH   8   2
ATOM      2  O   UNL     1      -3.960   2.666  22.871  0.00  0.00    -0.388 OA
ATOM     23  H   UNL     1      -4.851   2.471  22.536  0.00  0.00    +0.210 HD
ENDBRANCH   8   2
BRANCH   7   4
ATOM      4  N   UNL     1      -2.326   4.509  24.824  0.00  0.00    -0.306 NA
ATOM     22  H   UNL     1      -2.135   5.121  25.616  0.00  0.00    +0.123 HD
BRANCH   4   6
ATOM      6  C   UNL     1      -1.520   3.304  24.918  0.00  0.00    +0.054 C 
ATOM      9  C   UNL     1      -0.325   3.319  23.974  0.00  0.00    +0.019 C 
ATOM     10  C   UNL     1      -0.858   3.144  26.281  0.00  0.00    +0.019 C 
ATOM     12  C   UNL     1       0.592   2.236  24.537  0.00  0.00    +0.002 C 
ATOM     13  C   UNL     1       0.249   2.124  26.026  0.00  0.00    +0.002 C 
ENDBRANCH   4   6
ENDBRANCH   7   4
BRANCH  11  15
ATOM     15  C   UNL     1      -5.806   1.113  24.997  0.00  0.00    +0.138 C 
BRANCH  15   5
ATOM      3  O   UNL     1      -4.672  -1.319  23.907  0.00  0.00    -0.276 OA
ATOM      5  N   UNL     1      -4.685   0.361  25.513  0.00  0.00    -0.313 N 
ATOM     18  C   UNL     1      -4.211  -0.798  24.921  0.00  0.00    +0.214 C 
ATOM     24  H   UNL     1      -4.226   0.716  26.347  0.00  0.00    +0.149 HD
BRANCH  18  17
ATOM     17  C   UNL     1      -3.030  -1.404  25.660  0.00  0.00    +0.102 C 
BRANCH  17  16
ATOM     16  C   UNL     1      -1.724  -1.486  24.835  0.00  0.00    -0.029 C 
ATOM     19  C   UNL     1      -0.536  -1.429  25.815  0.00  0.00    +0.011 C 
ATOM     20  C   UNL     1      -1.639  -2.802  24.045  0.00  0.00    +0.011 C 
ATOM     21  C   UNL     1      -1.608  -0.301  23.861  0.00  0.00    +0.011 C 
ENDBRANCH  17  16
ENDBRANCH  18  17
ENDBRANCH  15   5
ENDBRANCH  11  15
TORSDOF 7
ENDMDL
MODEL 5
REMARK VINA RESULT:      -5.2      1.763      4.430
REMARK  Name = 75367060
REMARK  10 active torsions:
REMARK  status: ('A' for Active; 'I' for Inactive)
REMARK    1  A    between atoms: O_2  and  C_8
REMARK    2  A    between atoms: N_4  and  C_6
REMARK    3  A    between atoms: N_4  and  C_7
REMARK    4  A    between atoms: N_5  and  C_15
REMARK    5  A    between atoms: C_11  and  C_15
REMARK    6  A    between atoms: C_16  and  C_17
REMARK    7  A    between atoms: C_16  and  C_19
REMARK    8  A    between atoms: C_16  and  C_20
REMARK    9  A    between atoms: C_16  and  C_21
REMARK   10  A    between atoms: C_17  and  C_18
REMARK                            x       y       z     vdW  Elec       q    Type
REMARK                         _______ _______ _______ _____ _____    ______ ____
ROOT
ATOM      1  O   UNL     1      -2.163  -2.243  25.032  0.00  0.00    -0.371 OA
ATOM      7  C   UNL     1      -3.888  -0.979  23.998  0.00  0.00    +0.111 C 
ATOM      8  C   UNL     1      -2.651  -0.111  24.132  0.00  0.00    +0.164 C 
ATOM     11  C   UNL     1      -1.566  -1.169  24.288  0.00  0.00    +0.165 C 
ATOM     14  C   UNL     1      -3.593  -2.081  25.002  0.00  0.00    +0.181 C 
ENDROOT
BRANCH   8   2
ATOM      2  O   UNL     1      -2.431   0.706  22.998  0.00  0.00    -0.388 OA
ATOM     23  H   UNL     1      -3.192   1.302  22.900  0.00  0.00    +0.210 HD
ENDBRANCH   8   2
BRANCH   7   4
ATOM      4  N   UNL     1      -5.128  -0.275  24.280  0.00  0.00    -0.306 NA
ATOM     22  H   UNL     1      -5.761  -0.875  24.808  0.00  0.00    +0.123 HD
BRANCH   4   6
ATOM      6  C   UNL     1      -4.878   0.953  25.012  0.00  0.00    +0.054 C 
ATOM      9  C   UNL     1      -5.050   2.199  24.151  0.00  0.00    +0.019 C 
ATOM     10  C   UNL     1      -5.884   1.188  26.131  0.00  0.00    +0.019 C 
ATOM     12  C   UNL     1      -5.191   3.325  25.172  0.00  0.00    +0.002 C 
ATOM     13  C   UNL     1      -5.730   2.674  26.449  0.00  0.00    +0.002 C 
ENDBRANCH   4   6
ENDBRANCH   7   4
BRANCH  11  15
ATOM     15  C   UNL     1      -0.335  -0.662  25.017  0.00  0.00    +0.138 C 
BRANCH  15   5
ATOM      3  O   UNL     1       0.917   1.841  24.270  0.00  0.00    -0.276 OA
ATOM      5  N   UNL     1      -0.564   0.641  25.599  0.00  0.00    -0.313 N 
ATOM     18  C   UNL     1       0.085   1.788  25.174  0.00  0.00    +0.214 C 
ATOM     24  H   UNL     1      -1.245   0.705  26.350  0.00  0.00    +0.149 HD
BRANCH  18  17
ATOM     17  C   UNL     1      -0.325   3.027  25.951  0.00  0.00    +0.102 C 
BRANCH  17  16
ATOM     16  C   UNL     1      -1.297   3.969  25.202  0.00  0.00    -0.029 C 
ATOM     19  C   UNL     1      -2.513   4.224  26.113  0.00  0.00    +0.011 C 
ATOM     20  C   UNL     1      -0.637   5.320  24.883  0.00  0.00    +0.011 C 
ATOM     21  C   UNL     1      -1.794   3.327  23.896  0.00  0.00    +0.011 C 
ENDBRANCH  17  16
ENDBRANCH  18  17
ENDBRANCH  15   5
ENDBRANCH  11  15
TORSDOF 7
ENDMDL
MODEL 6
REMARK VINA RESULT:      -4.9      1.523      4.986
REMARK  Name = 75367060
REMARK  10 active torsions:
REMARK  status: ('A' for Active; 'I' for Inactive)
REMARK    1  A    between atoms: O_2  and  C_8
REMARK    2  A    between atoms: N_4  and  C_6
REMARK    3  A    between atoms: N_4  and  C_7
REMARK    4  A    between atoms: N_5  and  C_15
REMARK    5  A    between atoms: C_11  and  C_15
REMARK    6  A    between atoms: C_16  and  C_17
REMARK    7  A    between atoms: C_16  and  C_19
REMARK    8  A    between atoms: C_16  and  C_20
REMARK    9  A    between atoms: C_16  and  C_21
REMARK   10  A    between atoms: C_17  and  C_18
REMARK                            x       y       z     vdW  Elec       q    Type
REMARK                         _______ _______ _______ _____ _____    ______ ____
ROOT
ATOM      1  O   UNL     1       1.556   1.590  23.945  0.00  0.00    -0.371 OA
ATOM      7  C   UNL     1       0.013  -0.081  23.258  0.00  0.00    +0.111 C 
ATOM      8  C   UNL     1      -0.752   1.076  23.874  0.00  0.00    +0.164 C 
ATOM     11  C   UNL     1       0.269   2.200  23.753  0.00  0.00    +0.165 C 
ATOM     14  C   UNL     1       1.414   0.166  23.794  0.00  0.00    +0.181 C 
ENDROOT
BRANCH   8   2
ATOM      2  O   UNL     1      -1.947   1.373  23.177  0.00  0.00    -0.388 OA
ATOM     23  H   UNL     1      -2.335   2.175  23.566  0.00  0.00    +0.210 HD
ENDBRANCH   8   2
BRANCH   7   4
ATOM      4  N   UNL     1      -0.510  -1.387  23.625  0.00  0.00    -0.306 NA
ATOM     22  H   UNL     1       0.148  -1.871  24.234  0.00  0.00    +0.123 HD
BRANCH   4   6
ATOM      6  C   UNL     1      -1.802  -1.269  24.278  0.00  0.00    +0.054 C 
ATOM      9  C   UNL     1      -2.614  -2.556  24.216  0.00  0.00    +0.019 C 
ATOM     10  C   UNL     1      -1.683  -1.029  25.778  0.00  0.00    +0.019 C 
ATOM     12  C   UNL     1      -3.670  -2.368  25.302  0.00  0.00    +0.002 C 
ATOM     13  C   UNL     1      -3.069  -1.384  26.310  0.00  0.00    +0.002 C 
ENDBRANCH   4   6
ENDBRANCH   7   4
BRANCH  11  15
ATOM     15  C   UNL     1       0.067   3.306  24.774  0.00  0.00    +0.138 C 
BRANCH  15   5
ATOM      3  O   UNL     1      -1.754   5.513  25.219  0.00  0.00    -0.276 OA
ATOM      5  N   UNL     1      -1.252   3.248  25.361  0.00  0.00    -0.313 N 
ATOM     18  C   UNL     1      -2.054   4.363  25.535  0.00  0.00    +0.214 C 
ATOM     24  H   UNL     1      -1.598   2.337  25.647  0.00  0.00    +0.149 HD
BRANCH  18  17
ATOM     17  C   UNL     1      -3.391   4.040  26.182  0.00  0.00    +0.102 C 
BRANCH  17  16
ATOM     16  C   UNL     1      -4.445   3.437  25.223  0.00  0.00    -0.029 C 
ATOM     19  C   UNL     1      -5.815   4.046  25.576  0.00  0.00    +0.011 C 
ATOM     20  C   UNL     1      -4.127   3.772  23.756  0.00  0.00    +0.011 C 
ATOM     21  C   UNL     1      -4.534   1.910  25.386  0.00  0.00    +0.011 C 
ENDBRANCH  17  16
ENDBRANCH  18  17
ENDBRANCH  15   5
ENDBRANCH  11  15
TORSDOF 7
ENDMDL
MODEL 7
REMARK VINA RESULT:      -4.7     14.154     16.341
REMARK  Name = 75367060
REMARK  10 active torsions:
REMARK  status: ('A' for Active; 'I' for Inactive)
REMARK    1  A    between atoms: O_2  and  C_8
REMARK    2  A    between atoms: N_4  and  C_6
REMARK    3  A    between atoms: N_4  and  C_7
REMARK    4  A    between atoms: N_5  and  C_15
REMARK    5  A    between atoms: C_11  and  C_15
REMARK    6  A    between atoms: C_16  and  C_17
REMARK    7  A    between atoms: C_16  and  C_19
REMARK    8  A    between atoms: C_16  and  C_20
REMARK    9  A    between atoms: C_16  and  C_21
REMARK   10  A    between atoms: C_17  and  C_18
REMARK                            x       y       z     vdW  Elec       q    Type
REMARK                         _______ _______ _______ _____ _____    ______ ____
ROOT
ATOM      1  O   UNL     1      -3.346 -10.487  15.926  0.00  0.00    -0.371 OA
ATOM      7  C   UNL     1      -5.701 -10.182  15.986  0.00  0.00    +0.111 C 
ATOM      8  C   UNL     1      -5.222 -10.059  14.551  0.00  0.00    +0.164 C 
ATOM     11  C   UNL     1      -3.884 -10.781  14.626  0.00  0.00    +0.165 C 
ATOM     14  C   UNL     1      -4.405  -9.976  16.754  0.00  0.00    +0.181 C 
ENDROOT
BRANCH   8   2
ATOM      2  O   UNL     1      -6.102 -10.672  13.628  0.00  0.00    -0.388 OA
ATOM     23  H   UNL     1      -6.771 -10.019  13.365  0.00  0.00    +0.210 HD
ENDBRANCH   8   2
BRANCH   7   4
ATOM      4  N   UNL     1      -6.729  -9.219  16.343  0.00  0.00    -0.306 NA
ATOM     22  H   UNL     1      -6.786  -8.487  15.636  0.00  0.00    +0.123 HD
BRANCH   4   6
ATOM      6  C   UNL     1      -8.020  -9.865  16.498  0.00  0.00    +0.054 C 
ATOM      9  C   UNL     1      -8.412 -10.056  17.958  0.00  0.00    +0.019 C 
ATOM     10  C   UNL     1      -9.169  -9.023  15.960  0.00  0.00    +0.019 C 
ATOM     12  C   UNL     1      -9.916 -10.309  17.896  0.00  0.00    +0.002 C 
ATOM     13  C   UNL     1     -10.405  -9.641  16.608  0.00  0.00    +0.002 C 
ENDBRANCH   4   6
ENDBRANCH   7   4
BRANCH  11  15
ATOM     15  C   UNL     1      -2.904 -10.339  13.553  0.00  0.00    +0.138 C 
BRANCH  15   5
ATOM      3  O   UNL     1      -1.843  -9.343  11.049  0.00  0.00    -0.276 OA
ATOM      5  N   UNL     1      -3.440 -10.552  12.228  0.00  0.00    -0.313 N 
ATOM     18  C   UNL     1      -2.861 -10.032  11.083  0.00  0.00    +0.214 C 
ATOM     24  H   UNL     1      -4.278 -11.120  12.148  0.00  0.00    +0.149 HD
BRANCH  18  17
ATOM     17  C   UNL     1      -3.620 -10.392   9.816  0.00  0.00    +0.102 C 
BRANCH  17  16
ATOM     16  C   UNL     1      -4.983  -9.677   9.655  0.00  0.00    -0.029 C 
ATOM     19  C   UNL     1      -6.075 -10.594  10.242  0.00  0.00    +0.011 C 
ATOM     20  C   UNL     1      -5.011  -8.340  10.412  0.00  0.00    +0.011 C 
ATOM     21  C   UNL     1      -5.305  -9.427   8.172  0.00  0.00    +0.011 C 
ENDBRANCH  17  16
ENDBRANCH  18  17
ENDBRANCH  15   5
ENDBRANCH  11  15
TORSDOF 7
ENDMDL
MODEL 8
REMARK VINA RESULT:      -4.1      2.116      4.294
REMARK  Name = 75367060
REMARK  10 active torsions:
REMARK  status: ('A' for Active; 'I' for Inactive)
REMARK    1  A    between atoms: O_2  and  C_8
REMARK    2  A    between atoms: N_4  and  C_6
REMARK    3  A    between atoms: N_4  and  C_7
REMARK    4  A    between atoms: N_5  and  C_15
REMARK    5  A    between atoms: C_11  and  C_15
REMARK    6  A    between atoms: C_16  and  C_17
REMARK    7  A    between atoms: C_16  and  C_19
REMARK    8  A    between atoms: C_16  and  C_20
REMARK    9  A    between atoms: C_16  and  C_21
REMARK   10  A    between atoms: C_17  and  C_18
REMARK                            x       y       z     vdW  Elec       q    Type
REMARK                         _______ _______ _______ _____ _____    ______ ____
ROOT
ATOM      1  O   UNL     1      -5.679   0.881  25.831  0.00  0.00    -0.371 OA
ATOM      7  C   UNL     1      -4.971   2.915  24.827  0.00  0.00    +0.111 C 
ATOM      8  C   UNL     1      -4.031   1.801  24.405  0.00  0.00    +0.164 C 
ATOM     11  C   UNL     1      -4.894   0.574  24.667  0.00  0.00    +0.165 C 
ATOM     14  C   UNL     1      -5.633   2.302  26.051  0.00  0.00    +0.181 C 
ENDROOT
BRANCH   8   2
ATOM      2  O   UNL     1      -3.648   1.895  23.046  0.00  0.00    -0.388 OA
ATOM     23  H   UNL     1      -3.580   0.995  22.685  0.00  0.00    +0.210 HD
ENDBRANCH   8   2
BRANCH   7   4
ATOM      4  N   UNL     1      -4.297   4.169  25.117  0.00  0.00    -0.306 NA
ATOM     22  H   UNL     1      -4.455   4.437  26.087  0.00  0.00    +0.123 HD
BRANCH   4   6
ATOM      6  C   UNL     1      -2.872   4.071  24.851  0.00  0.00    +0.054 C 
ATOM      9  C   UNL     1      -2.200   5.433  24.730  0.00  0.00    +0.019 C 
ATOM     10  C   UNL     1      -2.102   3.428  25.997  0.00  0.00    +0.019 C 
ATOM     12  C   UNL     1      -0.717   5.119  24.908  0.00  0.00    +0.002 C 
ATOM     13  C   UNL     1      -0.654   3.826  25.727  0.00  0.00    +0.002 C 
ENDBRANCH   4   6
ENDBRANCH   7   4
BRANCH  11  15
ATOM     15  C   UNL     1      -4.084  -0.687  24.912  0.00  0.00    +0.138 C 
BRANCH  15   5
ATOM      3  O   UNL     1      -1.909  -2.437  24.143  0.00  0.00    -0.276 OA
ATOM      5  N   UNL     1      -2.669  -0.403  24.971  0.00  0.00    -0.313 N 
ATOM     18  C   UNL     1      -1.696  -1.308  24.580  0.00  0.00    +0.214 C 
ATOM     24  H   UNL     1      -2.389   0.513  25.309  0.00  0.00    +0.149 HD
BRANCH  18  17
ATOM     17  C   UNL     1      -0.284  -0.772  24.746  0.00  0.00    +0.102 C 
BRANCH  17  16
ATOM     16  C   UNL     1       0.150   0.254  23.672  0.00  0.00    -0.029 C 
ATOM     19  C   UNL     1       0.747   1.477  24.395  0.00  0.00    +0.011 C 
ATOM     20  C   UNL     1       1.221  -0.329  22.737  0.00  0.00    +0.011 C 
ATOM     21  C   UNL     1      -1.053   0.723  22.836  0.00  0.00    +0.011 C 
ENDBRANCH  17  16
ENDBRANCH  18  17
ENDBRANCH  15   5
ENDBRANCH  11  15
TORSDOF 7
ENDMDL
MODEL 9
REMARK VINA RESULT:      -3.4      2.644      4.930
REMARK  Name = 75367060
REMARK  10 active torsions:
REMARK  status: ('A' for Active; 'I' for Inactive)
REMARK    1  A    between atoms: O_2  and  C_8
REMARK    2  A    between atoms: N_4  and  C_6
REMARK    3  A    between atoms: N_4  and  C_7
REMARK    4  A    between atoms: N_5  and  C_15
REMARK    5  A    between atoms: C_11  and  C_15
REMARK    6  A    between atoms: C_16  and  C_17
REMARK    7  A    between atoms: C_16  and  C_19
REMARK    8  A    between atoms: C_16  and  C_20
REMARK    9  A    between atoms: C_16  and  C_21
REMARK   10  A    between atoms: C_17  and  C_18
REMARK                            x       y       z     vdW  Elec       q    Type
REMARK                         _______ _______ _______ _____ _____    ______ ____
ROOT
ATOM      1  O   UNL     1      -0.154   0.008  25.043  0.00  0.00    -0.371 OA
ATOM      7  C   UNL     1      -1.992   1.496  24.816  0.00  0.00    +0.111 C 
ATOM      8  C   UNL     1      -1.451   1.164  23.438  0.00  0.00    +0.164 C 
ATOM     11  C   UNL     1      -0.701  -0.131  23.721  0.00  0.00    +0.165 C 
ATOM     14  C   UNL     1      -0.823   1.098  25.703  0.00  0.00    +0.181 C 
ENDROOT
BRANCH   8   2
ATOM      2  O   UNL     1      -2.474   0.982  22.478  0.00  0.00    -0.388 OA
ATOM     23  H   UNL     1      -3.141   1.677  22.608  0.00  0.00    +0.210 HD
ENDBRANCH   8   2
BRANCH   7   4
ATOM      4  N   UNL     1      -2.372   2.890  24.974  0.00  0.00    -0.306 NA
ATOM     22  H   UNL     1      -1.858   3.471  24.313  0.00  0.00    +0.123 HD
BRANCH   4   6
ATOM      6  C   UNL     1      -3.802   3.066  24.788  0.00  0.00    +0.054 C 
ATOM      9  C   UNL     1      -4.573   1.755  24.866  0.00  0.00    +0.019 C 
ATOM     10  C   UNL     1      -4.443   3.888  25.899  0.00  0.00    +0.019 C 
ATOM     12  C   UNL     1      -6.015   2.198  25.099  0.00  0.00    +0.002 C 
ATOM     13  C   UNL     1      -5.931   3.574  25.767  0.00  0.00    +0.002 C 
ENDBRANCH   4   6
ENDBRANCH   7   4
BRANCH  11  15
ATOM     15  C   UNL     1       0.416  -0.406  22.730  0.00  0.00    +0.138 C 
BRANCH  15   5
ATOM      3  O   UNL     1       2.838  -0.073  21.178  0.00  0.00    -0.276 OA
ATOM      5  N   UNL     1       1.666   0.173  23.169  0.00  0.00    -0.313 N 
ATOM     18  C   UNL     1       2.776   0.291  22.351  0.00  0.00    +0.214 C 
ATOM     24  H   UNL     1       1.713   0.515  24.124  0.00  0.00    +0.149 HD
BRANCH  18  17
ATOM     17  C   UNL     1       3.967   0.925  23.051  0.00  0.00    +0.102 C 
BRANCH  17  16
ATOM     16  C   UNL     1       5.028  -0.079  23.560  0.00  0.00    -0.029 C 
ATOM     19  C   UNL     1       4.329  -1.430  23.806  0.00  0.00    +0.011 C 
ATOM     20  C   UNL     1       6.145  -0.290  22.525  0.00  0.00    +0.011 C 
ATOM     21  C   UNL     1       5.648   0.396  24.886  0.00  0.00    +0.011 C 
ENDBRANCH  17  16
ENDBRANCH  18  17
ENDBRANCH  15   5
ENDBRANCH  11  15
TORSDOF 7
ENDMDL
MODEL 10
REMARK VINA RESULT:      -3.0     15.102     17.582
REMARK  Name = 75367060
REMARK  10 active torsions:
REMARK  status: ('A' for Active; 'I' for Inactive)
REMARK    1  A    between atoms: O_2  and  C_8
REMARK    2  A    between atoms: N_4  and  C_6
REMARK    3  A    between atoms: N_4  and  C_7
REMARK    4  A    between atoms: N_5  and  C_15
REMARK    5  A    between atoms: C_11  and  C_15
REMARK    6  A    between atoms: C_16  and  C_17
REMARK    7  A    between atoms: C_16  and  C_19
REMARK    8  A    between atoms: C_16  and  C_20
REMARK    9  A    between atoms: C_16  and  C_21
REMARK   10  A    between atoms: C_17  and  C_18
REMARK                            x       y       z     vdW  Elec       q    Type
REMARK                         _______ _______ _______ _____ _____    ______ ____
ROOT
ATOM      1  O   UNL     1      -5.855 -10.601  13.610  0.00  0.00    -0.371 OA
ATOM      7  C   UNL     1      -7.926 -10.206  14.705  0.00  0.00    +0.111 C 
ATOM      8  C   UNL     1      -8.052  -9.803  13.248  0.00  0.00    +0.164 C 
ATOM     11  C   UNL     1      -6.904 -10.586  12.627  0.00  0.00    +0.165 C 
ATOM     14  C   UNL     1      -6.416 -10.228  14.881  0.00  0.00    +0.181 C 
ENDROOT
BRANCH   8   2
ATOM      2  O   UNL     1      -9.300 -10.164  12.688  0.00  0.00    -0.388 OA
ATOM     23  H   UNL     1      -9.595 -10.990  13.107  0.00  0.00    +0.210 HD
ENDBRANCH   8   2
BRANCH   7   4
ATOM      4  N   UNL     1      -8.588  -9.293  15.623  0.00  0.00    -0.306 NA
ATOM     22  H   UNL     1      -9.294  -8.748  15.128  0.00  0.00    +0.123 HD
BRANCH   4   6
ATOM      6  C   UNL     1      -9.196 -10.012  16.728  0.00  0.00    +0.054 C 
ATOM      9  C   UNL     1      -8.226 -10.255  17.878  0.00  0.00    +0.019 C 
ATOM     10  C   UNL     1     -10.310  -9.223  17.403  0.00  0.00    +0.019 C 
ATOM     12  C   UNL     1      -9.139 -10.589  19.055  0.00  0.00    +0.002 C 
ATOM     13  C   UNL     1     -10.483  -9.922  18.749  0.00  0.00    +0.002 C 
ENDBRANCH   4   6
ENDBRANCH   7   4
BRANCH  11  15
ATOM     15  C   UNL     1      -6.388  -9.973  11.337  0.00  0.00    +0.138 C 
BRANCH  15   5
ATOM      3  O   UNL     1      -6.989  -9.336   8.576  0.00  0.00    -0.276 OA
ATOM      5  N   UNL     1      -7.278  -8.944  10.848  0.00  0.00    -0.313 N 
ATOM     18  C   UNL     1      -7.504  -8.712   9.502  0.00  0.00    +0.214 C 
ATOM     24  H   UNL     1      -7.762  -8.377  11.539  0.00  0.00    +0.149 HD
BRANCH  18  17
ATOM     17  C   UNL     1      -8.474  -7.570   9.250  0.00  0.00    +0.102 C 
BRANCH  17  16
ATOM     16  C   UNL     1      -9.931  -8.009   8.967  0.00  0.00    -0.029 C 
ATOM     19  C   UNL     1     -10.615  -6.896   8.150  0.00  0.00    +0.011 C 
ATOM     20  C   UNL     1      -9.977  -9.311   8.151  0.00  0.00    +0.011 C 
ATOM     21  C   UNL     1     -10.715  -8.203  10.276  0.00  0.00    +0.011 C 
ENDBRANCH  17  16
ENDBRANCH  18  17
ENDBRANCH  15   5
ENDBRANCH  11  15
TORSDOF 7
ENDMDL
