MODEL 1
REMARK VINA RESULT:       3.7      0.000      0.000
REMARK  Name = 44716096
REMARK  6 active torsions:
REMARK  status: ('A' for Active; 'I' for Inactive)
REMARK    1  A    between atoms: O_2  and  C_28
REMARK    2  A    between atoms: N_4  and  C_17
REMARK    3  A    between atoms: N_5  and  C_15
REMARK    4  A    between atoms: C_9  and  C_16
REMARK    5  A    between atoms: C_10  and  C_15
REMARK    6  A    between atoms: C_24  and  C_25
REMARK                            x       y       z     vdW  Elec       q    Type
REMARK                         _______ _______ _______ _____ _____    ______ ____
ROOT
ATOM      3  N   UNL     1      -3.442  -0.779  23.539  0.00  0.00    -0.297 NA
ATOM      8  C   UNL     1      -3.667  -0.239  26.074  0.00  0.00    +0.005 C 
ATOM      9  C   UNL     1      -4.930   0.183  25.296  0.00  0.00    +0.092 C 
ATOM     10  C   UNL     1      -3.510  -2.039  24.328  0.00  0.00    +0.078 C 
ATOM     11  C   UNL     1      -3.475  -1.750  25.848  0.00  0.00    +0.025 C 
ATOM     12  C   UNL     1      -2.435   0.453  25.465  0.00  0.00    +0.020 C 
ATOM     13  C   UNL     1      -4.685  -0.004  23.787  0.00  0.00    +0.097 C 
ATOM     14  C   UNL     1      -2.303   0.055  23.986  0.00  0.00    +0.085 C 
ENDROOT
BRANCH   9  16
ATOM      1  O   UNL     1      -6.367   1.857  26.211  0.00  0.00    -0.275 OA
ATOM      4  N   UNL     1      -4.409   2.516  25.138  0.00  0.00    -0.312 N 
ATOM     16  C   UNL     1      -5.326   1.595  25.613  0.00  0.00    +0.218 C 
ATOM     31  H   UNL     1      -3.563   2.177  24.687  0.00  0.00    +0.149 HD
BRANCH   4  17
ATOM     17  C   UNL     1      -4.568   3.945  25.294  0.00  0.00    +0.073 C 
ATOM     18  C   UNL     1      -3.896   4.437  26.580  0.00  0.00    +0.022 C 
ATOM     19  C   UNL     1      -4.038   4.695  24.068  0.00  0.00    +0.022 C 
ATOM     20  C   UNL     1      -2.371   4.411  26.490  0.00  0.00    +0.002 C 
ATOM     21  C   UNL     1      -2.512   4.670  23.981  0.00  0.00    +0.002 C 
ATOM     22  C   UNL     1      -1.866   5.174  25.268  0.00  0.00    +0.000 C 
ENDBRANCH   4  17
ENDBRANCH   9  16
BRANCH  10  15
ATOM     15  C   UNL     1      -2.426  -3.038  23.916  0.00  0.00    +0.164 C 
BRANCH  15   5
ATOM      5  N   UNL     1      -1.049  -2.498  24.182  0.00  0.00    -0.250 N 
ATOM      6  N   UNL     1      -0.418  -2.768  25.336  0.00  0.00    -0.065 NA
ATOM      7  N   UNL     1       0.766  -2.166  25.288  0.00  0.00    -0.130 NA
ATOM     23  C   UNL     1      -0.290  -1.718  23.364  0.00  0.00    +0.138 A 
ATOM     24  C   UNL     1       0.860  -1.519  24.088  0.00  0.00    +0.113 A 
BRANCH  24  25
ATOM     25  C   UNL     1       1.988  -0.754  23.661  0.00  0.00    +0.007 A 
ATOM     26  C   UNL     1       3.279  -1.237  23.872  0.00  0.00    +0.055 A 
ATOM     27  C   UNL     1       1.796   0.477  23.033  0.00  0.00    +0.010 A 
ATOM     28  C   UNL     1       4.380  -0.489  23.454  0.00  0.00    +0.117 A 
ATOM     29  C   UNL     1       2.897   1.225  22.616  0.00  0.00    +0.004 A 
ATOM     30  C   UNL     1       4.189   0.743  22.826  0.00  0.00    +0.045 A 
BRANCH  28   2
ATOM      2  O   UNL     1       5.640  -0.958  23.661  0.00  0.00    -0.507 OA
ATOM     32  H   UNL     1       5.802  -1.020  24.618  0.00  0.00    +0.292 HD
ENDBRANCH  28   2
ENDBRANCH  24  25
ENDBRANCH  15   5
ENDBRANCH  10  15
TORSDOF 6
ENDMDL
MODEL 2
REMARK VINA RESULT:       7.2      2.606      7.456
REMARK  Name = 44716096
REMARK  6 active torsions:
REMARK  status: ('A' for Active; 'I' for Inactive)
REMARK    1  A    between atoms: O_2  and  C_28
REMARK    2  A    between atoms: N_4  and  C_17
REMARK    3  A    between atoms: N_5  and  C_15
REMARK    4  A    between atoms: C_9  and  C_16
REMARK    5  A    between atoms: C_10  and  C_15
REMARK    6  A    between atoms: C_24  and  C_25
REMARK                            x       y       z     vdW  Elec       q    Type
REMARK                         _______ _______ _______ _____ _____    ______ ____
ROOT
ATOM      3  N   UNL     1      -1.153   3.714  23.928  0.00  0.00    -0.297 NA
ATOM      8  C   UNL     1       0.280   1.739  24.832  0.00  0.00    +0.005 C 
ATOM      9  C   UNL     1       1.169   2.868  24.273  0.00  0.00    +0.092 C 
ATOM     10  C   UNL     1      -1.289   3.615  25.407  0.00  0.00    +0.078 C 
ATOM     11  C   UNL     1      -0.584   2.350  25.951  0.00  0.00    +0.025 C 
ATOM     12  C   UNL     1      -0.694   1.266  23.739  0.00  0.00    +0.020 C 
ATOM     13  C   UNL     1       0.281   3.934  23.604  0.00  0.00    +0.097 C 
ATOM     14  C   UNL     1      -1.564   2.447  23.282  0.00  0.00    +0.085 C 
ENDROOT
BRANCH   9  16
ATOM      1  O   UNL     1       2.909   3.085  22.651  0.00  0.00    -0.275 OA
ATOM      4  N   UNL     1       2.209   0.954  23.276  0.00  0.00    -0.312 N 
ATOM     16  C   UNL     1       2.197   2.338  23.317  0.00  0.00    +0.218 C 
ATOM     31  H   UNL     1       1.595   0.440  23.902  0.00  0.00    +0.149 HD
BRANCH   4  17
ATOM     17  C   UNL     1       3.093   0.196  22.418  0.00  0.00    +0.073 C 
ATOM     18  C   UNL     1       4.495   0.813  22.388  0.00  0.00    +0.022 C 
ATOM     19  C   UNL     1       3.143  -1.276  22.843  0.00  0.00    +0.022 C 
ATOM     20  C   UNL     1       5.255   0.604  23.697  0.00  0.00    +0.002 C 
ATOM     21  C   UNL     1       3.905  -1.482  24.152  0.00  0.00    +0.002 C 
ATOM     22  C   UNL     1       5.301  -0.869  24.093  0.00  0.00    +0.000 C 
ENDBRANCH   4  17
ENDBRANCH   9  16
BRANCH  10  15
ATOM     15  C   UNL     1      -2.750   3.687  25.859  0.00  0.00    +0.164 C 
BRANCH  15   5
ATOM      5  N   UNL     1      -3.475   2.399  25.588  0.00  0.00    -0.250 N 
ATOM      6  N   UNL     1      -4.816   2.365  25.539  0.00  0.00    -0.065 NA
ATOM      7  N   UNL     1      -5.169   1.109  25.287  0.00  0.00    -0.130 NA
ATOM     23  C   UNL     1      -2.932   1.170  25.369  0.00  0.00    +0.138 A 
ATOM     24  C   UNL     1      -4.028   0.365  25.179  0.00  0.00    +0.113 A 
BRANCH  24  25
ATOM     25  C   UNL     1      -3.992  -1.037  24.911  0.00  0.00    +0.007 A 
ATOM     26  C   UNL     1      -4.617  -1.547  23.772  0.00  0.00    +0.055 A 
ATOM     27  C   UNL     1      -3.331  -1.897  25.789  0.00  0.00    +0.010 A 
ATOM     28  C   UNL     1      -4.580  -2.917  23.511  0.00  0.00    +0.117 A 
ATOM     29  C   UNL     1      -3.295  -3.267  25.528  0.00  0.00    +0.004 A 
ATOM     30  C   UNL     1      -3.919  -3.777  24.389  0.00  0.00    +0.045 A 
BRANCH  28   2
ATOM      2  O   UNL     1      -5.190  -3.415  22.402  0.00  0.00    -0.507 OA
ATOM     32  H   UNL     1      -4.582  -3.343  21.647  0.00  0.00    +0.292 HD
ENDBRANCH  28   2
ENDBRANCH  24  25
ENDBRANCH  15   5
ENDBRANCH  10  15
TORSDOF 6
ENDMDL
