MODEL 1
REMARK VINA RESULT:       3.7      0.000      0.000
REMARK  Name = 11913188
REMARK  11 active torsions:
REMARK  status: ('A' for Active; 'I' for Inactive)
REMARK    1  A    between atoms: O_3  and  C_35
REMARK    2  A    between atoms: O_3  and  C_36
REMARK    3  A    between atoms: N_6  and  C_18
REMARK    4  A    between atoms: N_7  and  C_19
REMARK    5  A    between atoms: C_8  and  C_14
REMARK    6  A    between atoms: C_9  and  C_13
REMARK    7  A    between atoms: C_13  and  C_15
REMARK    8  A    between atoms: C_14  and  C_16
REMARK    9  A    between atoms: C_18  and  C_20
REMARK   10  A    between atoms: C_26  and  C_35
REMARK   11  A    between atoms: C_36  and  C_37
REMARK                            x       y       z     vdW  Elec       q    Type
REMARK                         _______ _______ _______ _____ _____    ______ ____
ROOT
ATOM      2  O   UNL     1      -0.584  -1.376  25.909  0.00  0.00    -0.252 OA
ATOM      5  N   UNL     1      -2.526  -1.287  24.659  0.00  0.00    -0.285 N 
ATOM      7  N   UNL     1      -0.420  -1.139  23.607  0.00  0.00    -0.269 N 
ATOM      8  C   UNL     1      -5.137  -0.039  24.633  0.00  0.00    +0.004 C 
ATOM      9  C   UNL     1      -4.214   0.008  23.387  0.00  0.00    +0.010 C 
ATOM     10  C   UNL     1      -4.333  -0.215  25.934  0.00  0.00    +0.023 C 
ATOM     11  C   UNL     1      -3.275  -1.209  23.396  0.00  0.00    +0.113 C 
ATOM     12  C   UNL     1      -3.374  -1.401  25.846  0.00  0.00    +0.109 C 
ATOM     17  C   UNL     1      -1.123  -1.284  24.803  0.00  0.00    +0.306 C 
ATOM     39  H   UNL     1      -0.843  -1.485  22.754  0.00  0.00    +0.156 HD
ENDROOT
BRANCH   7  19
ATOM     19  C   UNL     1       0.848  -0.533  23.422  0.00  0.00    +0.036 A 
ATOM     22  C   UNL     1       2.009  -1.226  23.768  0.00  0.00    +0.038 A 
ATOM     23  C   UNL     1       0.935   0.756  22.896  0.00  0.00    +0.023 A 
ATOM     26  C   UNL     1       3.256  -0.629  23.587  0.00  0.00    +0.061 A 
ATOM     27  C   UNL     1       2.183   1.352  22.714  0.00  0.00    +0.003 A 
ATOM     31  C   UNL     1       3.343   0.659  23.060  0.00  0.00    +0.015 A 
BRANCH  26  35
ATOM      4  O   UNL     1       4.673  -2.544  23.689  0.00  0.00    -0.245 OA
ATOM     35  C   UNL     1       4.467  -1.351  23.946  0.00  0.00    +0.339 C 
BRANCH  35   3
ATOM      3  O   UNL     1       5.355  -0.546  24.606  0.00  0.00    -0.461 OA
BRANCH   3  36
ATOM     36  C   UNL     1       6.103   0.380  23.811  0.00  0.00    +0.229 C 
ATOM     37  C   UNL     1       6.976  -0.393  22.844  0.00  0.00    +0.048 C 
ENDBRANCH   3  36
ENDBRANCH  35   3
ENDBRANCH  26  35
ENDBRANCH   7  19
BRANCH   9  13
ATOM     13  C   UNL     1      -3.408   1.306  23.255  0.00  0.00    +0.002 C 
ATOM     15  C   UNL     1      -2.543   1.288  22.013  0.00  0.00    +0.004 C 
ENDBRANCH   9  13
BRANCH   8  14
ATOM     14  C   UNL     1      -6.071   1.166  24.734  0.00  0.00    +0.099 C 
BRANCH  14  16
ATOM      1  O   UNL     1      -5.931   2.057  26.979  0.00  0.00    -0.276 OA
ATOM      6  N   UNL     1      -4.836   3.152  25.245  0.00  0.00    -0.311 N 
ATOM     16  C   UNL     1      -5.624   2.150  25.793  0.00  0.00    +0.214 C 
ATOM     38  H   UNL     1      -4.630   3.147  24.251  0.00  0.00    +0.149 HD
BRANCH   6  18
ATOM     18  C   UNL     1      -4.273   4.229  26.027  0.00  0.00    +0.140 C 
BRANCH  18  20
ATOM     20  C   UNL     1      -2.890   4.594  25.568  0.00  0.00    -0.023 A 
ATOM     21  C   UNL     1      -1.815   3.693  25.658  0.00  0.00    -0.013 A 
ATOM     24  C   UNL     1      -2.707   5.872  25.042  0.00  0.00    +0.006 A 
ATOM     25  C   UNL     1      -0.536   4.098  25.208  0.00  0.00    -0.018 A 
ATOM     28  C   UNL     1      -1.982   2.402  26.185  0.00  0.00    +0.009 A 
ATOM     29  C   UNL     1      -1.449   6.269  24.599  0.00  0.00    +0.001 A 
ATOM     30  C   UNL     1      -0.369   5.389  24.681  0.00  0.00    +0.008 A 
ATOM     32  C   UNL     1       0.539   3.199  25.298  0.00  0.00    +0.008 A 
ATOM     33  C   UNL     1      -0.902   1.522  26.266  0.00  0.00    +0.001 A 
ATOM     34  C   UNL     1       0.356   1.919  25.823  0.00  0.00    +0.001 A 
ENDBRANCH  18  20
ENDBRANCH   6  18
ENDBRANCH  14  16
ENDBRANCH   8  14
TORSDOF 9
ENDMDL
MODEL 2
REMARK VINA RESULT:       5.9      1.936      4.428
REMARK  Name = 11913188
REMARK  11 active torsions:
REMARK  status: ('A' for Active; 'I' for Inactive)
REMARK    1  A    between atoms: O_3  and  C_35
REMARK    2  A    between atoms: O_3  and  C_36
REMARK    3  A    between atoms: N_6  and  C_18
REMARK    4  A    between atoms: N_7  and  C_19
REMARK    5  A    between atoms: C_8  and  C_14
REMARK    6  A    between atoms: C_9  and  C_13
REMARK    7  A    between atoms: C_13  and  C_15
REMARK    8  A    between atoms: C_14  and  C_16
REMARK    9  A    between atoms: C_18  and  C_20
REMARK   10  A    between atoms: C_26  and  C_35
REMARK   11  A    between atoms: C_36  and  C_37
REMARK                            x       y       z     vdW  Elec       q    Type
REMARK                         _______ _______ _______ _____ _____    ______ ____
ROOT
ATOM      2  O   UNL     1       0.515   4.210  23.246  0.00  0.00    -0.252 OA
ATOM      5  N   UNL     1      -0.967   3.841  24.982  0.00  0.00    -0.285 N 
ATOM      7  N   UNL     1       0.713   2.260  24.489  0.00  0.00    -0.269 N 
ATOM      8  C   UNL     1      -3.787   3.993  25.613  0.00  0.00    +0.004 C 
ATOM      9  C   UNL     1      -2.968   2.707  25.905  0.00  0.00    +0.010 C 
ATOM     10  C   UNL     1      -3.163   4.822  24.476  0.00  0.00    +0.023 C 
ATOM     11  C   UNL     1      -1.492   3.077  26.124  0.00  0.00    +0.113 C 
ATOM     12  C   UNL     1      -1.680   5.094  24.728  0.00  0.00    +0.109 C 
ATOM     17  C   UNL     1       0.132   3.488  24.171  0.00  0.00    +0.306 C 
ATOM     39  H   UNL     1       0.663   1.937  25.447  0.00  0.00    +0.156 HD
ENDROOT
BRANCH   7  19
ATOM     19  C   UNL     1       1.372   1.368  23.607  0.00  0.00    +0.036 A 
ATOM     22  C   UNL     1       2.766   1.319  23.577  0.00  0.00    +0.038 A 
ATOM     23  C   UNL     1       0.627   0.538  22.769  0.00  0.00    +0.023 A 
ATOM     26  C   UNL     1       3.414   0.441  22.709  0.00  0.00    +0.061 A 
ATOM     27  C   UNL     1       1.276  -0.340  21.902  0.00  0.00    +0.003 A 
ATOM     31  C   UNL     1       2.670  -0.388  21.871  0.00  0.00    +0.015 A 
BRANCH  26  35
ATOM      4  O   UNL     1       5.535   0.050  21.691  0.00  0.00    -0.245 OA
ATOM     35  C   UNL     1       4.868   0.391  22.677  0.00  0.00    +0.339 C 
BRANCH  35   3
ATOM      3  O   UNL     1       5.410   0.768  23.875  0.00  0.00    -0.461 OA
BRANCH   3  36
ATOM     36  C   UNL     1       5.688  -0.275  24.816  0.00  0.00    +0.229 C 
ATOM     37  C   UNL     1       5.301  -1.606  24.206  0.00  0.00    +0.048 C 
ENDBRANCH   3  36
ENDBRANCH  35   3
ENDBRANCH  26  35
ENDBRANCH   7  19
BRANCH   9  13
ATOM     13  C   UNL     1      -3.097   1.626  24.826  0.00  0.00    +0.002 C 
ATOM     15  C   UNL     1      -2.825   2.194  23.449  0.00  0.00    +0.004 C 
ENDBRANCH   9  13
BRANCH   8  14
ATOM     14  C   UNL     1      -5.262   3.713  25.329  0.00  0.00    +0.099 C 
BRANCH  14  16
ATOM      1  O   UNL     1      -6.581   2.350  26.831  0.00  0.00    -0.276 OA
ATOM      6  N   UNL     1      -5.068   1.328  25.391  0.00  0.00    -0.311 N 
ATOM     16  C   UNL     1      -5.729   2.414  25.949  0.00  0.00    +0.214 C 
ATOM     38  H   UNL     1      -4.378   1.476  24.662  0.00  0.00    +0.149 HD
BRANCH   6  18
ATOM     18  C   UNL     1      -5.313  -0.037  25.796  0.00  0.00    +0.140 C 
BRANCH  18  20
ATOM     20  C   UNL     1      -4.499  -1.015  24.999  0.00  0.00    -0.023 A 
ATOM     21  C   UNL     1      -3.131  -1.221  25.245  0.00  0.00    -0.013 A 
ATOM     24  C   UNL     1      -5.156  -1.725  23.993  0.00  0.00    +0.006 A 
ATOM     25  C   UNL     1      -2.420  -2.158  24.458  0.00  0.00    -0.018 A 
ATOM     28  C   UNL     1      -2.454  -0.516  26.253  0.00  0.00    +0.009 A 
ATOM     29  C   UNL     1      -4.456  -2.647  23.221  0.00  0.00    +0.001 A 
ATOM     30  C   UNL     1      -3.098  -2.863  23.450  0.00  0.00    +0.008 A 
ATOM     32  C   UNL     1      -1.053  -2.363  24.704  0.00  0.00    +0.008 A 
ATOM     33  C   UNL     1      -1.095  -0.732  26.483  0.00  0.00    +0.001 A 
ATOM     34  C   UNL     1      -0.396  -1.654  25.710  0.00  0.00    +0.001 A 
ENDBRANCH  18  20
ENDBRANCH   6  18
ENDBRANCH  14  16
ENDBRANCH   8  14
TORSDOF 9
ENDMDL
MODEL 3
REMARK VINA RESULT:       6.3      1.579      2.290
REMARK  Name = 11913188
REMARK  11 active torsions:
REMARK  status: ('A' for Active; 'I' for Inactive)
REMARK    1  A    between atoms: O_3  and  C_35
REMARK    2  A    between atoms: O_3  and  C_36
REMARK    3  A    between atoms: N_6  and  C_18
REMARK    4  A    between atoms: N_7  and  C_19
REMARK    5  A    between atoms: C_8  and  C_14
REMARK    6  A    between atoms: C_9  and  C_13
REMARK    7  A    between atoms: C_13  and  C_15
REMARK    8  A    between atoms: C_14  and  C_16
REMARK    9  A    between atoms: C_18  and  C_20
REMARK   10  A    between atoms: C_26  and  C_35
REMARK   11  A    between atoms: C_36  and  C_37
REMARK                            x       y       z     vdW  Elec       q    Type
REMARK                         _______ _______ _______ _____ _____    ______ ____
ROOT
ATOM      2  O   UNL     1      -2.854  -1.433  26.638  0.00  0.00    -0.252 OA
ATOM      5  N   UNL     1      -4.361  -0.427  25.203  0.00  0.00    -0.285 N 
ATOM      7  N   UNL     1      -2.363  -1.365  24.371  0.00  0.00    -0.269 N 
ATOM      8  C   UNL     1      -5.997   1.947  24.950  0.00  0.00    +0.004 C 
ATOM      9  C   UNL     1      -5.050   1.501  23.805  0.00  0.00    +0.010 C 
ATOM     10  C   UNL     1      -5.521   1.430  26.320  0.00  0.00    +0.023 C 
ATOM     11  C   UNL     1      -4.842  -0.021  23.873  0.00  0.00    +0.113 C 
ATOM     12  C   UNL     1      -5.271  -0.077  26.295  0.00  0.00    +0.109 C 
ATOM     17  C   UNL     1      -3.162  -1.114  25.487  0.00  0.00    +0.306 C 
ATOM     39  H   UNL     1      -2.813  -1.479  23.471  0.00  0.00    +0.156 HD
ENDROOT
BRANCH   7  19
ATOM     19  C   UNL     1      -0.950  -1.470  24.333  0.00  0.00    +0.036 A 
ATOM     22  C   UNL     1      -0.225  -0.781  23.361  0.00  0.00    +0.038 A 
ATOM     23  C   UNL     1      -0.285  -2.264  25.268  0.00  0.00    +0.023 A 
ATOM     26  C   UNL     1       1.165  -0.886  23.323  0.00  0.00    +0.061 A 
ATOM     27  C   UNL     1       1.105  -2.368  25.230  0.00  0.00    +0.003 A 
ATOM     31  C   UNL     1       1.830  -1.679  24.257  0.00  0.00    +0.015 A 
BRANCH  26  35
ATOM      4  O   UNL     1       1.759  -0.300  21.089  0.00  0.00    -0.245 OA
ATOM     35  C   UNL     1       1.921  -0.167  22.309  0.00  0.00    +0.339 C 
BRANCH  35   3
ATOM      3  O   UNL     1       2.838   0.678  22.872  0.00  0.00    -0.461 OA
BRANCH   3  36
ATOM     36  C   UNL     1       4.185   0.580  22.396  0.00  0.00    +0.229 C 
ATOM     37  C   UNL     1       5.116   0.418  23.580  0.00  0.00    +0.048 C 
ENDBRANCH   3  36
ENDBRANCH  35   3
ENDBRANCH  26  35
ENDBRANCH   7  19
BRANCH   9  13
ATOM     13  C   UNL     1      -3.700   2.227  23.792  0.00  0.00    +0.002 C 
ATOM     15  C   UNL     1      -2.844   1.768  22.631  0.00  0.00    +0.004 C 
ENDBRANCH   9  13
BRANCH   8  14
ATOM     14  C   UNL     1      -6.219   3.459  24.991  0.00  0.00    +0.099 C 
BRANCH  14  16
ATOM      1  O   UNL     1      -4.385   4.902  24.352  0.00  0.00    -0.276 OA
ATOM      6  N   UNL     1      -4.462   4.040  26.510  0.00  0.00    -0.311 N 
ATOM     16  C   UNL     1      -4.931   4.220  25.216  0.00  0.00    +0.214 C 
ATOM     38  H   UNL     1      -4.982   3.460  27.160  0.00  0.00    +0.149 HD
BRANCH   6  18
ATOM     18  C   UNL     1      -3.247   4.649  27.001  0.00  0.00    +0.140 C 
BRANCH  18  20
ATOM     20  C   UNL     1      -2.188   4.729  25.939  0.00  0.00    -0.023 A 
ATOM     21  C   UNL     1      -1.325   3.655  25.666  0.00  0.00    -0.013 A 
ATOM     24  C   UNL     1      -2.091   5.921  25.220  0.00  0.00    +0.006 A 
ATOM     25  C   UNL     1      -0.348   3.794  24.652  0.00  0.00    -0.018 A 
ATOM     28  C   UNL     1      -1.408   2.448  26.379  0.00  0.00    +0.009 A 
ATOM     29  C   UNL     1      -1.131   6.056  24.222  0.00  0.00    +0.001 A 
ATOM     30  C   UNL     1      -0.264   5.001  23.939  0.00  0.00    +0.008 A 
ATOM     32  C   UNL     1       0.516   2.721  24.379  0.00  0.00    +0.008 A 
ATOM     33  C   UNL     1      -0.542   1.392  26.096  0.00  0.00    +0.001 A 
ATOM     34  C   UNL     1       0.419   1.528  25.097  0.00  0.00    +0.001 A 
ENDBRANCH  18  20
ENDBRANCH   6  18
ENDBRANCH  14  16
ENDBRANCH   8  14
TORSDOF 9
ENDMDL
MODEL 4
REMARK VINA RESULT:       6.6      1.865      4.530
REMARK  Name = 11913188
REMARK  11 active torsions:
REMARK  status: ('A' for Active; 'I' for Inactive)
REMARK    1  A    between atoms: O_3  and  C_35
REMARK    2  A    between atoms: O_3  and  C_36
REMARK    3  A    between atoms: N_6  and  C_18
REMARK    4  A    between atoms: N_7  and  C_19
REMARK    5  A    between atoms: C_8  and  C_14
REMARK    6  A    between atoms: C_9  and  C_13
REMARK    7  A    between atoms: C_13  and  C_15
REMARK    8  A    between atoms: C_14  and  C_16
REMARK    9  A    between atoms: C_18  and  C_20
REMARK   10  A    between atoms: C_26  and  C_35
REMARK   11  A    between atoms: C_36  and  C_37
REMARK                            x       y       z     vdW  Elec       q    Type
REMARK                         _______ _______ _______ _____ _____    ______ ____
ROOT
ATOM      2  O   UNL     1      -1.904   1.651  21.697  0.00  0.00    -0.252 OA
ATOM      5  N   UNL     1      -2.389   3.351  23.186  0.00  0.00    -0.285 N 
ATOM      7  N   UNL     1      -0.225   2.418  23.103  0.00  0.00    -0.269 N 
ATOM      8  C   UNL     1      -4.404   4.172  25.094  0.00  0.00    +0.004 C 
ATOM      9  C   UNL     1      -2.903   4.123  25.485  0.00  0.00    +0.010 C 
ATOM     10  C   UNL     1      -4.726   3.210  23.936  0.00  0.00    +0.023 C 
ATOM     11  C   UNL     1      -2.039   4.326  24.230  0.00  0.00    +0.113 C 
ATOM     12  C   UNL     1      -3.785   3.424  22.751  0.00  0.00    +0.109 C 
ATOM     17  C   UNL     1      -1.520   2.416  22.586  0.00  0.00    +0.306 C 
ATOM     39  H   UNL     1       0.142   3.283  23.481  0.00  0.00    +0.156 HD
ENDROOT
BRANCH   7  19
ATOM     19  C   UNL     1       0.671   1.322  23.182  0.00  0.00    +0.036 A 
ATOM     22  C   UNL     1       2.032   1.514  22.945  0.00  0.00    +0.038 A 
ATOM     23  C   UNL     1       0.190   0.051  23.499  0.00  0.00    +0.023 A 
ATOM     26  C   UNL     1       2.912   0.435  23.023  0.00  0.00    +0.061 A 
ATOM     27  C   UNL     1       1.071  -1.027  23.577  0.00  0.00    +0.003 A 
ATOM     31  C   UNL     1       2.432  -0.835  23.339  0.00  0.00    +0.015 A 
BRANCH  26  35
ATOM      4  O   UNL     1       4.869   0.532  21.665  0.00  0.00    -0.245 OA
ATOM     35  C   UNL     1       4.331   0.635  22.775  0.00  0.00    +0.339 C 
BRANCH  35   3
ATOM      3  O   UNL     1       5.002   0.953  23.924  0.00  0.00    -0.461 OA
BRANCH   3  36
ATOM     36  C   UNL     1       6.078   0.089  24.305  0.00  0.00    +0.229 C 
ATOM     37  C   UNL     1       5.581  -1.341  24.318  0.00  0.00    +0.048 C 
ENDBRANCH   3  36
ENDBRANCH  35   3
ENDBRANCH  26  35
ENDBRANCH   7  19
BRANCH   9  13
ATOM     13  C   UNL     1      -2.491   2.842  26.219  0.00  0.00    +0.002 C 
ATOM     15  C   UNL     1      -0.989   2.772  26.395  0.00  0.00    +0.004 C 
ENDBRANCH   9  13
BRANCH   8  14
ATOM     14  C   UNL     1      -5.341   3.926  26.276  0.00  0.00    +0.099 C 
BRANCH  14  16
ATOM      1  O   UNL     1      -6.635   2.075  27.144  0.00  0.00    -0.276 OA
ATOM      6  N   UNL     1      -5.022   1.677  25.519  0.00  0.00    -0.311 N 
ATOM     16  C   UNL     1      -5.758   2.475  26.383  0.00  0.00    +0.214 C 
ATOM     38  H   UNL     1      -4.316   2.096  24.921  0.00  0.00    +0.149 HD
BRANCH   6  18
ATOM     18  C   UNL     1      -5.208   0.248  25.413  0.00  0.00    +0.140 C 
BRANCH  18  20
ATOM     20  C   UNL     1      -3.902  -0.493  25.435  0.00  0.00    -0.023 A 
ATOM     21  C   UNL     1      -3.687  -1.646  24.662  0.00  0.00    -0.013 A 
ATOM     24  C   UNL     1      -2.895   0.010  26.259  0.00  0.00    +0.006 A 
ATOM     25  C   UNL     1      -2.433  -2.298  24.727  0.00  0.00    -0.018 A 
ATOM     28  C   UNL     1      -4.689  -2.165  23.826  0.00  0.00    +0.009 A 
ATOM     29  C   UNL     1      -1.662  -0.632  26.323  0.00  0.00    +0.001 A 
ATOM     30  C   UNL     1      -1.431  -1.778  25.562  0.00  0.00    +0.008 A 
ATOM     32  C   UNL     1      -2.218  -3.451  23.954  0.00  0.00    +0.008 A 
ATOM     33  C   UNL     1      -4.458  -3.312  23.066  0.00  0.00    +0.001 A 
ATOM     34  C   UNL     1      -3.225  -3.953  23.129  0.00  0.00    +0.001 A 
ENDBRANCH  18  20
ENDBRANCH   6  18
ENDBRANCH  14  16
ENDBRANCH   8  14
TORSDOF 9
ENDMDL
