MODEL 1
REMARK VINA RESULT:      -4.5      0.000      0.000
REMARK  Name = 11911975
REMARK  4 active torsions:
REMARK  status: ('A' for Active; 'I' for Inactive)
REMARK    1  A    between atoms: N_3  and  C_13
REMARK    2  A    between atoms: C_13  and  C_18
REMARK    3  A    between atoms: C_16  and  C_19
REMARK    4  A    between atoms: C_23  and  C_30
REMARK                            x       y       z     vdW  Elec       q    Type
REMARK                         _______ _______ _______ _____ _____    ______ ____
ROOT
ATOM      2  O   UNL     1      15.286  -7.019  26.627  0.00  0.00    -0.267 OA
ATOM      3  N   UNL     1      13.830  -7.790  31.361  0.00  0.00    -0.297 NA
ATOM      4  N   UNL     1      15.767  -7.598  28.835  0.00  0.00    -0.311 N 
ATOM      6  C   UNL     1      14.763  -9.660  29.977  0.00  0.00    +0.024 C 
ATOM      7  C   UNL     1      16.290  -8.205  31.222  0.00  0.00    +0.050 C 
ATOM      8  C   UNL     1      16.048  -9.650  30.794  0.00  0.00    +0.017 C 
ATOM      9  C   UNL     1      13.589  -9.137  30.831  0.00  0.00    +0.090 C 
ATOM     10  C   UNL     1      15.106  -7.718  32.088  0.00  0.00    +0.094 C 
ATOM     11  C   UNL     1      14.981  -8.832  28.704  0.00  0.00    +0.130 C 
ATOM     12  C   UNL     1      16.466  -7.308  30.010  0.00  0.00    +0.026 A 
ATOM     14  C   UNL     1      17.268  -6.233  30.072  0.00  0.00    +0.022 A 
ATOM     15  C   UNL     1      15.862  -6.781  27.690  0.00  0.00    +0.260 A 
ATOM     16  C   UNL     1      16.743  -5.568  27.804  0.00  0.00    +0.053 A 
ATOM     17  C   UNL     1      17.405  -5.348  28.949  0.00  0.00    +0.016 A 
ENDROOT
BRANCH  16  19
ATOM      1  S   UNL     1      17.138  -3.000  27.009  0.00  0.00    -0.088 S 
ATOM     19  C   UNL     1      16.881  -4.663  26.707  0.00  0.00    +0.026 A 
ATOM     22  C   UNL     1      16.838  -4.931  25.354  0.00  0.00    +0.024 A 
ATOM     25  C   UNL     1      17.018  -3.762  24.541  0.00  0.00    -0.010 A 
ATOM     26  C   UNL     1      17.194  -2.619  25.328  0.00  0.00    +0.020 A 
ATOM     28  C   UNL     1      17.038  -3.614  23.132  0.00  0.00    +0.009 A 
ATOM     29  C   UNL     1      17.390  -1.350  24.750  0.00  0.00    +0.015 A 
ATOM     31  C   UNL     1      17.232  -2.356  22.557  0.00  0.00    +0.001 A 
ATOM     32  C   UNL     1      17.405  -1.237  23.359  0.00  0.00    +0.001 A 
ENDBRANCH  16  19
BRANCH   3  13
ATOM     13  C   UNL     1      12.721  -7.353  32.206  0.00  0.00    +0.119 C 
BRANCH  13  18
ATOM     18  C   UNL     1      11.645  -8.396  32.303  0.00  0.00    -0.032 A 
ATOM     20  C   UNL     1      10.335  -8.067  31.973  0.00  0.00    +0.023 A 
ATOM     21  C   UNL     1      11.969  -9.681  32.724  0.00  0.00    +0.005 A 
ATOM     23  C   UNL     1       9.337  -9.035  32.064  0.00  0.00    +0.052 A 
ATOM     24  C   UNL     1      10.970 -10.650  32.815  0.00  0.00    +0.002 A 
ATOM     27  C   UNL     1       9.653 -10.327  32.484  0.00  0.00    +0.019 A 
BRANCH  23  30
ATOM      5  N   UNL     1       6.892  -8.437  31.448  0.00  0.00    -0.191 NA
ATOM     30  C   UNL     1       7.988  -8.705  31.724  0.00  0.00    +0.099 C 
ENDBRANCH  23  30
ENDBRANCH  13  18
ENDBRANCH   3  13
TORSDOF 4
ENDMDL
MODEL 2
REMARK VINA RESULT:      -4.0      2.177      3.326
REMARK  Name = 11911975
REMARK  4 active torsions:
REMARK  status: ('A' for Active; 'I' for Inactive)
REMARK    1  A    between atoms: N_3  and  C_13
REMARK    2  A    between atoms: C_13  and  C_18
REMARK    3  A    between atoms: C_16  and  C_19
REMARK    4  A    between atoms: C_23  and  C_30
REMARK                            x       y       z     vdW  Elec       q    Type
REMARK                         _______ _______ _______ _____ _____    ______ ____
ROOT
ATOM      2  O   UNL     1      17.144  -5.574  27.802  0.00  0.00    -0.267 OA
ATOM      3  N   UNL     1      14.540  -5.329  32.079  0.00  0.00    -0.297 NA
ATOM      4  N   UNL     1      16.927  -4.867  30.015  0.00  0.00    -0.311 N 
ATOM      6  C   UNL     1      16.754  -6.501  31.981  0.00  0.00    +0.024 C 
ATOM      7  C   UNL     1      16.686  -4.089  32.397  0.00  0.00    +0.050 C 
ATOM      8  C   UNL     1      17.405  -5.380  32.779  0.00  0.00    +0.017 C 
ATOM      9  C   UNL     1      15.251  -6.589  32.322  0.00  0.00    +0.090 C 
ATOM     10  C   UNL     1      15.190  -4.203  32.768  0.00  0.00    +0.094 C 
ATOM     11  C   UNL     1      17.006  -6.256  30.487  0.00  0.00    +0.130 C 
ATOM     12  C   UNL     1      16.846  -3.801  30.916  0.00  0.00    +0.026 A 
ATOM     14  C   UNL     1      16.888  -2.535  30.471  0.00  0.00    +0.022 A 
ATOM     15  C   UNL     1      17.040  -4.662  28.625  0.00  0.00    +0.260 A 
ATOM     16  C   UNL     1      17.051  -3.233  28.157  0.00  0.00    +0.053 A 
ATOM     17  C   UNL     1      16.990  -2.249  29.067  0.00  0.00    +0.016 A 
ENDROOT
BRANCH  16  19
ATOM      1  S   UNL     1      17.187  -4.189  25.618  0.00  0.00    -0.088 S 
ATOM     19  C   UNL     1      17.133  -2.923  26.765  0.00  0.00    +0.026 A 
ATOM     22  C   UNL     1      17.176  -1.685  26.156  0.00  0.00    +0.024 A 
ATOM     25  C   UNL     1      17.255  -1.763  24.725  0.00  0.00    -0.010 A 
ATOM     26  C   UNL     1      17.271  -3.091  24.290  0.00  0.00    +0.020 A 
ATOM     28  C   UNL     1      17.319  -0.737  23.750  0.00  0.00    +0.009 A 
ATOM     29  C   UNL     1      17.345  -3.417  22.921  0.00  0.00    +0.015 A 
ATOM     31  C   UNL     1      17.393  -1.058  22.392  0.00  0.00    +0.001 A 
ATOM     32  C   UNL     1      17.405  -2.385  21.984  0.00  0.00    +0.001 A 
ENDBRANCH  16  19
BRANCH   3  13
ATOM     13  C   UNL     1      13.135  -5.438  32.464  0.00  0.00    +0.119 C 
BRANCH  13  18
ATOM     18  C   UNL     1      12.576  -6.800  32.168  0.00  0.00    -0.032 A 
ATOM     20  C   UNL     1      13.244  -7.642  31.288  0.00  0.00    +0.023 A 
ATOM     21  C   UNL     1      11.394  -7.204  32.779  0.00  0.00    +0.005 A 
ATOM     23  C   UNL     1      12.723  -8.906  31.014  0.00  0.00    +0.052 A 
ATOM     24  C   UNL     1      10.873  -8.468  32.505  0.00  0.00    +0.002 A 
ATOM     27  C   UNL     1      11.539  -9.321  31.623  0.00  0.00    +0.019 A 
BRANCH  23  30
ATOM      5  N   UNL     1      13.959 -10.489  29.376  0.00  0.00    -0.191 NA
ATOM     30  C   UNL     1      13.405  -9.779  30.110  0.00  0.00    +0.099 C 
ENDBRANCH  23  30
ENDBRANCH  13  18
ENDBRANCH   3  13
TORSDOF 4
ENDMDL
