MODEL 1
REMARK VINA RESULT:      -4.1      0.000      0.000
REMARK  Name = 75367670
REMARK  4 active torsions:
REMARK  status: ('A' for Active; 'I' for Inactive)
REMARK    1  A    between atoms: O_5  and  C_10
REMARK    2  A    between atoms: O_5  and  C_16
REMARK    3  A    between atoms: C_15  and  C_17
REMARK    4  A    between atoms: C_20  and  C_24
REMARK                            x       y       z     vdW  Elec       q    Type
REMARK                         _______ _______ _______ _____ _____    ______ ____
ROOT
ATOM      4  O   UNL     1      -4.649  -2.770  23.865  0.00  0.00    -0.375 OA
ATOM      6  O   UNL     1      -0.119  -2.094  25.393  0.00  0.00    -0.268 OA
ATOM      7  N   UNL     1      -2.324  -1.302  25.371  0.00  0.00    -0.290 N 
ATOM     10  C   UNL     1      -4.672  -0.502  24.762  0.00  0.00    +0.216 C 
ATOM     11  C   UNL     1      -3.248  -0.170  25.220  0.00  0.00    +0.155 C 
ATOM     12  C   UNL     1      -2.888  -2.639  25.562  0.00  0.00    +0.136 C 
ATOM     13  C   UNL     1      -4.713  -1.390  23.520  0.00  0.00    +0.206 C 
ATOM     14  C   UNL     1      -3.354  -3.231  24.238  0.00  0.00    +0.179 C 
ATOM     15  C   UNL     1      -0.928  -1.170  25.304  0.00  0.00    +0.267 C 
ENDROOT
BRANCH  15  17
ATOM      8  N   UNL     1      -0.513   1.043  26.131  0.00  0.00    -0.247 NA
ATOM      9  N   UNL     1       0.809   1.749  23.760  0.00  0.00    -0.259 NA
ATOM     17  C   UNL     1      -0.361   0.174  25.112  0.00  0.00    +0.144 A 
ATOM     23  C   UNL     1       0.288   0.520  23.948  0.00  0.00    +0.143 A 
ATOM     25  C   UNL     1       0.007   2.272  25.943  0.00  0.00    +0.131 A 
ATOM     26  C   UNL     1       0.657   2.620  24.779  0.00  0.00    +0.130 A 
ENDBRANCH  15  17
BRANCH  10   5
ATOM      5  O   UNL     1      -5.307   0.742  24.466  0.00  0.00    -0.485 OA
BRANCH   5  16
ATOM     16  C   UNL     1      -4.531   1.864  24.565  0.00  0.00    +0.121 A 
ATOM     18  C   UNL     1      -3.557   2.126  23.601  0.00  0.00    +0.046 A 
ATOM     19  C   UNL     1      -4.713   2.745  25.631  0.00  0.00    +0.046 A 
ATOM     20  C   UNL     1      -2.947   4.151  24.769  0.00  0.00    +0.055 A 
ATOM     21  C   UNL     1      -2.765   3.270  23.703  0.00  0.00    +0.016 A 
ATOM     22  C   UNL     1      -3.919   3.888  25.733  0.00  0.00    +0.016 A 
BRANCH  20  24
ATOM      1  F   UNL     1      -2.405   6.335  23.958  0.00  0.00    -0.166 F 
ATOM      2  F   UNL     1      -0.766   5.132  24.713  0.00  0.00    -0.166 F 
ATOM      3  F   UNL     1      -2.213   5.983  26.095  0.00  0.00    -0.166 F 
ATOM     24  C   UNL     1      -2.100   5.373  24.879  0.00  0.00    +0.417 C 
ENDBRANCH  20  24
ENDBRANCH   5  16
ENDBRANCH  10   5
TORSDOF 4
ENDMDL
MODEL 2
REMARK VINA RESULT:      -3.7      3.969      6.706
REMARK  Name = 75367670
REMARK  4 active torsions:
REMARK  status: ('A' for Active; 'I' for Inactive)
REMARK    1  A    between atoms: O_5  and  C_10
REMARK    2  A    between atoms: O_5  and  C_16
REMARK    3  A    between atoms: C_15  and  C_17
REMARK    4  A    between atoms: C_20  and  C_24
REMARK                            x       y       z     vdW  Elec       q    Type
REMARK                         _______ _______ _______ _____ _____    ______ ____
ROOT
ATOM      4  O   UNL     1       0.732   3.311  23.916  0.00  0.00    -0.375 OA
ATOM      6  O   UNL     1      -3.729   5.154  24.044  0.00  0.00    -0.268 OA
ATOM      7  N   UNL     1      -2.105   3.861  25.132  0.00  0.00    -0.290 N 
ATOM     10  C   UNL     1      -0.314   2.168  25.801  0.00  0.00    +0.216 C 
ATOM     11  C   UNL     1      -1.767   2.647  25.884  0.00  0.00    +0.155 C 
ATOM     12  C   UNL     1      -1.024   4.784  24.779  0.00  0.00    +0.136 C 
ATOM     13  C   UNL     1       0.205   2.067  24.368  0.00  0.00    +0.206 C 
ATOM     14  C   UNL     1      -0.250   4.282  23.567  0.00  0.00    +0.179 C 
ATOM     15  C   UNL     1      -3.407   4.164  24.702  0.00  0.00    +0.267 C 
ENDROOT
BRANCH  15  17
ATOM      8  N   UNL     1      -4.700   2.202  24.220  0.00  0.00    -0.247 NA
ATOM      9  N   UNL     1      -6.255   2.585  26.522  0.00  0.00    -0.259 NA
ATOM     17  C   UNL     1      -4.493   3.237  25.057  0.00  0.00    +0.144 A 
ATOM     23  C   UNL     1      -5.256   3.426  26.188  0.00  0.00    +0.143 A 
ATOM     25  C   UNL     1      -5.699   1.361  24.554  0.00  0.00    +0.131 A 
ATOM     26  C   UNL     1      -6.463   1.549  25.685  0.00  0.00    +0.130 A 
ENDBRANCH  15  17
BRANCH  10   5
ATOM      5  O   UNL     1      -0.273   0.874  26.403  0.00  0.00    -0.485 OA
BRANCH   5  16
ATOM     16  C   UNL     1      -1.073  -0.085  25.844  0.00  0.00    +0.121 A 
ATOM     18  C   UNL     1      -0.514  -1.077  25.037  0.00  0.00    +0.046 A 
ATOM     19  C   UNL     1      -2.447  -0.071  26.082  0.00  0.00    +0.046 A 
ATOM     20  C   UNL     1      -2.705  -2.040  24.706  0.00  0.00    +0.055 A 
ATOM     21  C   UNL     1      -1.330  -2.054  24.468  0.00  0.00    +0.016 A 
ATOM     22  C   UNL     1      -3.263  -1.048  25.511  0.00  0.00    +0.016 A 
BRANCH  20  24
ATOM      1  F   UNL     1      -2.927  -3.888  23.204  0.00  0.00    -0.166 F 
ATOM      2  F   UNL     1      -4.641  -2.575  23.406  0.00  0.00    -0.166 F 
ATOM      3  F   UNL     1      -4.114  -3.928  25.025  0.00  0.00    -0.166 F 
ATOM     24  C   UNL     1      -3.578  -3.084  24.096  0.00  0.00    +0.417 C 
ENDBRANCH  20  24
ENDBRANCH   5  16
ENDBRANCH  10   5
TORSDOF 4
ENDMDL
MODEL 3
REMARK VINA RESULT:      -3.5      3.948      6.699
REMARK  Name = 75367670
REMARK  4 active torsions:
REMARK  status: ('A' for Active; 'I' for Inactive)
REMARK    1  A    between atoms: O_5  and  C_10
REMARK    2  A    between atoms: O_5  and  C_16
REMARK    3  A    between atoms: C_15  and  C_17
REMARK    4  A    between atoms: C_20  and  C_24
REMARK                            x       y       z     vdW  Elec       q    Type
REMARK                         _______ _______ _______ _____ _____    ______ ____
ROOT
ATOM      4  O   UNL     1       0.723   3.352  23.935  0.00  0.00    -0.375 OA
ATOM      6  O   UNL     1      -3.769   5.118  24.072  0.00  0.00    -0.268 OA
ATOM      7  N   UNL     1      -2.127   3.837  25.147  0.00  0.00    -0.290 N 
ATOM     10  C   UNL     1      -0.311   2.165  25.799  0.00  0.00    +0.216 C 
ATOM     11  C   UNL     1      -1.772   2.618  25.884  0.00  0.00    +0.155 C 
ATOM     12  C   UNL     1      -1.061   4.782  24.812  0.00  0.00    +0.136 C 
ATOM     13  C   UNL     1       0.215   2.093  24.367  0.00  0.00    +0.206 C 
ATOM     14  C   UNL     1      -0.274   4.311  23.596  0.00  0.00    +0.179 C 
ATOM     15  C   UNL     1      -3.433   4.125  24.717  0.00  0.00    +0.267 C 
ENDROOT
BRANCH  15  17
ATOM      8  N   UNL     1      -5.213   3.437  26.171  0.00  0.00    -0.247 NA
ATOM      9  N   UNL     1      -5.741   1.197  24.568  0.00  0.00    -0.259 NA
ATOM     17  C   UNL     1      -4.505   3.175  25.055  0.00  0.00    +0.144 A 
ATOM     23  C   UNL     1      -4.764   2.075  24.267  0.00  0.00    +0.143 A 
ATOM     25  C   UNL     1      -6.190   2.559  26.471  0.00  0.00    +0.131 A 
ATOM     26  C   UNL     1      -6.450   1.458  25.684  0.00  0.00    +0.130 A 
ENDBRANCH  15  17
BRANCH  10   5
ATOM      5  O   UNL     1      -0.251   0.863  26.383  0.00  0.00    -0.485 OA
BRANCH   5  16
ATOM     16  C   UNL     1      -1.058  -0.093  25.829  0.00  0.00    +0.121 A 
ATOM     18  C   UNL     1      -2.426  -0.096  26.103  0.00  0.00    +0.046 A 
ATOM     19  C   UNL     1      -0.512  -1.064  24.990  0.00  0.00    +0.046 A 
ATOM     20  C   UNL     1      -2.702  -2.042  24.699  0.00  0.00    +0.055 A 
ATOM     21  C   UNL     1      -3.248  -1.070  25.538  0.00  0.00    +0.016 A 
ATOM     22  C   UNL     1      -1.335  -2.039  24.426  0.00  0.00    +0.016 A 
BRANCH  20  24
ATOM      1  F   UNL     1      -4.124  -3.939  25.012  0.00  0.00    -0.166 F 
ATOM      2  F   UNL     1      -2.940  -3.887  23.195  0.00  0.00    -0.166 F 
ATOM      3  F   UNL     1      -4.640  -2.551  23.419  0.00  0.00    -0.166 F 
ATOM     24  C   UNL     1      -3.581  -3.084  24.095  0.00  0.00    +0.417 C 
ENDBRANCH  20  24
ENDBRANCH   5  16
ENDBRANCH  10   5
TORSDOF 4
ENDMDL
MODEL 4
REMARK VINA RESULT:      -3.5      3.634      5.632
REMARK  Name = 75367670
REMARK  4 active torsions:
REMARK  status: ('A' for Active; 'I' for Inactive)
REMARK    1  A    between atoms: O_5  and  C_10
REMARK    2  A    between atoms: O_5  and  C_16
REMARK    3  A    between atoms: C_15  and  C_17
REMARK    4  A    between atoms: C_20  and  C_24
REMARK                            x       y       z     vdW  Elec       q    Type
REMARK                         _______ _______ _______ _____ _____    ______ ____
ROOT
ATOM      4  O   UNL     1      -3.937   4.897  26.425  0.00  0.00    -0.375 OA
ATOM      6  O   UNL     1       0.622   3.621  25.475  0.00  0.00    -0.268 OA
ATOM      7  N   UNL     1      -1.620   3.551  24.797  0.00  0.00    -0.290 N 
ATOM     10  C   UNL     1      -4.152   3.284  24.608  0.00  0.00    +0.216 C 
ATOM     11  C   UNL     1      -2.748   2.769  24.275  0.00  0.00    +0.155 C 
ATOM     12  C   UNL     1      -1.849   4.955  25.146  0.00  0.00    +0.136 C 
ATOM     13  C   UNL     1      -4.350   3.575  26.094  0.00  0.00    +0.206 C 
ATOM     14  C   UNL     1      -2.526   5.077  26.505  0.00  0.00    +0.179 C 
ATOM     15  C   UNL     1      -0.342   3.010  25.012  0.00  0.00    +0.267 C 
ENDROOT
BRANCH  15  17
ATOM      8  N   UNL     1       0.669   1.366  23.587  0.00  0.00    -0.247 NA
ATOM      9  N   UNL     1      -0.469  -0.718  25.080  0.00  0.00    -0.259 NA
ATOM     17  C   UNL     1      -0.112   1.600  24.661  0.00  0.00    +0.144 A 
ATOM     23  C   UNL     1      -0.670   0.578  25.394  0.00  0.00    +0.143 A 
ATOM     25  C   UNL     1       0.870   0.071  23.273  0.00  0.00    +0.131 A 
ATOM     26  C   UNL     1       0.311  -0.953  24.007  0.00  0.00    +0.130 A 
ENDBRANCH  15  17
BRANCH  10   5
ATOM      5  O   UNL     1      -5.068   2.263  24.208  0.00  0.00    -0.485 OA
BRANCH   5  16
ATOM     16  C   UNL     1      -4.635   0.971  24.333  0.00  0.00    +0.121 A 
ATOM     18  C   UNL     1      -4.235   0.257  23.203  0.00  0.00    +0.046 A 
ATOM     19  C   UNL     1      -4.593   0.368  25.590  0.00  0.00    +0.046 A 
ATOM     20  C   UNL     1      -3.753  -1.663  24.587  0.00  0.00    +0.055 A 
ATOM     21  C   UNL     1      -3.794  -1.060  23.329  0.00  0.00    +0.016 A 
ATOM     22  C   UNL     1      -4.153  -0.950  25.716  0.00  0.00    +0.016 A 
BRANCH  20  24
ATOM      1  F   UNL     1      -3.367  -3.556  25.997  0.00  0.00    -0.166 F 
ATOM      2  F   UNL     1      -1.976  -3.250  24.361  0.00  0.00    -0.166 F 
ATOM      3  F   UNL     1      -3.997  -3.941  23.952  0.00  0.00    -0.166 F 
ATOM     24  C   UNL     1      -3.282  -3.071  24.723  0.00  0.00    +0.417 C 
ENDBRANCH  20  24
ENDBRANCH   5  16
ENDBRANCH  10   5
TORSDOF 4
ENDMDL
MODEL 5
REMARK VINA RESULT:      -3.4      1.792      3.720
REMARK  Name = 75367670
REMARK  4 active torsions:
REMARK  status: ('A' for Active; 'I' for Inactive)
REMARK    1  A    between atoms: O_5  and  C_10
REMARK    2  A    between atoms: O_5  and  C_16
REMARK    3  A    between atoms: C_15  and  C_17
REMARK    4  A    between atoms: C_20  and  C_24
REMARK                            x       y       z     vdW  Elec       q    Type
REMARK                         _______ _______ _______ _____ _____    ______ ____
ROOT
ATOM      4  O   UNL     1      -1.855  -3.136  25.168  0.00  0.00    -0.375 OA
ATOM      6  O   UNL     1      -5.914  -0.657  24.340  0.00  0.00    -0.268 OA
ATOM      7  N   UNL     1      -3.590  -0.771  24.061  0.00  0.00    -0.290 N 
ATOM     10  C   UNL     1      -1.061  -0.983  24.340  0.00  0.00    +0.216 C 
ATOM     11  C   UNL     1      -2.288  -0.096  24.105  0.00  0.00    +0.155 C 
ATOM     12  C   UNL     1      -3.621  -2.202  23.752  0.00  0.00    +0.136 C 
ATOM     13  C   UNL     1      -1.216  -1.919  25.538  0.00  0.00    +0.206 C 
ATOM     14  C   UNL     1      -3.263  -3.035  24.976  0.00  0.00    +0.179 C 
ATOM     15  C   UNL     1      -4.805  -0.122  24.336  0.00  0.00    +0.267 C 
ENDROOT
BRANCH  15  17
ATOM      8  N   UNL     1      -5.469   1.714  25.730  0.00  0.00    -0.247 NA
ATOM      9  N   UNL     1      -4.036   3.523  24.136  0.00  0.00    -0.259 NA
ATOM     17  C   UNL     1      -4.774   1.316  24.646  0.00  0.00    +0.144 A 
ATOM     23  C   UNL     1      -4.070   2.203  23.863  0.00  0.00    +0.143 A 
ATOM     25  C   UNL     1      -5.435   3.034  26.002  0.00  0.00    +0.131 A 
ATOM     26  C   UNL     1      -4.731   3.923  25.219  0.00  0.00    +0.130 A 
ENDBRANCH  15  17
BRANCH  10   5
ATOM      5  O   UNL     1       0.041  -0.105  24.575  0.00  0.00    -0.485 OA
BRANCH   5  16
ATOM     16  C   UNL     1      -0.249   1.229  24.666  0.00  0.00    +0.121 A 
ATOM     18  C   UNL     1      -0.136   2.046  23.541  0.00  0.00    +0.046 A 
ATOM     19  C   UNL     1      -0.658   1.771  25.885  0.00  0.00    +0.046 A 
ATOM     20  C   UNL     1      -0.840   3.948  24.854  0.00  0.00    +0.055 A 
ATOM     21  C   UNL     1      -0.431   3.406  23.635  0.00  0.00    +0.016 A 
ATOM     22  C   UNL     1      -0.953   3.131  25.978  0.00  0.00    +0.016 A 
BRANCH  20  24
ATOM      1  F   UNL     1      -1.810   5.897  23.862  0.00  0.00    -0.166 F 
ATOM      2  F   UNL     1      -0.052   6.193  25.097  0.00  0.00    -0.166 F 
ATOM      3  F   UNL     1      -1.955   5.694  26.022  0.00  0.00    -0.166 F 
ATOM     24  C   UNL     1      -1.156   5.402  24.954  0.00  0.00    +0.417 C 
ENDBRANCH  20  24
ENDBRANCH   5  16
ENDBRANCH  10   5
TORSDOF 4
ENDMDL
MODEL 6
REMARK VINA RESULT:      -1.7      2.639      4.639
REMARK  Name = 75367670
REMARK  4 active torsions:
REMARK  status: ('A' for Active; 'I' for Inactive)
REMARK    1  A    between atoms: O_5  and  C_10
REMARK    2  A    between atoms: O_5  and  C_16
REMARK    3  A    between atoms: C_15  and  C_17
REMARK    4  A    between atoms: C_20  and  C_24
REMARK                            x       y       z     vdW  Elec       q    Type
REMARK                         _______ _______ _______ _____ _____    ______ ____
ROOT
ATOM      4  O   UNL     1       2.485   1.253  23.427  0.00  0.00    -0.375 OA
ATOM      6  O   UNL     1      -0.610  -2.452  23.491  0.00  0.00    -0.268 OA
ATOM      7  N   UNL     1      -0.316  -0.140  23.239  0.00  0.00    -0.290 N 
ATOM     10  C   UNL     1       0.296   2.327  23.473  0.00  0.00    +0.216 C 
ATOM     11  C   UNL     1      -0.761   1.222  23.558  0.00  0.00    +0.155 C 
ATOM     12  C   UNL     1       0.887  -0.305  22.421  0.00  0.00    +0.136 C 
ATOM     13  C   UNL     1       1.577   1.994  24.235  0.00  0.00    +0.206 C 
ATOM     14  C   UNL     1       2.147  -0.120  23.257  0.00  0.00    +0.179 C 
ATOM     15  C   UNL     1      -0.966  -1.293  23.709  0.00  0.00    +0.267 C 
ENDROOT
BRANCH  15  17
ATOM      8  N   UNL     1      -3.305  -0.786  23.878  0.00  0.00    -0.247 NA
ATOM      9  N   UNL     1      -3.248  -1.160  26.658  0.00  0.00    -0.259 NA
ATOM     17  C   UNL     1      -2.176  -1.128  24.530  0.00  0.00    +0.144 A 
ATOM     23  C   UNL     1      -2.147  -1.312  25.894  0.00  0.00    +0.143 A 
ATOM     25  C   UNL     1      -4.406  -0.634  24.642  0.00  0.00    +0.131 A 
ATOM     26  C   UNL     1      -4.378  -0.818  26.007  0.00  0.00    +0.130 A 
ENDBRANCH  15  17
BRANCH  10   5
ATOM      5  O   UNL     1      -0.291   3.500  24.040  0.00  0.00    -0.485 OA
BRANCH   5  16
ATOM     16  C   UNL     1      -1.602   3.404  24.421  0.00  0.00    +0.121 A 
ATOM     18  C   UNL     1      -2.555   2.918  23.526  0.00  0.00    +0.046 A 
ATOM     19  C   UNL     1      -1.984   3.792  25.705  0.00  0.00    +0.046 A 
ATOM     20  C   UNL     1      -4.273   3.209  25.198  0.00  0.00    +0.055 A 
ATOM     21  C   UNL     1      -3.891   2.821  23.914  0.00  0.00    +0.016 A 
ATOM     22  C   UNL     1      -3.321   3.696  26.092  0.00  0.00    +0.016 A 
BRANCH  20  24
ATOM      1  F   UNL     1      -5.871   2.575  26.861  0.00  0.00    -0.166 F 
ATOM      2  F   UNL     1      -6.457   2.323  24.788  0.00  0.00    -0.166 F 
ATOM      3  F   UNL     1      -6.329   4.318  25.644  0.00  0.00    -0.166 F 
ATOM     24  C   UNL     1      -5.702   3.106  25.614  0.00  0.00    +0.417 C 
ENDBRANCH  20  24
ENDBRANCH   5  16
ENDBRANCH  10   5
TORSDOF 4
ENDMDL
MODEL 7
REMARK VINA RESULT:      -1.6     14.309     16.344
REMARK  Name = 75367670
REMARK  4 active torsions:
REMARK  status: ('A' for Active; 'I' for Inactive)
REMARK    1  A    between atoms: O_5  and  C_10
REMARK    2  A    between atoms: O_5  and  C_16
REMARK    3  A    between atoms: C_15  and  C_17
REMARK    4  A    between atoms: C_20  and  C_24
REMARK                            x       y       z     vdW  Elec       q    Type
REMARK                         _______ _______ _______ _____ _____    ______ ____
ROOT
ATOM      4  O   UNL     1      -3.649  -9.713  15.784  0.00  0.00    -0.375 OA
ATOM      6  O   UNL     1      -6.103  -9.803  19.941  0.00  0.00    -0.268 OA
ATOM      7  N   UNL     1      -5.974 -10.536  17.719  0.00  0.00    -0.290 N 
ATOM     10  C   UNL     1      -5.769 -10.759  15.184  0.00  0.00    +0.216 C 
ATOM     11  C   UNL     1      -6.649 -10.776  16.438  0.00  0.00    +0.155 C 
ATOM     12  C   UNL     1      -4.533 -10.781  17.802  0.00  0.00    +0.136 C 
ATOM     13  C   UNL     1      -4.878  -9.522  15.091  0.00  0.00    +0.206 C 
ATOM     14  C   UNL     1      -3.745  -9.623  17.202  0.00  0.00    +0.179 C 
ATOM     15  C   UNL     1      -6.635 -10.047  18.858  0.00  0.00    +0.267 C 
ENDROOT
BRANCH  15  17
ATOM      8  N   UNL     1      -8.866 -10.521  19.603  0.00  0.00    -0.247 NA
ATOM      9  N   UNL     1      -9.930  -8.652  17.803  0.00  0.00    -0.259 NA
ATOM     17  C   UNL     1      -8.083  -9.801  18.774  0.00  0.00    +0.144 A 
ATOM     23  C   UNL     1      -8.605  -8.883  17.891  0.00  0.00    +0.143 A 
ATOM     25  C   UNL     1     -10.191 -10.289  19.515  0.00  0.00    +0.131 A 
ATOM     26  C   UNL     1     -10.714  -9.371  18.631  0.00  0.00    +0.130 A 
ENDBRANCH  15  17
BRANCH  10   5
ATOM      5  O   UNL     1      -6.654 -10.780  14.062  0.00  0.00    -0.485 OA
BRANCH   5  16
ATOM     16  C   UNL     1      -6.179 -10.238  12.899  0.00  0.00    +0.121 A 
ATOM     18  C   UNL     1      -6.898  -9.231  12.255  0.00  0.00    +0.046 A 
ATOM     19  C   UNL     1      -4.976 -10.691  12.359  0.00  0.00    +0.046 A 
ATOM     20  C   UNL     1      -5.211  -9.132  10.529  0.00  0.00    +0.055 A 
ATOM     21  C   UNL     1      -6.414  -8.678  11.069  0.00  0.00    +0.016 A 
ATOM     22  C   UNL     1      -4.493 -10.139  11.173  0.00  0.00    +0.016 A 
BRANCH  20  24
ATOM      1  F   UNL     1      -5.040  -7.232   9.086  0.00  0.00    -0.166 F 
ATOM      2  F   UNL     1      -5.137  -9.181   8.138  0.00  0.00    -0.166 F 
ATOM      3  F   UNL     1      -3.331  -8.573   9.184  0.00  0.00    -0.166 F 
ATOM     24  C   UNL     1      -4.694  -8.542   9.261  0.00  0.00    +0.417 C 
ENDBRANCH  20  24
ENDBRANCH   5  16
ENDBRANCH  10   5
TORSDOF 4
ENDMDL
MODEL 8
REMARK VINA RESULT:      -1.5      3.383      5.932
REMARK  Name = 75367670
REMARK  4 active torsions:
REMARK  status: ('A' for Active; 'I' for Inactive)
REMARK    1  A    between atoms: O_5  and  C_10
REMARK    2  A    between atoms: O_5  and  C_16
REMARK    3  A    between atoms: C_15  and  C_17
REMARK    4  A    between atoms: C_20  and  C_24
REMARK                            x       y       z     vdW  Elec       q    Type
REMARK                         _______ _______ _______ _____ _____    ______ ____
ROOT
ATOM      4  O   UNL     1      -3.258   4.870  24.485  0.00  0.00    -0.375 OA
ATOM      6  O   UNL     1      -6.222   1.061  24.367  0.00  0.00    -0.268 OA
ATOM      7  N   UNL     1      -4.365   2.075  25.374  0.00  0.00    -0.290 N 
ATOM     10  C   UNL     1      -2.153   3.231  25.913  0.00  0.00    +0.216 C 
ATOM     11  C   UNL     1      -2.996   1.952  25.889  0.00  0.00    +0.155 C 
ATOM     12  C   UNL     1      -4.995   3.396  25.384  0.00  0.00    +0.136 C 
ATOM     13  C   UNL     1      -2.153   3.977  24.580  0.00  0.00    +0.206 C 
ATOM     14  C   UNL     1      -4.508   4.244  24.215  0.00  0.00    +0.179 C 
ATOM     15  C   UNL     1      -5.086   0.996  24.838  0.00  0.00    +0.267 C 
ENDROOT
BRANCH  15  17
ATOM      8  N   UNL     1      -3.786  -0.690  25.944  0.00  0.00    -0.247 NA
ATOM      9  N   UNL     1      -3.960  -2.378  23.711  0.00  0.00    -0.259 NA
ATOM     17  C   UNL     1      -4.453  -0.332  24.828  0.00  0.00    +0.144 A 
ATOM     23  C   UNL     1      -4.539  -1.161  23.732  0.00  0.00    +0.143 A 
ATOM     25  C   UNL     1      -3.208  -1.907  25.923  0.00  0.00    +0.131 A 
ATOM     26  C   UNL     1      -3.293  -2.737  24.826  0.00  0.00    +0.130 A 
ENDBRANCH  15  17
BRANCH  10   5
ATOM      5  O   UNL     1      -0.816   2.835  26.224  0.00  0.00    -0.485 OA
BRANCH   5  16
ATOM     16  C   UNL     1      -0.163   2.093  25.279  0.00  0.00    +0.121 A 
ATOM     18  C   UNL     1      -0.493   0.751  25.094  0.00  0.00    +0.046 A 
ATOM     19  C   UNL     1       0.834   2.680  24.499  0.00  0.00    +0.046 A 
ATOM     20  C   UNL     1       1.170   0.582  23.350  0.00  0.00    +0.055 A 
ATOM     21  C   UNL     1       0.172  -0.006  24.130  0.00  0.00    +0.016 A 
ATOM     22  C   UNL     1       1.501   1.923  23.536  0.00  0.00    +0.016 A 
BRANCH  20  24
ATOM      1  F   UNL     1       2.812   0.484  21.614  0.00  0.00    -0.166 F 
ATOM      2  F   UNL     1       1.054  -0.766  21.377  0.00  0.00    -0.166 F 
ATOM      3  F   UNL     1       2.561  -1.283  22.857  0.00  0.00    -0.166 F 
ATOM     24  C   UNL     1       1.883  -0.227  22.320  0.00  0.00    +0.417 C 
ENDBRANCH  20  24
ENDBRANCH   5  16
ENDBRANCH  10   5
TORSDOF 4
ENDMDL
