MODEL 1
REMARK VINA RESULT:       5.6      0.000      0.000
REMARK  Name = 51136639
REMARK  13 active torsions:
REMARK  status: ('A' for Active; 'I' for Inactive)
REMARK    1  A    between atoms: S_1  and  N_9
REMARK    2  A    between atoms: S_1  and  C_21
REMARK    3  A    between atoms: O_4  and  C_19
REMARK    4  A    between atoms: O_6  and  C_29
REMARK    5  A    between atoms: O_6  and  C_34
REMARK    6  A    between atoms: O_7  and  C_30
REMARK    7  A    between atoms: O_7  and  C_35
REMARK    8  A    between atoms: O_8  and  C_33
REMARK    9  A    between atoms: O_8  and  C_36
REMARK   10  A    between atoms: C_11  and  C_16
REMARK   11  A    between atoms: C_12  and  C_17
REMARK   12  A    between atoms: C_16  and  C_18
REMARK   13  A    between atoms: C_17  and  C_19
REMARK                            x       y       z     vdW  Elec       q    Type
REMARK                         _______ _______ _______ _____ _____    ______ ____
ROOT
ATOM      9  N   UNL     1      -5.143   0.610  24.941  0.00  0.00    -0.176 NA
ATOM     11  C   UNL     1      -3.188  -0.904  25.187  0.00  0.00    +0.014 C 
ATOM     12  C   UNL     1      -4.054  -2.073  24.660  0.00  0.00    +0.006 C 
ATOM     13  C   UNL     1      -4.081   0.138  25.878  0.00  0.00    +0.113 C 
ATOM     14  C   UNL     1      -5.206  -1.566  23.778  0.00  0.00    +0.021 C 
ATOM     15  C   UNL     1      -6.031  -0.502  24.495  0.00  0.00    +0.110 C 
ENDROOT
BRANCH   9   1
ATOM      1  S   UNL     1      -5.949   2.048  25.410  0.00  0.00    +0.061 S 
ATOM      2  O   UNL     1      -6.358   1.929  26.793  0.00  0.00    -0.153 OA
ATOM      3  O   UNL     1      -6.897   2.410  24.380  0.00  0.00    -0.153 OA
BRANCH   1  21
ATOM     21  C   UNL     1      -4.606   3.190  25.339  0.00  0.00    +0.106 A 
ATOM     26  C   UNL     1      -3.978   3.453  24.122  0.00  0.00    +0.032 A 
ATOM     27  C   UNL     1      -4.170   3.828  26.501  0.00  0.00    +0.032 A 
ATOM     31  C   UNL     1      -2.914   4.354  24.066  0.00  0.00    +0.047 A 
ATOM     32  C   UNL     1      -3.106   4.729  26.445  0.00  0.00    +0.047 A 
ATOM     33  C   UNL     1      -2.478   4.991  25.227  0.00  0.00    +0.120 A 
BRANCH  33   8
ATOM      8  O   UNL     1      -1.440   5.870  25.173  0.00  0.00    -0.495 OA
ATOM     36  C   UNL     1      -0.314   5.496  24.380  0.00  0.00    +0.277 C 
ENDBRANCH  33   8
ENDBRANCH   1  21
ENDBRANCH   9   1
BRANCH  11  16
ATOM     16  C   UNL     1      -2.316  -0.238  24.114  0.00  0.00    +0.060 C 
BRANCH  16  18
ATOM     10  N   UNL     1      -1.572   1.230  25.863  0.00  0.00    -0.287 NA
ATOM     18  C   UNL     1      -1.258   0.617  24.770  0.00  0.00    +0.044 C 
ATOM     20  C   UNL     1       0.078   0.718  24.129  0.00  0.00    +0.003 A 
ATOM     22  C   UNL     1       0.888   1.789  24.525  0.00  0.00    -0.033 A 
ATOM     23  C   UNL     1       0.358   2.757  25.541  0.00  0.00    +0.059 C 
ATOM     24  C   UNL     1      -0.526   2.012  26.532  0.00  0.00    +0.146 C 
ATOM     25  C   UNL     1       0.524  -0.190  23.166  0.00  0.00    +0.059 A 
ATOM     28  C   UNL     1       2.141   1.964  23.931  0.00  0.00    +0.053 A 
ATOM     29  C   UNL     1       1.783  -0.016  22.590  0.00  0.00    +0.162 A 
ATOM     30  C   UNL     1       2.589   1.058  22.968  0.00  0.00    +0.162 A 
BRANCH  29   6
ATOM      6  O   UNL     1       2.216  -0.906  21.652  0.00  0.00    -0.491 OA
ATOM     34  C   UNL     1       1.245  -1.398  20.732  0.00  0.00    +0.277 C 
ENDBRANCH  29   6
BRANCH  30   7
ATOM      7  O   UNL     1       3.815   1.236  22.403  0.00  0.00    -0.491 OA
ATOM     35  C   UNL     1       4.923   0.609  23.048  0.00  0.00    +0.277 C 
ENDBRANCH  30   7
ENDBRANCH  16  18
ENDBRANCH  11  16
BRANCH  12  17
ATOM     17  C   UNL     1      -3.242  -3.139  23.925  0.00  0.00    +0.124 C 
BRANCH  17  19
ATOM      5  O   UNL     1      -1.314  -2.904  25.400  0.00  0.00    -0.251 OA
ATOM     19  C   UNL     1      -1.783  -3.070  24.283  0.00  0.00    +0.305 C 
BRANCH  19   4
ATOM      4  O   UNL     1      -1.029  -3.223  23.164  0.00  0.00    -0.481 OA
ATOM     37  H   UNL     1      -1.581  -3.372  22.368  0.00  0.00    +0.295 HD
ENDBRANCH  19   4
ENDBRANCH  17  19
ENDBRANCH  12  17
TORSDOF 10
ENDMDL
MODEL 2
REMARK VINA RESULT:       6.3      2.097      6.089
REMARK  Name = 51136639
REMARK  13 active torsions:
REMARK  status: ('A' for Active; 'I' for Inactive)
REMARK    1  A    between atoms: S_1  and  N_9
REMARK    2  A    between atoms: S_1  and  C_21
REMARK    3  A    between atoms: O_4  and  C_19
REMARK    4  A    between atoms: O_6  and  C_29
REMARK    5  A    between atoms: O_6  and  C_34
REMARK    6  A    between atoms: O_7  and  C_30
REMARK    7  A    between atoms: O_7  and  C_35
REMARK    8  A    between atoms: O_8  and  C_33
REMARK    9  A    between atoms: O_8  and  C_36
REMARK   10  A    between atoms: C_11  and  C_16
REMARK   11  A    between atoms: C_12  and  C_17
REMARK   12  A    between atoms: C_16  and  C_18
REMARK   13  A    between atoms: C_17  and  C_19
REMARK                            x       y       z     vdW  Elec       q    Type
REMARK                         _______ _______ _______ _____ _____    ______ ____
ROOT
ATOM      9  N   UNL     1      -0.756  -1.713  23.643  0.00  0.00    -0.176 NA
ATOM     11  C   UNL     1       0.984   0.050  23.848  0.00  0.00    +0.014 C 
ATOM     12  C   UNL     1       1.774  -0.627  22.703  0.00  0.00    +0.006 C 
ATOM     13  C   UNL     1       0.145  -0.999  24.595  0.00  0.00    +0.113 C 
ATOM     14  C   UNL     1       0.849  -1.443  21.787  0.00  0.00    +0.021 C 
ATOM     15  C   UNL     1       0.008  -2.434  22.584  0.00  0.00    +0.110 C 
ENDROOT
BRANCH   9   1
ATOM      1  S   UNL     1      -2.029  -2.604  24.365  0.00  0.00    +0.061 S 
ATOM      2  O   UNL     1      -1.592  -3.085  25.658  0.00  0.00    -0.153 OA
ATOM      3  O   UNL     1      -2.584  -3.507  23.381  0.00  0.00    -0.153 OA
BRANCH   1  21
ATOM     21  C   UNL     1      -3.196  -1.309  24.635  0.00  0.00    +0.106 A 
ATOM     26  C   UNL     1      -3.537  -0.937  25.934  0.00  0.00    +0.032 A 
ATOM     27  C   UNL     1      -3.780  -0.659  23.548  0.00  0.00    +0.032 A 
ATOM     31  C   UNL     1      -4.462   0.085  26.148  0.00  0.00    +0.047 A 
ATOM     32  C   UNL     1      -4.706   0.363  23.761  0.00  0.00    +0.047 A 
ATOM     33  C   UNL     1      -5.047   0.735  25.061  0.00  0.00    +0.120 A 
BRANCH  33   8
ATOM      8  O   UNL     1      -5.950   1.732  25.270  0.00  0.00    -0.495 OA
ATOM     36  C   UNL     1      -6.506   1.840  26.579  0.00  0.00    +0.277 C 
ENDBRANCH  33   8
ENDBRANCH   1  21
ENDBRANCH   9   1
BRANCH  11  16
ATOM     16  C   UNL     1       0.101   1.220  23.392  0.00  0.00    +0.060 C 
BRANCH  16  18
ATOM     10  N   UNL     1       0.561   2.136  25.564  0.00  0.00    -0.287 NA
ATOM     18  C   UNL     1      -0.275   2.072  24.581  0.00  0.00    +0.044 C 
ATOM     20  C   UNL     1      -1.580   2.782  24.567  0.00  0.00    +0.003 A 
ATOM     22  C   UNL     1      -2.065   3.231  25.801  0.00  0.00    -0.033 A 
ATOM     23  C   UNL     1      -1.260   2.958  27.036  0.00  0.00    +0.059 C 
ATOM     24  C   UNL     1       0.223   3.012  26.692  0.00  0.00    +0.146 C 
ATOM     25  C   UNL     1      -2.312   2.992  23.398  0.00  0.00    +0.059 A 
ATOM     28  C   UNL     1      -3.306   3.872  25.863  0.00  0.00    +0.053 A 
ATOM     29  C   UNL     1      -3.544   3.647  23.467  0.00  0.00    +0.162 A 
ATOM     30  C   UNL     1      -4.041   4.083  24.695  0.00  0.00    +0.162 A 
BRANCH  29   6
ATOM      6  O   UNL     1      -4.255   3.853  22.323  0.00  0.00    -0.491 OA
ATOM     34  C   UNL     1      -3.795   3.188  21.148  0.00  0.00    +0.277 C 
ENDBRANCH  29   6
BRANCH  30   7
ATOM      7  O   UNL     1      -5.244   4.715  24.768  0.00  0.00    -0.491 OA
ATOM     35  C   UNL     1      -5.764   4.972  26.072  0.00  0.00    +0.277 C 
ENDBRANCH  30   7
ENDBRANCH  16  18
ENDBRANCH  11  16
BRANCH  12  17
ATOM     17  C   UNL     1       2.610   0.358  21.885  0.00  0.00    +0.124 C 
BRANCH  17  19
ATOM      5  O   UNL     1       4.710   0.064  23.090  0.00  0.00    -0.251 OA
ATOM     19  C   UNL     1       3.842   0.792  22.630  0.00  0.00    +0.305 C 
BRANCH  19   4
ATOM      4  O   UNL     1       3.865   2.147  22.727  0.00  0.00    -0.481 OA
ATOM     37  H   UNL     1       3.139   2.563  22.216  0.00  0.00    +0.295 HD
ENDBRANCH  19   4
ENDBRANCH  17  19
ENDBRANCH  12  17
TORSDOF 10
ENDMDL
MODEL 3
REMARK VINA RESULT:       7.9      2.043      6.111
REMARK  Name = 51136639
REMARK  13 active torsions:
REMARK  status: ('A' for Active; 'I' for Inactive)
REMARK    1  A    between atoms: S_1  and  N_9
REMARK    2  A    between atoms: S_1  and  C_21
REMARK    3  A    between atoms: O_4  and  C_19
REMARK    4  A    between atoms: O_6  and  C_29
REMARK    5  A    between atoms: O_6  and  C_34
REMARK    6  A    between atoms: O_7  and  C_30
REMARK    7  A    between atoms: O_7  and  C_35
REMARK    8  A    between atoms: O_8  and  C_33
REMARK    9  A    between atoms: O_8  and  C_36
REMARK   10  A    between atoms: C_11  and  C_16
REMARK   11  A    between atoms: C_12  and  C_17
REMARK   12  A    between atoms: C_16  and  C_18
REMARK   13  A    between atoms: C_17  and  C_19
REMARK                            x       y       z     vdW  Elec       q    Type
REMARK                         _______ _______ _______ _____ _____    ______ ____
ROOT
ATOM      9  N   UNL     1      -0.477  -1.208  24.038  0.00  0.00    -0.176 NA
ATOM     11  C   UNL     1       0.355   1.128  23.865  0.00  0.00    +0.014 C 
ATOM     12  C   UNL     1       1.797   0.582  23.734  0.00  0.00    +0.006 C 
ATOM     13  C   UNL     1      -0.506   0.142  24.672  0.00  0.00    +0.113 C 
ATOM     14  C   UNL     1       1.808  -0.849  23.175  0.00  0.00    +0.021 C 
ATOM     15  C   UNL     1       0.903  -1.772  23.984  0.00  0.00    +0.110 C 
ENDROOT
BRANCH   9   1
ATOM      1  S   UNL     1      -1.692  -2.294  24.567  0.00  0.00    +0.061 S 
ATOM      2  O   UNL     1      -1.347  -2.783  25.884  0.00  0.00    -0.153 OA
ATOM      3  O   UNL     1      -2.004  -3.208  23.489  0.00  0.00    -0.153 OA
BRANCH   1  21
ATOM     21  C   UNL     1      -3.047  -1.177  24.742  0.00  0.00    +0.106 A 
ATOM     26  C   UNL     1      -3.960  -1.020  23.700  0.00  0.00    +0.032 A 
ATOM     27  C   UNL     1      -3.203  -0.449  25.921  0.00  0.00    +0.032 A 
ATOM     31  C   UNL     1      -5.030  -0.135  23.836  0.00  0.00    +0.047 A 
ATOM     32  C   UNL     1      -4.272   0.437  26.058  0.00  0.00    +0.047 A 
ATOM     33  C   UNL     1      -5.185   0.594  25.015  0.00  0.00    +0.120 A 
BRANCH  33   8
ATOM      8  O   UNL     1      -6.229   1.458  25.149  0.00  0.00    -0.495 OA
ATOM     36  C   UNL     1      -6.147   2.416  26.203  0.00  0.00    +0.277 C 
ENDBRANCH  33   8
ENDBRANCH   1  21
ENDBRANCH   9   1
BRANCH  11  16
ATOM     16  C   UNL     1      -0.315   1.452  22.523  0.00  0.00    +0.060 C 
BRANCH  16  18
ATOM     10  N   UNL     1      -2.567   1.896  21.814  0.00  0.00    -0.287 NA
ATOM     18  C   UNL     1      -1.697   2.013  22.762  0.00  0.00    +0.044 C 
ATOM     20  C   UNL     1      -1.983   2.676  24.060  0.00  0.00    +0.003 A 
ATOM     22  C   UNL     1      -3.108   3.510  24.107  0.00  0.00    -0.033 A 
ATOM     23  C   UNL     1      -3.926   3.688  22.863  0.00  0.00    +0.059 C 
ATOM     24  C   UNL     1      -3.926   2.388  22.070  0.00  0.00    +0.146 C 
ATOM     25  C   UNL     1      -1.180   2.505  25.189  0.00  0.00    +0.059 A 
ATOM     28  C   UNL     1      -3.410   4.194  25.288  0.00  0.00    +0.053 A 
ATOM     29  C   UNL     1      -1.499   3.181  26.368  0.00  0.00    +0.162 A 
ATOM     30  C   UNL     1      -2.609   4.025  26.417  0.00  0.00    +0.162 A 
BRANCH  29   6
ATOM      6  O   UNL     1      -0.714   3.009  27.469  0.00  0.00    -0.491 OA
ATOM     34  C   UNL     1       0.626   2.575  27.245  0.00  0.00    +0.277 C 
ENDBRANCH  29   6
BRANCH  30   7
ATOM      7  O   UNL     1      -2.920   4.692  27.563  0.00  0.00    -0.491 OA
ATOM     35  C   UNL     1      -3.620   3.962  28.569  0.00  0.00    +0.277 C 
ENDBRANCH  30   7
ENDBRANCH  16  18
ENDBRANCH  11  16
BRANCH  12  17
ATOM     17  C   UNL     1       2.711   1.490  22.911  0.00  0.00    +0.124 C 
BRANCH  17  19
ATOM      5  O   UNL     1       4.946   0.829  23.629  0.00  0.00    -0.251 OA
ATOM     19  C   UNL     1       4.087   0.903  22.762  0.00  0.00    +0.305 C 
BRANCH  19   4
ATOM      4  O   UNL     1       4.255   0.448  21.493  0.00  0.00    -0.481 OA
ATOM     37  H   UNL     1       3.399   0.331  21.030  0.00  0.00    +0.295 HD
ENDBRANCH  19   4
ENDBRANCH  17  19
ENDBRANCH  12  17
TORSDOF 10
ENDMDL
MODEL 4
REMARK VINA RESULT:       8.3      2.377      7.436
REMARK  Name = 51136639
REMARK  13 active torsions:
REMARK  status: ('A' for Active; 'I' for Inactive)
REMARK    1  A    between atoms: S_1  and  N_9
REMARK    2  A    between atoms: S_1  and  C_21
REMARK    3  A    between atoms: O_4  and  C_19
REMARK    4  A    between atoms: O_6  and  C_29
REMARK    5  A    between atoms: O_6  and  C_34
REMARK    6  A    between atoms: O_7  and  C_30
REMARK    7  A    between atoms: O_7  and  C_35
REMARK    8  A    between atoms: O_8  and  C_33
REMARK    9  A    between atoms: O_8  and  C_36
REMARK   10  A    between atoms: C_11  and  C_16
REMARK   11  A    between atoms: C_12  and  C_17
REMARK   12  A    between atoms: C_16  and  C_18
REMARK   13  A    between atoms: C_17  and  C_19
REMARK                            x       y       z     vdW  Elec       q    Type
REMARK                         _______ _______ _______ _____ _____    ______ ____
ROOT
ATOM      9  N   UNL     1       0.496   1.222  23.437  0.00  0.00    -0.176 NA
ATOM     11  C   UNL     1      -1.094   2.594  24.765  0.00  0.00    +0.014 C 
ATOM     12  C   UNL     1      -0.031   3.716  24.839  0.00  0.00    +0.006 C 
ATOM     13  C   UNL     1      -0.403   1.228  24.628  0.00  0.00    +0.113 C 
ATOM     14  C   UNL     1       0.952   3.637  23.660  0.00  0.00    +0.021 C 
ATOM     15  C   UNL     1       1.572   2.249  23.543  0.00  0.00    +0.110 C 
ENDROOT
BRANCH   9   1
ATOM      1  S   UNL     1       1.010  -0.327  22.914  0.00  0.00    +0.061 S 
ATOM      2  O   UNL     1       0.739  -0.460  21.498  0.00  0.00    -0.153 OA
ATOM      3  O   UNL     1       0.545  -1.318  23.859  0.00  0.00    -0.153 OA
BRANCH   1  21
ATOM     21  C   UNL     1       2.754  -0.157  23.118  0.00  0.00    +0.106 A 
ATOM     26  C   UNL     1       3.481  -1.156  23.764  0.00  0.00    +0.032 A 
ATOM     27  C   UNL     1       3.406   0.978  22.635  0.00  0.00    +0.032 A 
ATOM     31  C   UNL     1       4.860  -1.022  23.927  0.00  0.00    +0.047 A 
ATOM     32  C   UNL     1       4.785   1.114  22.799  0.00  0.00    +0.047 A 
ATOM     33  C   UNL     1       5.511   0.114  23.446  0.00  0.00    +0.120 A 
BRANCH  33   8
ATOM      8  O   UNL     1       6.857   0.246  23.606  0.00  0.00    -0.495 OA
ATOM     36  C   UNL     1       7.689  -0.647  22.867  0.00  0.00    +0.277 C 
ENDBRANCH  33   8
ENDBRANCH   1  21
ENDBRANCH   9   1
BRANCH  11  16
ATOM     16  C   UNL     1      -2.131   2.787  23.650  0.00  0.00    +0.060 C 
BRANCH  16  18
ATOM     10  N   UNL     1      -4.458   3.014  24.200  0.00  0.00    -0.287 NA
ATOM     18  C   UNL     1      -3.458   2.206  24.078  0.00  0.00    +0.044 C 
ATOM     20  C   UNL     1      -3.546   0.747  24.344  0.00  0.00    +0.003 A 
ATOM     22  C   UNL     1      -4.645   0.309  25.094  0.00  0.00    -0.033 A 
ATOM     23  C   UNL     1      -5.634   1.324  25.584  0.00  0.00    +0.059 C 
ATOM     24  C   UNL     1      -5.760   2.440  24.557  0.00  0.00    +0.146 C 
ATOM     25  C   UNL     1      -2.588  -0.162  23.893  0.00  0.00    +0.059 A 
ATOM     28  C   UNL     1      -4.766  -1.046  25.413  0.00  0.00    +0.053 A 
ATOM     29  C   UNL     1      -2.726  -1.516  24.203  0.00  0.00    +0.162 A 
ATOM     30  C   UNL     1      -3.810  -1.957  24.963  0.00  0.00    +0.162 A 
BRANCH  29   6
ATOM      6  O   UNL     1      -1.790  -2.402  23.758  0.00  0.00    -0.491 OA
ATOM     34  C   UNL     1      -0.920  -2.968  24.735  0.00  0.00    +0.277 C 
ENDBRANCH  29   6
BRANCH  30   7
ATOM      7  O   UNL     1      -3.944  -3.276  25.275  0.00  0.00    -0.491 OA
ATOM     35  C   UNL     1      -4.268  -4.165  24.207  0.00  0.00    +0.277 C 
ENDBRANCH  30   7
ENDBRANCH  16  18
ENDBRANCH  11  16
BRANCH  12  17
ATOM     17  C   UNL     1      -0.639   5.115  24.940  0.00  0.00    +0.124 C 
BRANCH  17  19
ATOM      5  O   UNL     1      -2.437   4.634  26.516  0.00  0.00    -0.251 OA
ATOM     19  C   UNL     1      -2.057   5.068  25.438  0.00  0.00    +0.305 C 
BRANCH  19   4
ATOM      4  O   UNL     1      -2.889   5.590  24.500  0.00  0.00    -0.481 OA
ATOM     37  H   UNL     1      -2.736   5.196  23.615  0.00  0.00    +0.295 HD
ENDBRANCH  19   4
ENDBRANCH  17  19
ENDBRANCH  12  17
TORSDOF 10
ENDMDL
MODEL 5
REMARK VINA RESULT:       8.4      2.171      7.700
REMARK  Name = 51136639
REMARK  13 active torsions:
REMARK  status: ('A' for Active; 'I' for Inactive)
REMARK    1  A    between atoms: S_1  and  N_9
REMARK    2  A    between atoms: S_1  and  C_21
REMARK    3  A    between atoms: O_4  and  C_19
REMARK    4  A    between atoms: O_6  and  C_29
REMARK    5  A    between atoms: O_6  and  C_34
REMARK    6  A    between atoms: O_7  and  C_30
REMARK    7  A    between atoms: O_7  and  C_35
REMARK    8  A    between atoms: O_8  and  C_33
REMARK    9  A    between atoms: O_8  and  C_36
REMARK   10  A    between atoms: C_11  and  C_16
REMARK   11  A    between atoms: C_12  and  C_17
REMARK   12  A    between atoms: C_16  and  C_18
REMARK   13  A    between atoms: C_17  and  C_19
REMARK                            x       y       z     vdW  Elec       q    Type
REMARK                         _______ _______ _______ _____ _____    ______ ____
ROOT
ATOM      9  N   UNL     1      -0.018   0.612  23.238  0.00  0.00    -0.176 NA
ATOM     11  C   UNL     1       0.147   2.474  24.876  0.00  0.00    +0.014 C 
ATOM     12  C   UNL     1      -0.988   3.208  24.123  0.00  0.00    +0.006 C 
ATOM     13  C   UNL     1       0.917   1.566  23.904  0.00  0.00    +0.113 C 
ATOM     14  C   UNL     1      -1.884   2.222  23.357  0.00  0.00    +0.021 C 
ATOM     15  C   UNL     1      -1.065   1.317  22.444  0.00  0.00    +0.110 C 
ENDROOT
BRANCH   9   1
ATOM      1  S   UNL     1       0.726  -0.717  22.453  0.00  0.00    +0.061 S 
ATOM      2  O   UNL     1       0.577  -0.563  21.022  0.00  0.00    -0.153 OA
ATOM      3  O   UNL     1       0.325  -1.937  23.118  0.00  0.00    -0.153 OA
BRANCH   1  21
ATOM     21  C   UNL     1       2.416  -0.407  22.858  0.00  0.00    +0.106 A 
ATOM     26  C   UNL     1       3.135  -1.337  23.606  0.00  0.00    +0.032 A 
ATOM     27  C   UNL     1       3.030   0.771  22.432  0.00  0.00    +0.032 A 
ATOM     31  C   UNL     1       4.470  -1.092  23.929  0.00  0.00    +0.047 A 
ATOM     32  C   UNL     1       4.365   1.018  22.755  0.00  0.00    +0.047 A 
ATOM     33  C   UNL     1       5.084   0.086  23.504  0.00  0.00    +0.120 A 
BRANCH  33   8
ATOM      8  O   UNL     1       6.387   0.327  23.819  0.00  0.00    -0.495 OA
ATOM     36  C   UNL     1       7.376  -0.369  23.064  0.00  0.00    +0.277 C 
ENDBRANCH  33   8
ENDBRANCH   1  21
ENDBRANCH   9   1
BRANCH  11  16
ATOM     16  C   UNL     1      -0.328   1.674  26.097  0.00  0.00    +0.060 C 
BRANCH  16  18
ATOM     10  N   UNL     1      -0.855  -0.572  25.427  0.00  0.00    -0.287 NA
ATOM     18  C   UNL     1      -1.312   0.613  25.663  0.00  0.00    +0.044 C 
ATOM     20  C   UNL     1      -2.744   0.983  25.521  0.00  0.00    +0.003 A 
ATOM     22  C   UNL     1      -3.545   0.119  24.764  0.00  0.00    -0.033 A 
ATOM     23  C   UNL     1      -2.915  -1.093  24.145  0.00  0.00    +0.059 C 
ATOM     24  C   UNL     1      -1.820  -1.616  25.065  0.00  0.00    +0.146 C 
ATOM     25  C   UNL     1      -3.287   2.135  26.091  0.00  0.00    +0.059 A 
ATOM     28  C   UNL     1      -4.893   0.430  24.559  0.00  0.00    +0.053 A 
ATOM     29  C   UNL     1      -4.637   2.430  25.893  0.00  0.00    +0.162 A 
ATOM     30  C   UNL     1      -5.437   1.581  25.128  0.00  0.00    +0.162 A 
BRANCH  29   6
ATOM      6  O   UNL     1      -5.164   3.554  26.455  0.00  0.00    -0.491 OA
ATOM     34  C   UNL     1      -5.542   4.604  25.566  0.00  0.00    +0.277 C 
ENDBRANCH  29   6
BRANCH  30   7
ATOM      7  O   UNL     1      -6.753   1.868  24.926  0.00  0.00    -0.491 OA
ATOM     35  C   UNL     1      -7.352   1.358  23.736  0.00  0.00    +0.277 C 
ENDBRANCH  30   7
ENDBRANCH  16  18
ENDBRANCH  11  16
BRANCH  12  17
ATOM     17  C   UNL     1      -1.828   4.108  25.030  0.00  0.00    +0.124 C 
BRANCH  17  19
ATOM      5  O   UNL     1      -2.033   6.525  25.278  0.00  0.00    -0.251 OA
ATOM     19  C   UNL     1      -1.383   5.542  24.955  0.00  0.00    +0.305 C 
BRANCH  19   4
ATOM      4  O   UNL     1      -0.117   5.603  24.465  0.00  0.00    -0.481 OA
ATOM     37  H   UNL     1       0.257   4.710  24.305  0.00  0.00    +0.295 HD
ENDBRANCH  19   4
ENDBRANCH  17  19
ENDBRANCH  12  17
TORSDOF 10
ENDMDL
MODEL 6
REMARK VINA RESULT:       8.6      1.333      5.160
REMARK  Name = 51136639
REMARK  13 active torsions:
REMARK  status: ('A' for Active; 'I' for Inactive)
REMARK    1  A    between atoms: S_1  and  N_9
REMARK    2  A    between atoms: S_1  and  C_21
REMARK    3  A    between atoms: O_4  and  C_19
REMARK    4  A    between atoms: O_6  and  C_29
REMARK    5  A    between atoms: O_6  and  C_34
REMARK    6  A    between atoms: O_7  and  C_30
REMARK    7  A    between atoms: O_7  and  C_35
REMARK    8  A    between atoms: O_8  and  C_33
REMARK    9  A    between atoms: O_8  and  C_36
REMARK   10  A    between atoms: C_11  and  C_16
REMARK   11  A    between atoms: C_12  and  C_17
REMARK   12  A    between atoms: C_16  and  C_18
REMARK   13  A    between atoms: C_17  and  C_19
REMARK                            x       y       z     vdW  Elec       q    Type
REMARK                         _______ _______ _______ _____ _____    ______ ____
ROOT
ATOM      9  N   UNL     1      -4.508   2.769  25.457  0.00  0.00    -0.176 NA
ATOM     11  C   UNL     1      -2.546   3.605  24.181  0.00  0.00    +0.014 C 
ATOM     12  C   UNL     1      -2.679   4.964  24.909  0.00  0.00    +0.006 C 
ATOM     13  C   UNL     1      -3.921   2.922  24.093  0.00  0.00    +0.113 C 
ATOM     14  C   UNL     1      -3.378   4.807  26.268  0.00  0.00    +0.021 C 
ATOM     15  C   UNL     1      -4.713   4.084  26.129  0.00  0.00    +0.110 C 
ENDROOT
BRANCH   9   1
ATOM      1  S   UNL     1      -5.822   1.675  25.570  0.00  0.00    +0.061 S 
ATOM      2  O   UNL     1      -6.688   1.858  24.425  0.00  0.00    -0.153 OA
ATOM      3  O   UNL     1      -6.348   1.713  26.917  0.00  0.00    -0.153 OA
BRANCH   1  21
ATOM     21  C   UNL     1      -4.967   0.145  25.363  0.00  0.00    +0.106 A 
ATOM     26  C   UNL     1      -5.272  -0.683  24.283  0.00  0.00    +0.032 A 
ATOM     27  C   UNL     1      -3.989  -0.237  26.280  0.00  0.00    +0.032 A 
ATOM     31  C   UNL     1      -4.598  -1.894  24.120  0.00  0.00    +0.047 A 
ATOM     32  C   UNL     1      -3.315  -1.448  26.118  0.00  0.00    +0.047 A 
ATOM     33  C   UNL     1      -3.620  -2.276  25.038  0.00  0.00    +0.120 A 
BRANCH  33   8
ATOM      8  O   UNL     1      -2.963  -3.458  24.880  0.00  0.00    -0.495 OA
ATOM     36  C   UNL     1      -2.933  -4.012  23.566  0.00  0.00    +0.277 C 
ENDBRANCH  33   8
ENDBRANCH   1  21
ENDBRANCH   9   1
BRANCH  11  16
ATOM     16  C   UNL     1      -1.514   2.657  24.808  0.00  0.00    +0.060 C 
BRANCH  16  18
ATOM     10  N   UNL     1      -2.514   0.815  23.635  0.00  0.00    -0.287 NA
ATOM     18  C   UNL     1      -1.414   1.393  23.988  0.00  0.00    +0.044 C 
ATOM     20  C   UNL     1      -0.067   0.873  23.638  0.00  0.00    +0.003 A 
ATOM     22  C   UNL     1       0.006  -0.464  23.231  0.00  0.00    -0.033 A 
ATOM     23  C   UNL     1      -1.255  -1.276  23.190  0.00  0.00    +0.059 C 
ATOM     24  C   UNL     1      -2.417  -0.379  22.787  0.00  0.00    +0.146 C 
ATOM     25  C   UNL     1       1.087   1.655  23.716  0.00  0.00    +0.059 A 
ATOM     28  C   UNL     1       1.249  -1.026  22.925  0.00  0.00    +0.053 A 
ATOM     29  C   UNL     1       2.322   1.090  23.394  0.00  0.00    +0.162 A 
ATOM     30  C   UNL     1       2.404  -0.247  23.002  0.00  0.00    +0.162 A 
BRANCH  29   6
ATOM      6  O   UNL     1       3.446   1.857  23.468  0.00  0.00    -0.491 OA
ATOM     34  C   UNL     1       4.572   1.428  22.705  0.00  0.00    +0.277 C 
ENDBRANCH  29   6
BRANCH  30   7
ATOM      7  O   UNL     1       3.608  -0.804  22.695  0.00  0.00    -0.491 OA
ATOM     35  C   UNL     1       4.298  -1.478  23.746  0.00  0.00    +0.277 C 
ENDBRANCH  30   7
ENDBRANCH  16  18
ENDBRANCH  11  16
BRANCH  12  17
ATOM     17  C   UNL     1      -1.344   5.692  25.070  0.00  0.00    +0.124 C 
BRANCH  17  19
ATOM      5  O   UNL     1       0.191   4.924  23.338  0.00  0.00    -0.251 OA
ATOM     19  C   UNL     1      -0.206   4.897  24.494  0.00  0.00    +0.305 C 
BRANCH  19   4
ATOM      4  O   UNL     1       0.344   4.118  25.461  0.00  0.00    -0.481 OA
ATOM     37  H   UNL     1       0.042   3.188  25.397  0.00  0.00    +0.295 HD
ENDBRANCH  19   4
ENDBRANCH  17  19
ENDBRANCH  12  17
TORSDOF 10
ENDMDL
MODEL 7
REMARK VINA RESULT:       8.6      2.598      7.415
REMARK  Name = 51136639
REMARK  13 active torsions:
REMARK  status: ('A' for Active; 'I' for Inactive)
REMARK    1  A    between atoms: S_1  and  N_9
REMARK    2  A    between atoms: S_1  and  C_21
REMARK    3  A    between atoms: O_4  and  C_19
REMARK    4  A    between atoms: O_6  and  C_29
REMARK    5  A    between atoms: O_6  and  C_34
REMARK    6  A    between atoms: O_7  and  C_30
REMARK    7  A    between atoms: O_7  and  C_35
REMARK    8  A    between atoms: O_8  and  C_33
REMARK    9  A    between atoms: O_8  and  C_36
REMARK   10  A    between atoms: C_11  and  C_16
REMARK   11  A    between atoms: C_12  and  C_17
REMARK   12  A    between atoms: C_16  and  C_18
REMARK   13  A    between atoms: C_17  and  C_19
REMARK                            x       y       z     vdW  Elec       q    Type
REMARK                         _______ _______ _______ _____ _____    ______ ____
ROOT
ATOM      9  N   UNL     1       0.790  -0.218  23.393  0.00  0.00    -0.176 NA
ATOM     11  C   UNL     1      -1.435  -0.247  24.500  0.00  0.00    +0.014 C 
ATOM     12  C   UNL     1      -1.249  -1.756  24.786  0.00  0.00    +0.006 C 
ATOM     13  C   UNL     1      -0.649   0.147  23.239  0.00  0.00    +0.113 C 
ATOM     14  C   UNL     1       0.238  -2.139  24.840  0.00  0.00    +0.021 C 
ATOM     15  C   UNL     1       0.978  -1.685  23.587  0.00  0.00    +0.110 C 
ENDROOT
BRANCH   9   1
ATOM      1  S   UNL     1       1.857   0.515  22.271  0.00  0.00    +0.061 S 
ATOM      2  O   UNL     1       1.731   1.954  22.372  0.00  0.00    -0.153 OA
ATOM      3  O   UNL     1       1.730  -0.157  20.996  0.00  0.00    -0.153 OA
BRANCH   1  21
ATOM     21  C   UNL     1       3.408   0.057  22.976  0.00  0.00    +0.106 A 
ATOM     26  C   UNL     1       3.601  -1.239  23.454  0.00  0.00    +0.032 A 
ATOM     27  C   UNL     1       4.441   0.991  23.059  0.00  0.00    +0.032 A 
ATOM     31  C   UNL     1       4.826  -1.602  24.014  0.00  0.00    +0.047 A 
ATOM     32  C   UNL     1       5.666   0.629  23.620  0.00  0.00    +0.047 A 
ATOM     33  C   UNL     1       5.858  -0.668  24.097  0.00  0.00    +0.120 A 
BRANCH  33   8
ATOM      8  O   UNL     1       7.054  -1.021  24.644  0.00  0.00    -0.495 OA
ATOM     36  C   UNL     1       8.225  -0.445  24.070  0.00  0.00    +0.277 C 
ENDBRANCH  33   8
ENDBRANCH   1  21
ENDBRANCH   9   1
BRANCH  11  16
ATOM     16  C   UNL     1      -1.055   0.663  25.676  0.00  0.00    +0.060 C 
BRANCH  16  18
ATOM     10  N   UNL     1      -0.231   2.792  24.930  0.00  0.00    -0.287 NA
ATOM     18  C   UNL     1      -1.265   2.109  25.294  0.00  0.00    +0.044 C 
ATOM     20  C   UNL     1      -2.637   2.674  25.362  0.00  0.00    +0.003 A 
ATOM     22  C   UNL     1      -2.743   4.070  25.384  0.00  0.00    -0.033 A 
ATOM     23  C   UNL     1      -1.487   4.890  25.353  0.00  0.00    +0.059 C 
ATOM     24  C   UNL     1      -0.445   4.179  24.501  0.00  0.00    +0.146 C 
ATOM     25  C   UNL     1      -3.781   1.876  25.418  0.00  0.00    +0.059 A 
ATOM     28  C   UNL     1      -4.004   4.665  25.488  0.00  0.00    +0.053 A 
ATOM     29  C   UNL     1      -5.037   2.479  25.506  0.00  0.00    +0.162 A 
ATOM     30  C   UNL     1      -5.148   3.869  25.543  0.00  0.00    +0.162 A 
BRANCH  29   6
ATOM      6  O   UNL     1      -6.151   1.696  25.556  0.00  0.00    -0.491 OA
ATOM     34  C   UNL     1      -6.628   1.333  26.851  0.00  0.00    +0.277 C 
ENDBRANCH  29   6
BRANCH  30   7
ATOM      7  O   UNL     1      -6.371   4.462  25.637  0.00  0.00    -0.491 OA
ATOM     35  C   UNL     1      -6.484   5.796  25.143  0.00  0.00    +0.277 C 
ENDBRANCH  30   7
ENDBRANCH  16  18
ENDBRANCH  11  16
BRANCH  12  17
ATOM     17  C   UNL     1      -1.973  -2.223  26.049  0.00  0.00    +0.124 C 
BRANCH  17  19
ATOM      5  O   UNL     1      -4.083  -1.210  26.732  0.00  0.00    -0.251 OA
ATOM     19  C   UNL     1      -3.447  -1.935  25.981  0.00  0.00    +0.305 C 
BRANCH  19   4
ATOM      4  O   UNL     1      -3.998  -2.609  24.939  0.00  0.00    -0.481 OA
ATOM     37  H   UNL     1      -4.879  -2.253  24.697  0.00  0.00    +0.295 HD
ENDBRANCH  19   4
ENDBRANCH  17  19
ENDBRANCH  12  17
TORSDOF 10
ENDMDL
MODEL 8
REMARK VINA RESULT:       8.8      2.456      5.512
REMARK  Name = 51136639
REMARK  13 active torsions:
REMARK  status: ('A' for Active; 'I' for Inactive)
REMARK    1  A    between atoms: S_1  and  N_9
REMARK    2  A    between atoms: S_1  and  C_21
REMARK    3  A    between atoms: O_4  and  C_19
REMARK    4  A    between atoms: O_6  and  C_29
REMARK    5  A    between atoms: O_6  and  C_34
REMARK    6  A    between atoms: O_7  and  C_30
REMARK    7  A    between atoms: O_7  and  C_35
REMARK    8  A    between atoms: O_8  and  C_33
REMARK    9  A    between atoms: O_8  and  C_36
REMARK   10  A    between atoms: C_11  and  C_16
REMARK   11  A    between atoms: C_12  and  C_17
REMARK   12  A    between atoms: C_16  and  C_18
REMARK   13  A    between atoms: C_17  and  C_19
REMARK                            x       y       z     vdW  Elec       q    Type
REMARK                         _______ _______ _______ _____ _____    ______ ____
ROOT
ATOM      9  N   UNL     1      -1.833   3.788  24.807  0.00  0.00    -0.176 NA
ATOM     11  C   UNL     1      -3.770   2.358  25.425  0.00  0.00    +0.014 C 
ATOM     12  C   UNL     1      -4.592   3.637  25.717  0.00  0.00    +0.006 C 
ATOM     13  C   UNL     1      -2.275   2.637  25.648  0.00  0.00    +0.113 C 
ATOM     14  C   UNL     1      -4.063   4.840  24.921  0.00  0.00    +0.021 C 
ATOM     15  C   UNL     1      -2.567   5.041  25.143  0.00  0.00    +0.110 C 
ENDROOT
BRANCH   9   1
ATOM      1  S   UNL     1      -0.137   3.957  24.628  0.00  0.00    +0.061 S 
ATOM      2  O   UNL     1       0.194   5.366  24.591  0.00  0.00    -0.153 OA
ATOM      3  O   UNL     1       0.316   3.056  23.591  0.00  0.00    -0.153 OA
BRANCH   1  21
ATOM     21  C   UNL     1       0.402   3.315  26.180  0.00  0.00    +0.106 A 
ATOM     26  C   UNL     1      -0.355   2.343  26.833  0.00  0.00    +0.032 A 
ATOM     27  C   UNL     1       1.583   3.782  26.756  0.00  0.00    +0.032 A 
ATOM     31  C   UNL     1       0.069   1.836  28.061  0.00  0.00    +0.047 A 
ATOM     32  C   UNL     1       2.007   3.276  27.986  0.00  0.00    +0.047 A 
ATOM     33  C   UNL     1       1.250   2.304  28.638  0.00  0.00    +0.120 A 
BRANCH  33   8
ATOM      8  O   UNL     1       1.664   1.810  29.838  0.00  0.00    -0.495 OA
ATOM     36  C   UNL     1       1.018   2.315  31.004  0.00  0.00    +0.277 C 
ENDBRANCH  33   8
ENDBRANCH   1  21
ENDBRANCH   9   1
BRANCH  11  16
ATOM     16  C   UNL     1      -4.004   1.770  24.027  0.00  0.00    +0.060 C 
BRANCH  16  18
ATOM     10  N   UNL     1      -4.976  -0.426  23.999  0.00  0.00    -0.287 NA
ATOM     18  C   UNL     1      -3.888   0.265  24.078  0.00  0.00    +0.044 C 
ATOM     20  C   UNL     1      -2.540  -0.342  24.224  0.00  0.00    +0.003 A 
ATOM     22  C   UNL     1      -2.493  -1.675  24.652  0.00  0.00    -0.033 A 
ATOM     23  C   UNL     1      -3.781  -2.385  24.945  0.00  0.00    +0.059 C 
ATOM     24  C   UNL     1      -4.857  -1.889  23.988  0.00  0.00    +0.146 C 
ATOM     25  C   UNL     1      -1.363   0.362  23.968  0.00  0.00    +0.059 A 
ATOM     28  C   UNL     1      -1.255  -2.293  24.848  0.00  0.00    +0.053 A 
ATOM     29  C   UNL     1      -0.131  -0.269  24.152  0.00  0.00    +0.162 A 
ATOM     30  C   UNL     1      -0.076  -1.591  24.593  0.00  0.00    +0.162 A 
BRANCH  29   6
ATOM      6  O   UNL     1       1.017   0.421  23.897  0.00  0.00    -0.491 OA
ATOM     34  C   UNL     1       1.690   0.127  22.675  0.00  0.00    +0.277 C 
ENDBRANCH  29   6
BRANCH  30   7
ATOM      7  O   UNL     1       1.123  -2.208  24.780  0.00  0.00    -0.491 OA
ATOM     35  C   UNL     1       1.142  -3.336  25.654  0.00  0.00    +0.277 C 
ENDBRANCH  30   7
ENDBRANCH  16  18
ENDBRANCH  11  16
BRANCH  12  17
ATOM     17  C   UNL     1      -6.092   3.453  25.483  0.00  0.00    +0.124 C 
BRANCH  17  19
ATOM      5  O   UNL     1      -6.490   1.698  27.128  0.00  0.00    -0.251 OA
ATOM     19  C   UNL     1      -6.572   2.119  25.983  0.00  0.00    +0.305 C 
BRANCH  19   4
ATOM      4  O   UNL     1      -7.128   1.420  24.961  0.00  0.00    -0.481 OA
ATOM     37  H   UNL     1      -7.131   0.455  25.136  0.00  0.00    +0.295 HD
ENDBRANCH  19   4
ENDBRANCH  17  19
ENDBRANCH  12  17
TORSDOF 10
ENDMDL
MODEL 9
REMARK VINA RESULT:       8.8      2.049      6.820
REMARK  Name = 51136639
REMARK  13 active torsions:
REMARK  status: ('A' for Active; 'I' for Inactive)
REMARK    1  A    between atoms: S_1  and  N_9
REMARK    2  A    between atoms: S_1  and  C_21
REMARK    3  A    between atoms: O_4  and  C_19
REMARK    4  A    between atoms: O_6  and  C_29
REMARK    5  A    between atoms: O_6  and  C_34
REMARK    6  A    between atoms: O_7  and  C_30
REMARK    7  A    between atoms: O_7  and  C_35
REMARK    8  A    between atoms: O_8  and  C_33
REMARK    9  A    between atoms: O_8  and  C_36
REMARK   10  A    between atoms: C_11  and  C_16
REMARK   11  A    between atoms: C_12  and  C_17
REMARK   12  A    between atoms: C_16  and  C_18
REMARK   13  A    between atoms: C_17  and  C_19
REMARK                            x       y       z     vdW  Elec       q    Type
REMARK                         _______ _______ _______ _____ _____    ______ ____
ROOT
ATOM      9  N   UNL     1      -1.059  -0.161  25.005  0.00  0.00    -0.176 NA
ATOM     11  C   UNL     1       0.699   1.410  24.220  0.00  0.00    +0.014 C 
ATOM     12  C   UNL     1       1.487   0.208  23.647  0.00  0.00    +0.006 C 
ATOM     13  C   UNL     1      -0.156   0.954  25.413  0.00  0.00    +0.113 C 
ATOM     14  C   UNL     1       0.558  -0.972  23.325  0.00  0.00    +0.021 C 
ATOM     15  C   UNL     1      -0.298  -1.353  24.529  0.00  0.00    +0.110 C 
ENDROOT
BRANCH   9   1
ATOM      1  S   UNL     1      -2.346  -0.497  26.086  0.00  0.00    +0.061 S 
ATOM      2  O   UNL     1      -3.089   0.721  26.326  0.00  0.00    -0.153 OA
ATOM      3  O   UNL     1      -1.839  -1.291  27.184  0.00  0.00    -0.153 OA
BRANCH   1  21
ATOM     21  C   UNL     1      -3.337  -1.544  25.069  0.00  0.00    +0.106 A 
ATOM     26  C   UNL     1      -3.258  -2.929  25.208  0.00  0.00    +0.032 A 
ATOM     27  C   UNL     1      -4.197  -0.987  24.123  0.00  0.00    +0.032 A 
ATOM     31  C   UNL     1      -4.039  -3.758  24.403  0.00  0.00    +0.047 A 
ATOM     32  C   UNL     1      -4.978  -1.815  23.316  0.00  0.00    +0.047 A 
ATOM     33  C   UNL     1      -4.899  -3.201  23.457  0.00  0.00    +0.120 A 
BRANCH  33   8
ATOM      8  O   UNL     1      -5.661  -4.009  22.670  0.00  0.00    -0.495 OA
ATOM     36  C   UNL     1      -5.084  -4.450  21.442  0.00  0.00    +0.277 C 
ENDBRANCH  33   8
ENDBRANCH   1  21
ENDBRANCH   9   1
BRANCH  11  16
ATOM     16  C   UNL     1      -0.169   2.139  23.185  0.00  0.00    +0.060 C 
BRANCH  16  18
ATOM     10  N   UNL     1       0.184   4.432  23.805  0.00  0.00    -0.287 NA
ATOM     18  C   UNL     1      -0.654   3.450  23.755  0.00  0.00    +0.044 C 
ATOM     20  C   UNL     1      -2.057   3.545  24.235  0.00  0.00    +0.003 A 
ATOM     22  C   UNL     1      -2.359   4.611  25.092  0.00  0.00    -0.033 A 
ATOM     23  C   UNL     1      -1.264   5.561  25.475  0.00  0.00    +0.059 C 
ATOM     24  C   UNL     1      -0.306   5.723  24.302  0.00  0.00    +0.146 C 
ATOM     25  C   UNL     1      -3.042   2.623  23.876  0.00  0.00    +0.059 A 
ATOM     28  C   UNL     1      -3.651   4.734  25.611  0.00  0.00    +0.053 A 
ATOM     29  C   UNL     1      -4.333   2.764  24.387  0.00  0.00    +0.162 A 
ATOM     30  C   UNL     1      -4.637   3.814  25.254  0.00  0.00    +0.162 A 
BRANCH  29   6
ATOM      6  O   UNL     1      -5.293   1.863  24.032  0.00  0.00    -0.491 OA
ATOM     34  C   UNL     1      -6.232   1.489  25.038  0.00  0.00    +0.277 C 
ENDBRANCH  29   6
BRANCH  30   7
ATOM      7  O   UNL     1      -5.893   3.950  25.761  0.00  0.00    -0.491 OA
ATOM     35  C   UNL     1      -6.560   5.188  25.517  0.00  0.00    +0.277 C 
ENDBRANCH  30   7
ENDBRANCH  16  18
ENDBRANCH  11  16
BRANCH  12  17
ATOM     17  C   UNL     1       2.338   0.572  22.430  0.00  0.00    +0.124 C 
BRANCH  17  19
ATOM      5  O   UNL     1       4.683   1.239  22.413  0.00  0.00    -0.251 OA
ATOM     19  C   UNL     1       3.807   0.445  22.723  0.00  0.00    +0.305 C 
BRANCH  19   4
ATOM      4  O   UNL     1       4.041  -0.708  23.401  0.00  0.00    -0.481 OA
ATOM     37  H   UNL     1       4.178  -1.468  22.796  0.00  0.00    +0.295 HD
ENDBRANCH  19   4
ENDBRANCH  17  19
ENDBRANCH  12  17
TORSDOF 10
ENDMDL
MODEL 10
REMARK VINA RESULT:       9.2      2.209      6.520
REMARK  Name = 51136639
REMARK  13 active torsions:
REMARK  status: ('A' for Active; 'I' for Inactive)
REMARK    1  A    between atoms: S_1  and  N_9
REMARK    2  A    between atoms: S_1  and  C_21
REMARK    3  A    between atoms: O_4  and  C_19
REMARK    4  A    between atoms: O_6  and  C_29
REMARK    5  A    between atoms: O_6  and  C_34
REMARK    6  A    between atoms: O_7  and  C_30
REMARK    7  A    between atoms: O_7  and  C_35
REMARK    8  A    between atoms: O_8  and  C_33
REMARK    9  A    between atoms: O_8  and  C_36
REMARK   10  A    between atoms: C_11  and  C_16
REMARK   11  A    between atoms: C_12  and  C_17
REMARK   12  A    between atoms: C_16  and  C_18
REMARK   13  A    between atoms: C_17  and  C_19
REMARK                            x       y       z     vdW  Elec       q    Type
REMARK                         _______ _______ _______ _____ _____    ______ ____
ROOT
ATOM      9  N   UNL     1      -1.164   0.473  25.094  0.00  0.00    -0.176 NA
ATOM     11  C   UNL     1      -2.329  -1.365  23.894  0.00  0.00    +0.014 C 
ATOM     12  C   UNL     1      -2.127  -2.272  25.131  0.00  0.00    +0.006 C 
ATOM     13  C   UNL     1      -1.208  -0.314  23.827  0.00  0.00    +0.113 C 
ATOM     14  C   UNL     1      -1.980  -1.444  26.417  0.00  0.00    +0.021 C 
ATOM     15  C   UNL     1      -0.888  -0.389  26.280  0.00  0.00    +0.110 C 
ENDROOT
BRANCH   9   1
ATOM      1  S   UNL     1      -0.264   1.930  25.022  0.00  0.00    +0.061 S 
ATOM      2  O   UNL     1       0.183   2.274  26.354  0.00  0.00    -0.153 OA
ATOM      3  O   UNL     1      -0.983   2.883  24.206  0.00  0.00    -0.153 OA
BRANCH   1  21
ATOM     21  C   UNL     1       1.140   1.378  24.105  0.00  0.00    +0.106 A 
ATOM     26  C   UNL     1       1.270   0.030  23.774  0.00  0.00    +0.032 A 
ATOM     27  C   UNL     1       2.120   2.290  23.715  0.00  0.00    +0.032 A 
ATOM     31  C   UNL     1       2.381  -0.407  23.052  0.00  0.00    +0.047 A 
ATOM     32  C   UNL     1       3.232   1.854  22.993  0.00  0.00    +0.047 A 
ATOM     33  C   UNL     1       3.362   0.505  22.662  0.00  0.00    +0.120 A 
BRANCH  33   8
ATOM      8  O   UNL     1       4.446   0.079  21.958  0.00  0.00    -0.495 OA
ATOM     36  C   UNL     1       5.645  -0.157  22.693  0.00  0.00    +0.277 C 
ENDBRANCH  33   8
ENDBRANCH   1  21
ENDBRANCH   9   1
BRANCH  11  16
ATOM     16  C   UNL     1      -3.705  -0.687  23.833  0.00  0.00    +0.060 C 
BRANCH  16  18
ATOM     10  N   UNL     1      -2.918   0.852  22.165  0.00  0.00    -0.287 NA
ATOM     18  C   UNL     1      -3.565   0.709  23.274  0.00  0.00    +0.044 C 
ATOM     20  C   UNL     1      -4.164   1.842  24.025  0.00  0.00    +0.003 A 
ATOM     22  C   UNL     1      -3.699   3.124  23.708  0.00  0.00    -0.033 A 
ATOM     23  C   UNL     1      -2.635   3.267  22.660  0.00  0.00    +0.059 C 
ATOM     24  C   UNL     1      -2.835   2.200  21.592  0.00  0.00    +0.146 C 
ATOM     25  C   UNL     1      -5.134   1.664  25.013  0.00  0.00    +0.059 A 
ATOM     28  C   UNL     1      -4.193   4.230  24.405  0.00  0.00    +0.053 A 
ATOM     29  C   UNL     1      -5.633   2.776  25.694  0.00  0.00    +0.162 A 
ATOM     30  C   UNL     1      -5.163   4.055  25.393  0.00  0.00    +0.162 A 
BRANCH  29   6
ATOM      6  O   UNL     1      -6.582   2.599  26.656  0.00  0.00    -0.491 OA
ATOM     34  C   UNL     1      -6.687   1.297  27.228  0.00  0.00    +0.277 C 
ENDBRANCH  29   6
BRANCH  30   7
ATOM      7  O   UNL     1      -5.641   5.141  26.060  0.00  0.00    -0.491 OA
ATOM     35  C   UNL     1      -6.644   5.915  25.403  0.00  0.00    +0.277 C 
ENDBRANCH  30   7
ENDBRANCH  16  18
ENDBRANCH  11  16
BRANCH  12  17
ATOM     17  C   UNL     1      -3.224  -3.325  25.290  0.00  0.00    +0.124 C 
BRANCH  17  19
ATOM      5  O   UNL     1      -5.006  -3.343  23.625  0.00  0.00    -0.251 OA
ATOM     19  C   UNL     1      -3.875  -3.650  23.974  0.00  0.00    +0.305 C 
BRANCH  19   4
ATOM      4  O   UNL     1      -3.011  -4.352  23.197  0.00  0.00    -0.481 OA
ATOM     37  H   UNL     1      -3.132  -5.320  23.298  0.00  0.00    +0.295 HD
ENDBRANCH  19   4
ENDBRANCH  17  19
ENDBRANCH  12  17
TORSDOF 10
ENDMDL
