MODEL 1
REMARK VINA RESULT:      -2.1      0.000      0.000
REMARK  Name = 45361616
REMARK  10 active torsions:
REMARK  status: ('A' for Active; 'I' for Inactive)
REMARK    1  A    between atoms: O_1  and  C_11
REMARK    2  A    between atoms: N_4  and  C_15
REMARK    3  A    between atoms: N_5  and  C_25
REMARK    4  A    between atoms: C_8  and  C_18
REMARK    5  A    between atoms: C_10  and  C_20
REMARK    6  A    between atoms: C_14  and  C_19
REMARK    7  A    between atoms: C_19  and  C_21
REMARK    8  A    between atoms: C_19  and  C_22
REMARK    9  A    between atoms: C_23  and  C_24
REMARK   10  A    between atoms: C_25  and  C_27
REMARK                            x       y       z     vdW  Elec       q    Type
REMARK                         _______ _______ _______ _____ _____    ______ ____
ROOT
ATOM      8  C   UNL     1      -2.967  -1.375  24.844  0.00  0.00    -0.027 C 
ATOM      9  C   UNL     1      -2.591  -0.029  24.140  0.00  0.00    +0.028 C 
ATOM     10  C   UNL     1      -1.047   0.245  24.248  0.00  0.00    +0.012 C 
ATOM     11  C   UNL     1      -3.511   1.132  24.616  0.00  0.00    +0.122 C 
ATOM     12  C   UNL     1      -4.469  -1.671  24.622  0.00  0.00    +0.007 C 
ATOM     13  C   UNL     1      -2.161  -2.525  24.197  0.00  0.00    +0.009 C 
ATOM     14  C   UNL     1      -5.014   0.790  24.488  0.00  0.00    +0.029 C 
ATOM     15  C   UNL     1      -0.246  -0.951  23.662  0.00  0.00    +0.076 C 
ATOM     16  C   UNL     1      -5.375  -0.553  25.122  0.00  0.00    +0.007 C 
ATOM     17  C   UNL     1      -0.656  -2.302  24.248  0.00  0.00    +0.023 C 
ATOM     18  C   UNL     1      -2.684  -1.348  26.368  0.00  0.00    +0.011 C 
ATOM     20  C   UNL     1      -0.602   1.542  23.550  0.00  0.00    +0.010 C 
ENDROOT
BRANCH  15   4
ATOM      3  O   UNL     1       1.674  -0.230  21.653  0.00  0.00    -0.269 OA
ATOM      4  N   UNL     1       1.180  -0.784  23.849  0.00  0.00    -0.307 N 
ATOM     23  C   UNL     1       2.027  -0.433  22.811  0.00  0.00    +0.263 C 
ATOM     35  H   UNL     1       1.574  -0.989  24.763  0.00  0.00    +0.149 HD
BRANCH  23  24
ATOM      6  N   UNL     1       4.019  -1.431  23.713  0.00  0.00    -0.250 NA
ATOM     24  C   UNL     1       3.467  -0.327  23.160  0.00  0.00    +0.125 A 
ATOM     26  C   UNL     1       4.160   0.847  22.916  0.00  0.00    +0.033 A 
ATOM     28  C   UNL     1       5.507   0.892  23.259  0.00  0.00    +0.004 A 
ATOM     29  C   UNL     1       5.329  -1.350  24.035  0.00  0.00    +0.111 A 
ATOM     31  C   UNL     1       6.110  -0.224  23.830  0.00  0.00    +0.020 A 
ENDBRANCH  23  24
ENDBRANCH  15   4
BRANCH  11   1
ATOM      1  O   UNL     1      -3.284   2.283  23.801  0.00  0.00    -0.391 OA
ATOM     36  H   UNL     1      -3.515   3.072  24.320  0.00  0.00    +0.210 HD
ENDBRANCH  11   1
BRANCH  14  19
ATOM     19  C   UNL     1      -5.899   1.892  25.081  0.00  0.00    +0.077 C 
ATOM     21  C   UNL     1      -7.143   2.087  24.220  0.00  0.00    +0.017 C 
BRANCH  19  22
ATOM      2  O   UNL     1      -5.085   4.045  24.330  0.00  0.00    -0.276 OA
ATOM      5  N   UNL     1      -4.416   3.272  26.412  0.00  0.00    -0.309 N 
ATOM     22  C   UNL     1      -5.103   3.187  25.209  0.00  0.00    +0.217 C 
ATOM     37  H   UNL     1      -4.526   2.544  27.110  0.00  0.00    +0.149 HD
BRANCH   5  25
ATOM     25  C   UNL     1      -3.591   4.404  26.762  0.00  0.00    +0.159 C 
BRANCH  25  27
ATOM      7  N   UNL     1      -1.456   3.313  26.372  0.00  0.00    -0.258 NA
ATOM     27  C   UNL     1      -2.257   4.361  26.076  0.00  0.00    +0.058 A 
ATOM     30  C   UNL     1      -1.916   5.371  25.191  0.00  0.00    +0.025 A 
ATOM     32  C   UNL     1      -0.674   5.301  24.570  0.00  0.00    +0.003 A 
ATOM     33  C   UNL     1      -0.256   3.278  25.750  0.00  0.00    +0.111 A 
ATOM     34  C   UNL     1       0.178   4.238  24.849  0.00  0.00    +0.020 A 
ENDBRANCH  25  27
ENDBRANCH   5  25
ENDBRANCH  19  22
ENDBRANCH  14  19
TORSDOF 7
ENDMDL
