MODEL 1
REMARK VINA RESULT:       6.6      0.000      0.000
REMARK  Name = 26742480
REMARK  10 active torsions:
REMARK  status: ('A' for Active; 'I' for Inactive)
REMARK    1  A    between atoms: N_3  and  C_14
REMARK    2  A    between atoms: N_6  and  C_29
REMARK    3  A    between atoms: N_6  and  C_34
REMARK    4  A    between atoms: N_6  and  C_35
REMARK    5  A    between atoms: C_8  and  C_15
REMARK    6  A    between atoms: C_9  and  C_14
REMARK    7  A    between atoms: C_17  and  C_20
REMARK    8  A    between atoms: C_18  and  C_21
REMARK    9  A    between atoms: C_19  and  C_22
REMARK   10  A    between atoms: C_32  and  C_33
REMARK                            x       y       z     vdW  Elec       q    Type
REMARK                         _______ _______ _______ _____ _____    ______ ____
ROOT
ATOM      2  N   UNL     1      -4.290   3.474  25.819  0.00  0.00    -0.297 NA
ATOM      7  C   UNL     1      -5.258   1.731  24.144  0.00  0.00    +0.002 C 
ATOM      8  C   UNL     1      -4.459   1.018  25.269  0.00  0.00    +0.055 C 
ATOM      9  C   UNL     1      -3.959   3.871  24.425  0.00  0.00    +0.074 C 
ATOM     10  C   UNL     1      -4.342   2.751  23.435  0.00  0.00    +0.024 C 
ATOM     11  C   UNL     1      -6.380   2.535  24.835  0.00  0.00    +0.019 C 
ATOM     12  C   UNL     1      -3.750   2.122  26.105  0.00  0.00    +0.094 C 
ATOM     13  C   UNL     1      -5.767   3.416  25.937  0.00  0.00    +0.085 C 
ENDROOT
BRANCH   8  15
ATOM      4  N   UNL     1      -4.040  -1.345  24.796  0.00  0.00    -0.237 NA
ATOM      5  N   UNL     1      -1.860  -2.165  24.178  0.00  0.00    -0.232 NA
ATOM     15  C   UNL     1      -3.511  -0.107  24.876  0.00  0.00    +0.050 A 
ATOM     16  C   UNL     1      -2.184   0.178  24.626  0.00  0.00    +0.052 A 
ATOM     17  C   UNL     1      -1.397  -0.901  24.279  0.00  0.00    +0.075 A 
ATOM     18  C   UNL     1      -3.171  -2.313  24.448  0.00  0.00    +0.127 A 
ATOM     21  C   UNL     1      -3.719  -3.696  24.349  0.00  0.00    +0.088 C 
BRANCH  17  20
ATOM     20  C   UNL     1       0.008  -0.738  23.992  0.00  0.00    +0.001 A 
ATOM     23  C   UNL     1       0.930  -1.668  24.470  0.00  0.00    +0.012 A 
ATOM     24  C   UNL     1       0.444   0.351  23.236  0.00  0.00    +0.012 A 
ATOM     27  C   UNL     1       2.288  -1.510  24.192  0.00  0.00    +0.024 A 
ATOM     28  C   UNL     1       1.801   0.509  22.958  0.00  0.00    +0.024 A 
ATOM     29  C   UNL     1       2.724  -0.422  23.436  0.00  0.00    +0.029 A 
BRANCH  29   6
ATOM      6  N   UNL     1       4.096  -0.263  23.155  0.00  0.00    -0.336 N 
ATOM     34  C   UNL     1       4.542   0.761  22.232  0.00  0.00    +0.129 C 
ATOM     35  C   UNL     1       5.080  -1.115  23.792  0.00  0.00    +0.129 C 
ENDBRANCH  29   6
ENDBRANCH  17  20
ENDBRANCH   8  15
BRANCH   9  14
ATOM     14  C   UNL     1      -2.496   4.294  24.271  0.00  0.00    +0.123 C 
BRANCH  14   3
ATOM      1  O   UNL     1       0.151   3.182  24.273  0.00  0.00    -0.270 OA
ATOM      3  N   UNL     1      -1.731   3.911  25.418  0.00  0.00    -0.310 N 
ATOM     19  C   UNL     1      -0.447   3.377  25.328  0.00  0.00    +0.244 C 
ATOM     36  H   UNL     1      -2.191   3.989  26.319  0.00  0.00    +0.149 HD
BRANCH  19  22
ATOM     22  C   UNL     1       0.205   3.006  26.610  0.00  0.00    +0.037 A 
ATOM     25  C   UNL     1      -0.501   2.283  27.570  0.00  0.00    +0.013 A 
ATOM     26  C   UNL     1       1.526   3.383  26.854  0.00  0.00    +0.013 A 
ATOM     30  C   UNL     1       0.111   1.936  28.773  0.00  0.00    +0.004 A 
ATOM     31  C   UNL     1       2.139   3.036  28.058  0.00  0.00    +0.004 A 
ATOM     32  C   UNL     1       1.432   2.313  29.018  0.00  0.00    -0.050 A 
ATOM     33  C   UNL     1       2.087   1.942  30.306  0.00  0.00    +0.044 C 
ENDBRANCH  19  22
ENDBRANCH  14   3
ENDBRANCH   9  14
TORSDOF 6
ENDMDL
MODEL 2
REMARK VINA RESULT:       9.7      2.391      4.525
REMARK  Name = 26742480
REMARK  10 active torsions:
REMARK  status: ('A' for Active; 'I' for Inactive)
REMARK    1  A    between atoms: N_3  and  C_14
REMARK    2  A    between atoms: N_6  and  C_29
REMARK    3  A    between atoms: N_6  and  C_34
REMARK    4  A    between atoms: N_6  and  C_35
REMARK    5  A    between atoms: C_8  and  C_15
REMARK    6  A    between atoms: C_9  and  C_14
REMARK    7  A    between atoms: C_17  and  C_20
REMARK    8  A    between atoms: C_18  and  C_21
REMARK    9  A    between atoms: C_19  and  C_22
REMARK   10  A    between atoms: C_32  and  C_33
REMARK                            x       y       z     vdW  Elec       q    Type
REMARK                         _______ _______ _______ _____ _____    ______ ____
ROOT
ATOM      2  N   UNL     1      -3.999  -1.591  25.957  0.00  0.00    -0.297 NA
ATOM      7  C   UNL     1      -2.631  -2.510  23.940  0.00  0.00    +0.002 C 
ATOM      8  C   UNL     1      -1.744  -1.593  24.826  0.00  0.00    +0.055 C 
ATOM      9  C   UNL     1      -4.749  -1.372  24.692  0.00  0.00    +0.074 C 
ATOM     10  C   UNL     1      -3.872  -1.720  23.471  0.00  0.00    +0.024 C 
ATOM     11  C   UNL     1      -3.138  -3.651  24.847  0.00  0.00    +0.019 C 
ATOM     12  C   UNL     1      -2.673  -0.929  25.882  0.00  0.00    +0.094 C 
ATOM     13  C   UNL     1      -3.780  -3.049  26.109  0.00  0.00    +0.085 C 
ENDROOT
BRANCH   8  15
ATOM      4  N   UNL     1      -1.443   0.487  23.574  0.00  0.00    -0.237 NA
ATOM      5  N   UNL     1       0.729   1.265  22.880  0.00  0.00    -0.232 NA
ATOM     15  C   UNL     1      -0.839  -0.582  24.135  0.00  0.00    +0.050 A 
ATOM     16  C   UNL     1       0.523  -0.794  24.111  0.00  0.00    +0.052 A 
ATOM     17  C   UNL     1       1.266   0.171  23.462  0.00  0.00    +0.075 A 
ATOM     18  C   UNL     1      -0.610   1.357  22.972  0.00  0.00    +0.127 A 
ATOM     21  C   UNL     1      -1.240   2.551  22.339  0.00  0.00    +0.088 C 
BRANCH  17  20
ATOM     20  C   UNL     1       2.703   0.067  23.365  0.00  0.00    +0.001 A 
ATOM     23  C   UNL     1       3.444   1.121  22.831  0.00  0.00    +0.012 A 
ATOM     24  C   UNL     1       3.349  -1.088  23.807  0.00  0.00    +0.012 A 
ATOM     27  C   UNL     1       4.833   1.020  22.739  0.00  0.00    +0.024 A 
ATOM     28  C   UNL     1       4.737  -1.188  23.715  0.00  0.00    +0.024 A 
ATOM     29  C   UNL     1       5.479  -0.134  23.180  0.00  0.00    +0.029 A 
BRANCH  29   6
ATOM      6  N   UNL     1       6.882  -0.236  23.087  0.00  0.00    -0.336 N 
ATOM     34  C   UNL     1       7.734   0.695  23.798  0.00  0.00    +0.129 C 
ATOM     35  C   UNL     1       7.490  -1.279  22.285  0.00  0.00    +0.129 C 
ENDBRANCH  29   6
ENDBRANCH  17  20
ENDBRANCH   8  15
BRANCH   9  14
ATOM     14  C   UNL     1      -5.330   0.041  24.595  0.00  0.00    +0.123 C 
BRANCH  14   3
ATOM      1  O   UNL     1      -5.429   2.601  25.892  0.00  0.00    -0.270 OA
ATOM      3  N   UNL     1      -4.289   1.022  24.628  0.00  0.00    -0.310 N 
ATOM     19  C   UNL     1      -4.422   2.244  25.285  0.00  0.00    +0.244 C 
ATOM     36  H   UNL     1      -3.453   0.818  24.094  0.00  0.00    +0.149 HD
BRANCH  19  22
ATOM     22  C   UNL     1      -3.260   3.166  25.205  0.00  0.00    +0.037 A 
ATOM     25  C   UNL     1      -2.045   2.810  25.787  0.00  0.00    +0.013 A 
ATOM     26  C   UNL     1      -3.387   4.391  24.548  0.00  0.00    +0.013 A 
ATOM     30  C   UNL     1      -0.955   3.676  25.712  0.00  0.00    +0.004 A 
ATOM     31  C   UNL     1      -2.297   5.258  24.473  0.00  0.00    +0.004 A 
ATOM     32  C   UNL     1      -1.080   4.901  25.056  0.00  0.00    -0.050 A 
ATOM     33  C   UNL     1       0.086   5.828  24.976  0.00  0.00    +0.044 C 
ENDBRANCH  19  22
ENDBRANCH  14   3
ENDBRANCH   9  14
TORSDOF 6
ENDMDL
MODEL 3
REMARK VINA RESULT:      10.3      2.512      4.952
REMARK  Name = 26742480
REMARK  10 active torsions:
REMARK  status: ('A' for Active; 'I' for Inactive)
REMARK    1  A    between atoms: N_3  and  C_14
REMARK    2  A    between atoms: N_6  and  C_29
REMARK    3  A    between atoms: N_6  and  C_34
REMARK    4  A    between atoms: N_6  and  C_35
REMARK    5  A    between atoms: C_8  and  C_15
REMARK    6  A    between atoms: C_9  and  C_14
REMARK    7  A    between atoms: C_17  and  C_20
REMARK    8  A    between atoms: C_18  and  C_21
REMARK    9  A    between atoms: C_19  and  C_22
REMARK   10  A    between atoms: C_32  and  C_33
REMARK                            x       y       z     vdW  Elec       q    Type
REMARK                         _______ _______ _______ _____ _____    ______ ____
ROOT
ATOM      2  N   UNL     1      -3.179   4.154  24.401  0.00  0.00    -0.297 NA
ATOM      7  C   UNL     1      -0.585   4.235  24.621  0.00  0.00    +0.002 C 
ATOM      8  C   UNL     1      -1.014   3.090  23.663  0.00  0.00    +0.055 C 
ATOM      9  C   UNL     1      -2.792   4.194  25.836  0.00  0.00    +0.074 C 
ATOM     10  C   UNL     1      -1.265   4.034  25.993  0.00  0.00    +0.024 C 
ATOM     11  C   UNL     1      -1.143   5.546  24.027  0.00  0.00    +0.019 C 
ATOM     12  C   UNL     1      -2.563   2.976  23.740  0.00  0.00    +0.094 C 
ATOM     13  C   UNL     1      -2.648   5.378  23.753  0.00  0.00    +0.085 C 
ENDROOT
BRANCH   8  15
ATOM      4  N   UNL     1      -1.109   0.697  24.158  0.00  0.00    -0.237 NA
ATOM      5  N   UNL     1       0.844  -0.711  24.078  0.00  0.00    -0.232 NA
ATOM     15  C   UNL     1      -0.328   1.738  23.805  0.00  0.00    +0.050 A 
ATOM     16  C   UNL     1       1.028   1.636  23.575  0.00  0.00    +0.052 A 
ATOM     17  C   UNL     1       1.567   0.375  23.729  0.00  0.00    +0.075 A 
ATOM     18  C   UNL     1      -0.467  -0.481  24.275  0.00  0.00    +0.127 A 
ATOM     21  C   UNL     1      -1.297  -1.657  24.664  0.00  0.00    +0.088 C 
BRANCH  17  20
ATOM     20  C   UNL     1       2.974   0.134  23.518  0.00  0.00    +0.001 A 
ATOM     23  C   UNL     1       3.770   1.118  22.933  0.00  0.00    +0.012 A 
ATOM     24  C   UNL     1       3.538  -1.084  23.901  0.00  0.00    +0.012 A 
ATOM     27  C   UNL     1       5.131   0.884  22.730  0.00  0.00    +0.024 A 
ATOM     28  C   UNL     1       4.898  -1.317  23.699  0.00  0.00    +0.024 A 
ATOM     29  C   UNL     1       5.695  -0.332  23.112  0.00  0.00    +0.029 A 
BRANCH  29   6
ATOM      6  N   UNL     1       7.070  -0.568  22.908  0.00  0.00    -0.336 N 
ATOM     34  C   UNL     1       7.509  -1.668  22.074  0.00  0.00    +0.129 C 
ATOM     35  C   UNL     1       8.061   0.291  23.523  0.00  0.00    +0.129 C 
ENDBRANCH  29   6
ENDBRANCH  17  20
ENDBRANCH   8  15
BRANCH   9  14
ATOM     14  C   UNL     1      -3.562   3.173  26.676  0.00  0.00    +0.123 C 
BRANCH  14   3
ATOM      1  O   UNL     1      -5.755   1.530  25.816  0.00  0.00    -0.270 OA
ATOM      3  N   UNL     1      -3.475   1.867  26.098  0.00  0.00    -0.310 N 
ATOM     19  C   UNL     1      -4.596   1.137  25.706  0.00  0.00    +0.244 C 
ATOM     36  H   UNL     1      -2.551   1.457  26.036  0.00  0.00    +0.149 HD
BRANCH  19  22
ATOM     22  C   UNL     1      -4.340  -0.215  25.145  0.00  0.00    +0.037 A 
ATOM     25  C   UNL     1      -4.596  -0.474  23.800  0.00  0.00    +0.013 A 
ATOM     26  C   UNL     1      -3.842  -1.227  25.967  0.00  0.00    +0.013 A 
ATOM     30  C   UNL     1      -4.356  -1.743  23.275  0.00  0.00    +0.004 A 
ATOM     31  C   UNL     1      -3.602  -2.496  25.443  0.00  0.00    +0.004 A 
ATOM     32  C   UNL     1      -3.859  -2.755  24.096  0.00  0.00    -0.050 A 
ATOM     33  C   UNL     1      -3.603  -4.113  23.535  0.00  0.00    +0.044 C 
ENDBRANCH  19  22
ENDBRANCH  14   3
ENDBRANCH   9  14
TORSDOF 6
ENDMDL
