MODEL 1
REMARK VINA RESULT:       4.3      0.000      0.000
REMARK  Name = 7672469
REMARK  3 active torsions:
REMARK  status: ('A' for Active; 'I' for Inactive)
REMARK    1  A    between atoms: S_1  and  N_6
REMARK    2  A    between atoms: S_1  and  C_19
REMARK    3  A    between atoms: C_17  and  C_20
REMARK                            x       y       z     vdW  Elec       q    Type
REMARK                         _______ _______ _______ _____ _____    ______ ____
ROOT
ATOM      5  O   UNL     1       0.344   2.354  25.836  0.00  0.00    -0.267 OA
ATOM      6  N   UNL     1      -4.586   2.221  25.133  0.00  0.00    -0.176 NA
ATOM      7  N   UNL     1      -1.572   3.066  24.711  0.00  0.00    -0.311 N 
ATOM      8  C   UNL     1      -3.471   4.326  25.880  0.00  0.00    +0.025 C 
ATOM      9  C   UNL     1      -3.638   3.821  23.483  0.00  0.00    +0.052 C 
ATOM     10  C   UNL     1      -3.713   4.946  24.511  0.00  0.00    +0.017 C 
ATOM     11  C   UNL     1      -4.543   3.269  26.193  0.00  0.00    +0.114 C 
ATOM     12  C   UNL     1      -4.749   2.792  23.763  0.00  0.00    +0.119 C 
ATOM     13  C   UNL     1      -2.050   3.749  25.921  0.00  0.00    +0.130 C 
ATOM     14  C   UNL     1      -2.278   3.148  23.509  0.00  0.00    +0.026 A 
ATOM     15  C   UNL     1      -1.765   2.615  22.387  0.00  0.00    +0.022 A 
ATOM     16  C   UNL     1      -0.322   2.420  24.802  0.00  0.00    +0.260 A 
ATOM     17  C   UNL     1       0.205   1.804  23.536  0.00  0.00    +0.053 A 
ATOM     18  C   UNL     1      -0.504   1.929  22.405  0.00  0.00    +0.016 A 
ENDROOT
BRANCH  17  20
ATOM      2  S   UNL     1       1.463  -0.591  23.791  0.00  0.00    -0.088 S 
ATOM     20  C   UNL     1       1.448   1.098  23.533  0.00  0.00    +0.026 A 
ATOM     23  C   UNL     1       2.722   1.592  23.341  0.00  0.00    +0.024 A 
ATOM     26  C   UNL     1       3.736   0.578  23.405  0.00  0.00    -0.010 A 
ATOM     27  C   UNL     1       3.179  -0.681  23.650  0.00  0.00    +0.020 A 
ATOM     29  C   UNL     1       5.141   0.672  23.264  0.00  0.00    +0.009 A 
ATOM     30  C   UNL     1       3.981  -1.834  23.754  0.00  0.00    +0.015 A 
ATOM     31  C   UNL     1       5.941  -0.470  23.368  0.00  0.00    +0.001 A 
ATOM     32  C   UNL     1       5.364  -1.708  23.610  0.00  0.00    +0.001 A 
ENDBRANCH  17  20
BRANCH   6   1
ATOM      1  S   UNL     1      -5.551   0.853  25.484  0.00  0.00    +0.061 S 
ATOM      3  O   UNL     1      -6.619   0.763  24.511  0.00  0.00    -0.153 OA
ATOM      4  O   UNL     1      -5.834   0.828  26.904  0.00  0.00    -0.153 OA
BRANCH   1  19
ATOM     19  C   UNL     1      -4.397  -0.438  25.138  0.00  0.00    +0.105 A 
ATOM     21  C   UNL     1      -3.167  -0.435  25.775  0.00  0.00    +0.028 A 
ATOM     22  C   UNL     1      -4.740  -1.430  24.236  0.00  0.00    +0.028 A 
ATOM     24  C   UNL     1      -2.254  -1.454  25.501  0.00  0.00    +0.002 A 
ATOM     25  C   UNL     1      -3.828  -2.449  23.961  0.00  0.00    +0.002 A 
ATOM     28  C   UNL     1      -2.584  -2.460  24.594  0.00  0.00    +0.000 A 
ENDBRANCH   1  19
ENDBRANCH   6   1
TORSDOF 3
ENDMDL
