MODEL 1
REMARK VINA RESULT:      -4.8      0.000      0.000
REMARK  Name = 26743147
REMARK  8 active torsions:
REMARK  status: ('A' for Active; 'I' for Inactive)
REMARK    1  A    between atoms: O_3  and  C_19
REMARK    2  A    between atoms: O_3  and  C_25
REMARK    3  A    between atoms: N_5  and  C_18
REMARK    4  A    between atoms: C_7  and  C_13
REMARK    5  A    between atoms: C_8  and  C_12
REMARK    6  A    between atoms: C_12  and  C_14
REMARK    7  A    between atoms: C_13  and  C_15
REMARK    8  A    between atoms: C_17  and  C_19
REMARK                            x       y       z     vdW  Elec       q    Type
REMARK                         _______ _______ _______ _____ _____    ______ ____
ROOT
ATOM      4  N   UNL     1      -1.706  -3.222  25.235  0.00  0.00    -0.316 NA
ATOM      7  C   UNL     1      -1.585  -0.315  24.748  0.00  0.00    +0.004 C 
ATOM      8  C   UNL     1      -2.893  -1.131  24.618  0.00  0.00    +0.012 C 
ATOM      9  C   UNL     1      -0.628  -1.049  25.702  0.00  0.00    +0.019 C 
ATOM     10  C   UNL     1      -2.613  -2.602  24.269  0.00  0.00    +0.085 C 
ATOM     11  C   UNL     1      -0.430  -2.514  25.316  0.00  0.00    +0.081 C 
ATOM     31  H   UNL     1      -1.538  -4.191  24.967  0.00  0.00    +0.122 HD
ENDROOT
BRANCH   8  12
ATOM     12  C   UNL     1      -3.883  -0.522  23.623  0.00  0.00    +0.064 C 
BRANCH  12  14
ATOM      2  O   UNL     1      -4.209   3.063  23.676  0.00  0.00    -0.356 OA
ATOM      6  N   UNL     1      -3.807   1.874  23.081  0.00  0.00    -0.083 NA
ATOM     14  C   UNL     1      -4.165   0.917  23.943  0.00  0.00    +0.084 A 
ATOM     16  C   UNL     1      -4.791   1.438  25.088  0.00  0.00    +0.074 A 
ATOM     17  C   UNL     1      -4.795   2.791  24.870  0.00  0.00    +0.175 A 
BRANCH  17  19
ATOM     19  C   UNL     1      -5.283   3.942  25.639  0.00  0.00    +0.306 C 
BRANCH  19   3
ATOM      3  O   UNL     1      -4.274   4.398  26.544  0.00  0.00    -0.484 OA
BRANCH   3  25
ATOM     25  C   UNL     1      -2.983   4.338  26.099  0.00  0.00    +0.121 A 
ATOM     26  C   UNL     1      -2.465   5.376  25.324  0.00  0.00    +0.045 A 
ATOM     27  C   UNL     1      -2.184   3.241  26.419  0.00  0.00    +0.045 A 
ATOM     28  C   UNL     1      -1.147   5.315  24.869  0.00  0.00    +0.004 A 
ATOM     29  C   UNL     1      -0.868   3.181  25.965  0.00  0.00    +0.004 A 
ATOM     30  C   UNL     1      -0.348   4.218  25.189  0.00  0.00    +0.000 A 
ENDBRANCH   3  25
ENDBRANCH  19   3
ENDBRANCH  17  19
ENDBRANCH  12  14
ENDBRANCH   8  12
BRANCH   7  13
ATOM     13  C   UNL     1      -0.899  -0.018  23.410  0.00  0.00    +0.100 C 
BRANCH  13  15
ATOM      1  O   UNL     1       0.709   1.680  23.985  0.00  0.00    -0.275 OA
ATOM      5  N   UNL     1       1.448  -0.423  23.242  0.00  0.00    -0.285 N 
ATOM     15  C   UNL     1       0.502   0.538  23.589  0.00  0.00    +0.217 C 
ATOM     32  H   UNL     1       1.105  -1.328  22.929  0.00  0.00    +0.155 HD
BRANCH   5  18
ATOM     18  C   UNL     1       2.857  -0.297  23.271  0.00  0.00    +0.033 A 
ATOM     20  C   UNL     1       3.463   0.862  22.786  0.00  0.00    +0.023 A 
ATOM     21  C   UNL     1       3.639  -1.331  23.784  0.00  0.00    +0.023 A 
ATOM     22  C   UNL     1       4.852   0.986  22.815  0.00  0.00    +0.002 A 
ATOM     23  C   UNL     1       5.029  -1.206  23.814  0.00  0.00    +0.002 A 
ATOM     24  C   UNL     1       5.635  -0.047  23.329  0.00  0.00    +0.000 A 
ENDBRANCH   5  18
ENDBRANCH  13  15
ENDBRANCH   7  13
TORSDOF 8
ENDMDL
MODEL 2
REMARK VINA RESULT:      -4.0      1.901      6.976
REMARK  Name = 26743147
REMARK  8 active torsions:
REMARK  status: ('A' for Active; 'I' for Inactive)
REMARK    1  A    between atoms: O_3  and  C_19
REMARK    2  A    between atoms: O_3  and  C_25
REMARK    3  A    between atoms: N_5  and  C_18
REMARK    4  A    between atoms: C_7  and  C_13
REMARK    5  A    between atoms: C_8  and  C_12
REMARK    6  A    between atoms: C_12  and  C_14
REMARK    7  A    between atoms: C_13  and  C_15
REMARK    8  A    between atoms: C_17  and  C_19
REMARK                            x       y       z     vdW  Elec       q    Type
REMARK                         _______ _______ _______ _____ _____    ______ ____
ROOT
ATOM      4  N   UNL     1      -4.020   5.638  26.263  0.00  0.00    -0.316 NA
ATOM      7  C   UNL     1      -3.077   3.010  25.309  0.00  0.00    +0.004 C 
ATOM      8  C   UNL     1      -2.114   4.111  25.812  0.00  0.00    +0.012 C 
ATOM      9  C   UNL     1      -4.464   3.229  25.937  0.00  0.00    +0.019 C 
ATOM     10  C   UNL     1      -2.710   5.517  25.623  0.00  0.00    +0.085 C 
ATOM     11  C   UNL     1      -4.973   4.657  25.745  0.00  0.00    +0.081 C 
ATOM     31  H   UNL     1      -4.386   6.577  26.109  0.00  0.00    +0.122 HD
ENDROOT
BRANCH   8  12
ATOM     12  C   UNL     1      -0.725   4.028  25.178  0.00  0.00    +0.064 C 
BRANCH  12  14
ATOM      2  O   UNL     1      -0.111   0.481  25.158  0.00  0.00    -0.356 OA
ATOM      6  N   UNL     1      -0.555   1.648  25.767  0.00  0.00    -0.083 NA
ATOM     14  C   UNL     1      -0.354   2.609  24.860  0.00  0.00    +0.084 A 
ATOM     16  C   UNL     1       0.209   2.112  23.672  0.00  0.00    +0.074 A 
ATOM     17  C   UNL     1       0.341   0.769  23.911  0.00  0.00    +0.175 A 
BRANCH  17  19
ATOM     19  C   UNL     1       0.850  -0.358  23.121  0.00  0.00    +0.306 C 
BRANCH  19   3
ATOM      3  O   UNL     1       1.960   0.057  22.322  0.00  0.00    -0.484 OA
BRANCH   3  25
ATOM     25  C   UNL     1       3.201  -0.086  22.880  0.00  0.00    +0.121 A 
ATOM     26  C   UNL     1       3.572  -1.304  23.449  0.00  0.00    +0.045 A 
ATOM     27  C   UNL     1       4.094   0.985  22.880  0.00  0.00    +0.045 A 
ATOM     28  C   UNL     1       4.837  -1.450  24.019  0.00  0.00    +0.004 A 
ATOM     29  C   UNL     1       5.358   0.839  23.449  0.00  0.00    +0.004 A 
ATOM     30  C   UNL     1       5.730  -0.379  24.019  0.00  0.00    +0.000 A 
ENDBRANCH   3  25
ENDBRANCH  19   3
ENDBRANCH  17  19
ENDBRANCH  12  14
ENDBRANCH   8  12
BRANCH   7  13
ATOM     13  C   UNL     1      -3.179   2.920  23.782  0.00  0.00    +0.100 C 
BRANCH  13  15
ATOM      1  O   UNL     1      -2.881   1.217  22.105  0.00  0.00    -0.275 OA
ATOM      5  N   UNL     1      -3.312   0.600  24.331  0.00  0.00    -0.285 N 
ATOM     15  C   UNL     1      -3.101   1.489  23.280  0.00  0.00    +0.217 C 
ATOM     32  H   UNL     1      -3.482   0.994  25.253  0.00  0.00    +0.155 HD
BRANCH   5  18
ATOM     18  C   UNL     1      -3.318  -0.814  24.276  0.00  0.00    +0.033 A 
ATOM     20  C   UNL     1      -4.452  -1.489  23.825  0.00  0.00    +0.023 A 
ATOM     21  C   UNL     1      -2.190  -1.532  24.674  0.00  0.00    +0.023 A 
ATOM     22  C   UNL     1      -4.457  -2.883  23.771  0.00  0.00    +0.002 A 
ATOM     23  C   UNL     1      -2.195  -2.926  24.619  0.00  0.00    +0.002 A 
ATOM     24  C   UNL     1      -3.329  -3.602  24.168  0.00  0.00    +0.000 A 
ENDBRANCH   5  18
ENDBRANCH  13  15
ENDBRANCH   7  13
TORSDOF 8
ENDMDL
MODEL 3
REMARK VINA RESULT:      -3.6      1.459      3.044
REMARK  Name = 26743147
REMARK  8 active torsions:
REMARK  status: ('A' for Active; 'I' for Inactive)
REMARK    1  A    between atoms: O_3  and  C_19
REMARK    2  A    between atoms: O_3  and  C_25
REMARK    3  A    between atoms: N_5  and  C_18
REMARK    4  A    between atoms: C_7  and  C_13
REMARK    5  A    between atoms: C_8  and  C_12
REMARK    6  A    between atoms: C_12  and  C_14
REMARK    7  A    between atoms: C_13  and  C_15
REMARK    8  A    between atoms: C_17  and  C_19
REMARK                            x       y       z     vdW  Elec       q    Type
REMARK                         _______ _______ _______ _____ _____    ______ ____
ROOT
ATOM      4  N   UNL     1      -3.558  -1.029  25.534  0.00  0.00    -0.316 NA
ATOM      7  C   UNL     1      -0.892  -1.391  24.322  0.00  0.00    +0.004 C 
ATOM      8  C   UNL     1      -1.106  -0.659  25.668  0.00  0.00    +0.012 C 
ATOM      9  C   UNL     1      -2.064  -2.360  24.086  0.00  0.00    +0.019 C 
ATOM     10  C   UNL     1      -2.509  -0.034  25.758  0.00  0.00    +0.085 C 
ATOM     11  C   UNL     1      -3.423  -1.678  24.231  0.00  0.00    +0.081 C 
ATOM     31  H   UNL     1      -4.470  -0.577  25.592  0.00  0.00    +0.122 HD
ENDROOT
BRANCH   8  12
ATOM     12  C   UNL     1      -0.032   0.391  25.956  0.00  0.00    +0.064 C 
BRANCH  12  14
ATOM      2  O   UNL     1      -0.568   3.477  24.181  0.00  0.00    -0.356 OA
ATOM      6  N   UNL     1       0.011   2.221  24.316  0.00  0.00    -0.083 NA
ATOM     14  C   UNL     1      -0.453   1.750  25.478  0.00  0.00    +0.084 A 
ATOM     16  C   UNL     1      -1.320   2.656  26.113  0.00  0.00    +0.074 A 
ATOM     17  C   UNL     1      -1.359   3.724  25.256  0.00  0.00    +0.175 A 
BRANCH  17  19
ATOM     19  C   UNL     1      -2.053   5.017  25.275  0.00  0.00    +0.306 C 
BRANCH  19   3
ATOM      3  O   UNL     1      -3.232   4.960  24.470  0.00  0.00    -0.484 OA
BRANCH   3  25
ATOM     25  C   UNL     1      -4.053   3.884  24.665  0.00  0.00    +0.121 A 
ATOM     26  C   UNL     1      -4.883   3.834  25.785  0.00  0.00    +0.045 A 
ATOM     27  C   UNL     1      -4.060   2.835  23.745  0.00  0.00    +0.045 A 
ATOM     28  C   UNL     1      -5.719   2.737  25.986  0.00  0.00    +0.004 A 
ATOM     29  C   UNL     1      -4.896   1.738  23.945  0.00  0.00    +0.004 A 
ATOM     30  C   UNL     1      -5.727   1.688  25.066  0.00  0.00    +0.000 A 
ENDBRANCH   3  25
ENDBRANCH  19   3
ENDBRANCH  17  19
ENDBRANCH  12  14
ENDBRANCH   8  12
BRANCH   7  13
ATOM     13  C   UNL     1      -0.710  -0.453  23.123  0.00  0.00    +0.100 C 
BRANCH  13  15
ATOM      1  O   UNL     1       0.928  -0.688  21.373  0.00  0.00    -0.275 OA
ATOM      5  N   UNL     1       1.628  -0.295  23.581  0.00  0.00    -0.285 N 
ATOM     15  C   UNL     1       0.699  -0.497  22.562  0.00  0.00    +0.217 C 
ATOM     32  H   UNL     1       1.268  -0.151  24.522  0.00  0.00    +0.155 HD
BRANCH   5  18
ATOM     18  C   UNL     1       3.037  -0.264  23.469  0.00  0.00    +0.033 A 
ATOM     20  C   UNL     1       3.671   0.860  22.940  0.00  0.00    +0.023 A 
ATOM     21  C   UNL     1       3.794  -1.359  23.888  0.00  0.00    +0.023 A 
ATOM     22  C   UNL     1       5.061   0.890  22.830  0.00  0.00    +0.002 A 
ATOM     23  C   UNL     1       5.185  -1.328  23.779  0.00  0.00    +0.002 A 
ATOM     24  C   UNL     1       5.818  -0.204  23.250  0.00  0.00    +0.000 A 
ENDBRANCH   5  18
ENDBRANCH  13  15
ENDBRANCH   7  13
TORSDOF 8
ENDMDL
MODEL 4
REMARK VINA RESULT:      -2.2     17.525     19.326
REMARK  Name = 26743147
REMARK  8 active torsions:
REMARK  status: ('A' for Active; 'I' for Inactive)
REMARK    1  A    between atoms: O_3  and  C_19
REMARK    2  A    between atoms: O_3  and  C_25
REMARK    3  A    between atoms: N_5  and  C_18
REMARK    4  A    between atoms: C_7  and  C_13
REMARK    5  A    between atoms: C_8  and  C_12
REMARK    6  A    between atoms: C_12  and  C_14
REMARK    7  A    between atoms: C_13  and  C_15
REMARK    8  A    between atoms: C_17  and  C_19
REMARK                            x       y       z     vdW  Elec       q    Type
REMARK                         _______ _______ _______ _____ _____    ______ ____
ROOT
ATOM      4  N   UNL     1      12.947  -6.318  29.929  0.00  0.00    -0.316 NA
ATOM      7  C   UNL     1      14.751  -7.105  32.128  0.00  0.00    +0.004 C 
ATOM      8  C   UNL     1      15.093  -5.973  31.130  0.00  0.00    +0.012 C 
ATOM      9  C   UNL     1      13.223  -7.274  32.191  0.00  0.00    +0.019 C 
ATOM     10  C   UNL     1      14.395  -6.181  29.775  0.00  0.00    +0.085 C 
ATOM     11  C   UNL     1      12.596  -7.434  30.806  0.00  0.00    +0.081 C 
ATOM     31  H   UNL     1      12.522  -6.462  29.014  0.00  0.00    +0.122 HD
ENDROOT
BRANCH   8  12
ATOM     12  C   UNL     1      16.598  -5.782  30.934  0.00  0.00    +0.064 C 
BRANCH  12  14
ATOM      2  O   UNL     1      17.405  -4.674  27.606  0.00  0.00    -0.356 OA
ATOM      6  N   UNL     1      17.197  -5.667  28.553  0.00  0.00    -0.083 NA
ATOM     14  C   UNL     1      16.893  -5.014  29.679  0.00  0.00    +0.084 A 
ATOM     16  C   UNL     1      16.895  -3.619  29.503  0.00  0.00    +0.074 A 
ATOM     17  C   UNL     1      17.222  -3.458  28.182  0.00  0.00    +0.175 A 
BRANCH  17  19
ATOM     19  C   UNL     1      17.405  -2.287  27.316  0.00  0.00    +0.306 C 
BRANCH  19   3
ATOM      3  O   UNL     1      16.333  -2.194  26.375  0.00  0.00    -0.484 OA
BRANCH   3  25
ATOM     25  C   UNL     1      16.681  -2.193  25.053  0.00  0.00    +0.121 A 
ATOM     26  C   UNL     1      16.891  -0.984  24.389  0.00  0.00    +0.045 A 
ATOM     27  C   UNL     1      16.825  -3.399  24.367  0.00  0.00    +0.045 A 
ATOM     28  C   UNL     1      17.245  -0.981  23.040  0.00  0.00    +0.004 A 
ATOM     29  C   UNL     1      17.179  -3.396  23.019  0.00  0.00    +0.004 A 
ATOM     30  C   UNL     1      17.390  -2.187  22.355  0.00  0.00    +0.000 A 
ENDBRANCH   3  25
ENDBRANCH  19   3
ENDBRANCH  17  19
ENDBRANCH  12  14
ENDBRANCH   8  12
BRANCH   7  13
ATOM     13  C   UNL     1      15.434  -8.441  31.816  0.00  0.00    +0.100 C 
BRANCH  13  15
ATOM      1  O   UNL     1      14.027  -9.675  30.301  0.00  0.00    -0.275 OA
ATOM      5  N   UNL     1      15.958  -8.610  29.492  0.00  0.00    -0.285 N 
ATOM     15  C   UNL     1      15.033  -8.994  30.460  0.00  0.00    +0.217 C 
ATOM     32  H   UNL     1      16.744  -8.039  29.794  0.00  0.00    +0.155 HD
BRANCH   5  18
ATOM     18  C   UNL     1      15.941  -8.920  28.112  0.00  0.00    +0.033 A 
ATOM     20  C   UNL     1      16.422 -10.153  27.668  0.00  0.00    +0.023 A 
ATOM     21  C   UNL     1      15.445  -7.994  27.195  0.00  0.00    +0.023 A 
ATOM     22  C   UNL     1      16.405 -10.458  26.307  0.00  0.00    +0.002 A 
ATOM     23  C   UNL     1      15.427  -8.300  25.834  0.00  0.00    +0.002 A 
ATOM     24  C   UNL     1      15.908  -9.532  25.390  0.00  0.00    +0.000 A 
ENDBRANCH   5  18
ENDBRANCH  13  15
ENDBRANCH   7  13
TORSDOF 8
ENDMDL
MODEL 5
REMARK VINA RESULT:      -1.7      2.103      4.888
REMARK  Name = 26743147
REMARK  8 active torsions:
REMARK  status: ('A' for Active; 'I' for Inactive)
REMARK    1  A    between atoms: O_3  and  C_19
REMARK    2  A    between atoms: O_3  and  C_25
REMARK    3  A    between atoms: N_5  and  C_18
REMARK    4  A    between atoms: C_7  and  C_13
REMARK    5  A    between atoms: C_8  and  C_12
REMARK    6  A    between atoms: C_12  and  C_14
REMARK    7  A    between atoms: C_13  and  C_15
REMARK    8  A    between atoms: C_17  and  C_19
REMARK                            x       y       z     vdW  Elec       q    Type
REMARK                         _______ _______ _______ _____ _____    ______ ____
ROOT
ATOM      4  N   UNL     1      -4.888   4.214  25.729  0.00  0.00    -0.316 NA
ATOM      7  C   UNL     1      -2.066   3.720  25.023  0.00  0.00    +0.004 C 
ATOM      8  C   UNL     1      -3.235   3.415  24.057  0.00  0.00    +0.012 C 
ATOM      9  C   UNL     1      -2.507   4.807  26.018  0.00  0.00    +0.019 C 
ATOM     10  C   UNL     1      -4.540   3.123  24.818  0.00  0.00    +0.085 C 
ATOM     11  C   UNL     1      -3.829   4.468  26.704  0.00  0.00    +0.081 C 
ATOM     31  H   UNL     1      -5.750   3.982  26.220  0.00  0.00    +0.122 HD
ENDROOT
BRANCH   8  12
ATOM     12  C   UNL     1      -2.922   2.284  23.076  0.00  0.00    +0.064 C 
BRANCH  12  14
ATOM      2  O   UNL     1      -4.973  -0.289  24.538  0.00  0.00    -0.356 OA
ATOM      6  N   UNL     1      -4.546   1.028  24.428  0.00  0.00    -0.083 NA
ATOM     14  C   UNL     1      -3.614   1.011  23.470  0.00  0.00    +0.084 A 
ATOM     16  C   UNL     1      -3.414  -0.277  22.944  0.00  0.00    +0.074 A 
ATOM     17  C   UNL     1      -4.293  -1.056  23.649  0.00  0.00    +0.175 A 
BRANCH  17  19
ATOM     19  C   UNL     1      -4.622  -2.487  23.630  0.00  0.00    +0.306 C 
BRANCH  19   3
ATOM      3  O   UNL     1      -3.705  -3.218  24.447  0.00  0.00    -0.484 OA
BRANCH   3  25
ATOM     25  C   UNL     1      -2.715  -2.494  25.051  0.00  0.00    +0.121 A 
ATOM     26  C   UNL     1      -3.011  -1.691  26.152  0.00  0.00    +0.045 A 
ATOM     27  C   UNL     1      -1.408  -2.559  24.566  0.00  0.00    +0.045 A 
ATOM     28  C   UNL     1      -2.001  -0.951  26.768  0.00  0.00    +0.004 A 
ATOM     29  C   UNL     1      -0.399  -1.821  25.182  0.00  0.00    +0.004 A 
ATOM     30  C   UNL     1      -0.695  -1.016  26.283  0.00  0.00    +0.000 A 
ENDBRANCH   3  25
ENDBRANCH  19   3
ENDBRANCH  17  19
ENDBRANCH  12  14
ENDBRANCH   8  12
BRANCH   7  13
ATOM     13  C   UNL     1      -1.530   2.489  25.763  0.00  0.00    +0.100 C 
BRANCH  13  15
ATOM      1  O   UNL     1       0.860   2.415  26.054  0.00  0.00    -0.275 OA
ATOM      5  N   UNL     1      -0.109   1.497  24.120  0.00  0.00    -0.285 N 
ATOM     15  C   UNL     1      -0.110   2.141  25.355  0.00  0.00    +0.217 C 
ATOM     32  H   UNL     1      -1.009   1.346  23.669  0.00  0.00    +0.155 HD
BRANCH   5  18
ATOM     18  C   UNL     1       1.009   1.014  23.400  0.00  0.00    +0.033 A 
ATOM     20  C   UNL     1       0.867  -0.075  22.540  0.00  0.00    +0.023 A 
ATOM     21  C   UNL     1       2.252   1.629  23.549  0.00  0.00    +0.023 A 
ATOM     22  C   UNL     1       1.970  -0.551  21.831  0.00  0.00    +0.002 A 
ATOM     23  C   UNL     1       3.355   1.153  22.838  0.00  0.00    +0.002 A 
ATOM     24  C   UNL     1       3.214   0.064  21.979  0.00  0.00    +0.000 A 
ENDBRANCH   5  18
ENDBRANCH  13  15
ENDBRANCH   7  13
TORSDOF 8
ENDMDL
MODEL 6
REMARK VINA RESULT:      -1.5      2.050      6.304
REMARK  Name = 26743147
REMARK  8 active torsions:
REMARK  status: ('A' for Active; 'I' for Inactive)
REMARK    1  A    between atoms: O_3  and  C_19
REMARK    2  A    between atoms: O_3  and  C_25
REMARK    3  A    between atoms: N_5  and  C_18
REMARK    4  A    between atoms: C_7  and  C_13
REMARK    5  A    between atoms: C_8  and  C_12
REMARK    6  A    between atoms: C_12  and  C_14
REMARK    7  A    between atoms: C_13  and  C_15
REMARK    8  A    between atoms: C_17  and  C_19
REMARK                            x       y       z     vdW  Elec       q    Type
REMARK                         _______ _______ _______ _____ _____    ______ ____
ROOT
ATOM      4  N   UNL     1      -6.890   4.021  25.789  0.00  0.00    -0.316 NA
ATOM      7  C   UNL     1      -4.185   2.889  25.458  0.00  0.00    +0.004 C 
ATOM      8  C   UNL     1      -4.440   4.273  26.100  0.00  0.00    +0.012 C 
ATOM      9  C   UNL     1      -5.447   2.023  25.617  0.00  0.00    +0.019 C 
ATOM     10  C   UNL     1      -5.744   4.907  25.586  0.00  0.00    +0.085 C 
ATOM     11  C   UNL     1      -6.707   2.732  25.123  0.00  0.00    +0.081 C 
ATOM     31  H   UNL     1      -7.732   4.469  25.429  0.00  0.00    +0.122 HD
ENDROOT
BRANCH   8  12
ATOM     12  C   UNL     1      -3.267   5.240  25.922  0.00  0.00    +0.064 C 
BRANCH  12  14
ATOM      2  O   UNL     1      -0.105   4.142  24.598  0.00  0.00    -0.356 OA
ATOM      6  N   UNL     1      -1.136   5.066  24.710  0.00  0.00    -0.083 NA
ATOM     14  C   UNL     1      -2.007   4.510  25.558  0.00  0.00    +0.084 A 
ATOM     16  C   UNL     1      -1.582   3.249  26.009  0.00  0.00    +0.074 A 
ATOM     17  C   UNL     1      -0.380   3.065  25.377  0.00  0.00    +0.175 A 
BRANCH  17  19
ATOM     19  C   UNL     1       0.613   1.984  25.377  0.00  0.00    +0.306 C 
BRANCH  19   3
ATOM      3  O   UNL     1       0.248   0.974  24.434  0.00  0.00    -0.484 OA
BRANCH   3  25
ATOM     25  C   UNL     1       1.185   0.650  23.493  0.00  0.00    +0.121 A 
ATOM     26  C   UNL     1       0.860  -0.229  22.460  0.00  0.00    +0.045 A 
ATOM     27  C   UNL     1       2.465   1.198  23.565  0.00  0.00    +0.045 A 
ATOM     28  C   UNL     1       1.816  -0.560  21.499  0.00  0.00    +0.004 A 
ATOM     29  C   UNL     1       3.421   0.867  22.606  0.00  0.00    +0.004 A 
ATOM     30  C   UNL     1       3.096  -0.012  21.572  0.00  0.00    +0.000 A 
ENDBRANCH   3  25
ENDBRANCH  19   3
ENDBRANCH  17  19
ENDBRANCH  12  14
ENDBRANCH   8  12
BRANCH   7  13
ATOM     13  C   UNL     1      -3.748   2.951  23.990  0.00  0.00    +0.100 C 
BRANCH  13  15
ATOM      1  O   UNL     1      -2.692   1.491  22.392  0.00  0.00    -0.275 OA
ATOM      5  N   UNL     1      -3.521   0.611  24.407  0.00  0.00    -0.285 N 
ATOM     15  C   UNL     1      -3.249   1.612  23.478  0.00  0.00    +0.217 C 
ATOM     32  H   UNL     1      -3.994   0.883  25.265  0.00  0.00    +0.155 HD
BRANCH   5  18
ATOM     18  C   UNL     1      -3.216  -0.767  24.304  0.00  0.00    +0.033 A 
ATOM     20  C   UNL     1      -1.928  -1.219  24.588  0.00  0.00    +0.023 A 
ATOM     21  C   UNL     1      -4.205  -1.673  23.918  0.00  0.00    +0.023 A 
ATOM     22  C   UNL     1      -1.628  -2.578  24.487  0.00  0.00    +0.002 A 
ATOM     23  C   UNL     1      -3.904  -3.032  23.817  0.00  0.00    +0.002 A 
ATOM     24  C   UNL     1      -2.616  -3.484  24.101  0.00  0.00    +0.000 A 
ENDBRANCH   5  18
ENDBRANCH  13  15
ENDBRANCH   7  13
TORSDOF 8
ENDMDL
