MODEL 1
REMARK VINA RESULT:       1.1      0.000      0.000
REMARK  Name = 51136643
REMARK  11 active torsions:
REMARK  status: ('A' for Active; 'I' for Inactive)
REMARK    1  A    between atoms: S_1  and  N_9
REMARK    2  A    between atoms: S_1  and  C_21
REMARK    3  A    between atoms: O_5  and  C_20
REMARK    4  A    between atoms: O_7  and  C_28
REMARK    5  A    between atoms: O_7  and  C_32
REMARK    6  A    between atoms: O_8  and  C_29
REMARK    7  A    between atoms: O_8  and  C_33
REMARK    8  A    between atoms: C_11  and  C_16
REMARK    9  A    between atoms: C_12  and  C_17
REMARK   10  A    between atoms: C_16  and  C_18
REMARK   11  A    between atoms: C_17  and  C_20
REMARK                            x       y       z     vdW  Elec       q    Type
REMARK                         _______ _______ _______ _____ _____    ______ ____
ROOT
ATOM      9  N   UNL     1       1.287  -0.153  23.510  0.00  0.00    -0.176 NA
ATOM     11  C   UNL     1      -1.074   0.030  24.261  0.00  0.00    +0.014 C 
ATOM     12  C   UNL     1      -1.073  -1.488  24.563  0.00  0.00    +0.006 C 
ATOM     13  C   UNL     1      -0.072   0.340  23.137  0.00  0.00    +0.113 C 
ATOM     14  C   UNL     1       0.346  -2.003  24.843  0.00  0.00    +0.021 C 
ATOM     15  C   UNL     1       1.308  -1.629  23.721  0.00  0.00    +0.110 C 
ENDROOT
BRANCH   9   1
ATOM      1  S   UNL     1       2.577   0.472  22.569  0.00  0.00    +0.067 S 
ATOM      3  O   UNL     1       2.715   1.886  22.840  0.00  0.00    -0.152 OA
ATOM      4  O   UNL     1       2.451  -0.021  21.215  0.00  0.00    -0.152 OA
BRANCH   1  21
ATOM      2  S   UNL     1       5.345   0.597  23.517  0.00  0.00    -0.077 S 
ATOM     21  C   UNL     1       3.939  -0.360  23.325  0.00  0.00    +0.143 A 
ATOM     26  C   UNL     1       4.116  -1.640  23.800  0.00  0.00    +0.036 A 
ATOM     30  C   UNL     1       5.423  -1.838  24.331  0.00  0.00    +0.010 A 
ATOM     31  C   UNL     1       6.196  -0.701  24.240  0.00  0.00    +0.047 A 
ENDBRANCH   1  21
ENDBRANCH   9   1
BRANCH  11  16
ATOM     16  C   UNL     1      -0.799   0.912  25.486  0.00  0.00    +0.060 C 
BRANCH  16  18
ATOM     10  N   UNL     1      -0.117   3.112  24.806  0.00  0.00    -0.287 NA
ATOM     18  C   UNL     1      -1.102   2.354  25.158  0.00  0.00    +0.044 C 
ATOM     19  C   UNL     1      -2.505   2.831  25.261  0.00  0.00    +0.003 A 
ATOM     22  C   UNL     1      -2.697   4.217  25.334  0.00  0.00    -0.033 A 
ATOM     23  C   UNL     1      -1.493   5.113  25.319  0.00  0.00    +0.059 C 
ATOM     24  C   UNL     1      -0.420   4.497  24.430  0.00  0.00    +0.146 C 
ATOM     25  C   UNL     1      -3.598   1.963  25.301  0.00  0.00    +0.059 A 
ATOM     27  C   UNL     1      -3.989   4.729  25.473  0.00  0.00    +0.053 A 
ATOM     28  C   UNL     1      -4.886   2.485  25.424  0.00  0.00    +0.162 A 
ATOM     29  C   UNL     1      -5.082   3.863  25.513  0.00  0.00    +0.162 A 
BRANCH  28   7
ATOM      7  O   UNL     1      -5.950   1.633  25.460  0.00  0.00    -0.491 OA
ATOM     32  C   UNL     1      -6.522   1.365  26.738  0.00  0.00    +0.277 C 
ENDBRANCH  28   7
BRANCH  29   8
ATOM      8  O   UNL     1      -6.337   4.376  25.641  0.00  0.00    -0.491 OA
ATOM     33  C   UNL     1      -6.530   5.729  25.229  0.00  0.00    +0.277 C 
ENDBRANCH  29   8
ENDBRANCH  16  18
ENDBRANCH  11  16
BRANCH  12  17
ATOM     17  C   UNL     1      -2.022  -1.876  25.697  0.00  0.00    +0.124 C 
BRANCH  17  20
ATOM      6  O   UNL     1      -3.890  -2.928  24.536  0.00  0.00    -0.251 OA
ATOM     20  C   UNL     1      -3.438  -2.016  25.212  0.00  0.00    +0.305 C 
BRANCH  20   5
ATOM      5  O   UNL     1      -4.175  -0.957  25.638  0.00  0.00    -0.481 OA
ATOM     34  H   UNL     1      -4.527  -0.431  24.890  0.00  0.00    +0.295 HD
ENDBRANCH  20   5
ENDBRANCH  17  20
ENDBRANCH  12  17
TORSDOF 9
ENDMDL
MODEL 2
REMARK VINA RESULT:       2.2      2.450      5.239
REMARK  Name = 51136643
REMARK  11 active torsions:
REMARK  status: ('A' for Active; 'I' for Inactive)
REMARK    1  A    between atoms: S_1  and  N_9
REMARK    2  A    between atoms: S_1  and  C_21
REMARK    3  A    between atoms: O_5  and  C_20
REMARK    4  A    between atoms: O_7  and  C_28
REMARK    5  A    between atoms: O_7  and  C_32
REMARK    6  A    between atoms: O_8  and  C_29
REMARK    7  A    between atoms: O_8  and  C_33
REMARK    8  A    between atoms: C_11  and  C_16
REMARK    9  A    between atoms: C_12  and  C_17
REMARK   10  A    between atoms: C_16  and  C_18
REMARK   11  A    between atoms: C_17  and  C_20
REMARK                            x       y       z     vdW  Elec       q    Type
REMARK                         _______ _______ _______ _____ _____    ______ ____
ROOT
ATOM      9  N   UNL     1      -1.239  -0.367  24.949  0.00  0.00    -0.176 NA
ATOM     11  C   UNL     1       0.533   1.240  24.276  0.00  0.00    +0.014 C 
ATOM     12  C   UNL     1       1.355   0.060  23.705  0.00  0.00    +0.006 C 
ATOM     13  C   UNL     1      -0.363   0.745  25.424  0.00  0.00    +0.113 C 
ATOM     14  C   UNL     1       0.451  -1.118  23.316  0.00  0.00    +0.021 C 
ATOM     15  C   UNL     1      -0.449  -1.538  24.474  0.00  0.00    +0.110 C 
ENDROOT
BRANCH   9   1
ATOM      1  S   UNL     1      -2.565  -0.742  25.969  0.00  0.00    +0.067 S 
ATOM      3  O   UNL     1      -3.435   0.411  26.055  0.00  0.00    -0.152 OA
ATOM      4  O   UNL     1      -2.069  -1.393  27.162  0.00  0.00    -0.152 OA
BRANCH   1  21
ATOM      2  S   UNL     1      -4.342  -1.330  23.718  0.00  0.00    -0.077 S 
ATOM     21  C   UNL     1      -3.376  -1.961  24.982  0.00  0.00    +0.143 A 
ATOM     26  C   UNL     1      -3.400  -3.337  25.015  0.00  0.00    +0.036 A 
ATOM     30  C   UNL     1      -4.221  -3.883  23.986  0.00  0.00    +0.010 A 
ATOM     31  C   UNL     1      -4.794  -2.901  23.207  0.00  0.00    +0.047 A 
ENDBRANCH   1  21
ENDBRANCH   9   1
BRANCH  11  16
ATOM     16  C   UNL     1      -0.300   1.988  23.227  0.00  0.00    +0.060 C 
BRANCH  16  18
ATOM     10  N   UNL     1       0.101   4.277  23.836  0.00  0.00    -0.287 NA
ATOM     18  C   UNL     1      -0.759   3.314  23.787  0.00  0.00    +0.044 C 
ATOM     19  C   UNL     1      -2.162   3.444  24.257  0.00  0.00    +0.003 A 
ATOM     22  C   UNL     1      -2.445   4.521  25.107  0.00  0.00    -0.033 A 
ATOM     23  C   UNL     1      -1.330   5.448  25.491  0.00  0.00    +0.059 C 
ATOM     24  C   UNL     1      -0.361   5.581  24.323  0.00  0.00    +0.146 C 
ATOM     25  C   UNL     1      -3.166   2.543  23.898  0.00  0.00    +0.059 A 
ATOM     27  C   UNL     1      -3.737   4.677  25.616  0.00  0.00    +0.053 A 
ATOM     28  C   UNL     1      -4.456   2.716  24.399  0.00  0.00    +0.162 A 
ATOM     29  C   UNL     1      -4.741   3.778  25.258  0.00  0.00    +0.162 A 
BRANCH  28   7
ATOM      7  O   UNL     1      -5.434   1.835  24.044  0.00  0.00    -0.491 OA
ATOM     32  C   UNL     1      -6.385   1.484  25.047  0.00  0.00    +0.277 C 
ENDBRANCH  28   7
BRANCH  29   8
ATOM      8  O   UNL     1      -5.997   3.947  25.756  0.00  0.00    -0.491 OA
ATOM     33  C   UNL     1      -6.581   5.241  25.620  0.00  0.00    +0.277 C 
ENDBRANCH  29   8
ENDBRANCH  16  18
ENDBRANCH  11  16
BRANCH  12  17
ATOM     17  C   UNL     1       2.250   0.463  22.533  0.00  0.00    +0.124 C 
BRANCH  17  20
ATOM      6  O   UNL     1       4.578   1.171  22.670  0.00  0.00    -0.251 OA
ATOM     20  C   UNL     1       3.708   0.340  22.879  0.00  0.00    +0.305 C 
BRANCH  20   5
ATOM      5  O   UNL     1       3.937  -0.859  23.474  0.00  0.00    -0.481 OA
ATOM     34  H   UNL     1       3.584  -0.888  24.389  0.00  0.00    +0.295 HD
ENDBRANCH  20   5
ENDBRANCH  17  20
ENDBRANCH  12  17
TORSDOF 9
ENDMDL
MODEL 3
REMARK VINA RESULT:       3.9     15.213     17.888
REMARK  Name = 51136643
REMARK  11 active torsions:
REMARK  status: ('A' for Active; 'I' for Inactive)
REMARK    1  A    between atoms: S_1  and  N_9
REMARK    2  A    between atoms: S_1  and  C_21
REMARK    3  A    between atoms: O_5  and  C_20
REMARK    4  A    between atoms: O_7  and  C_28
REMARK    5  A    between atoms: O_7  and  C_32
REMARK    6  A    between atoms: O_8  and  C_29
REMARK    7  A    between atoms: O_8  and  C_33
REMARK    8  A    between atoms: C_11  and  C_16
REMARK    9  A    between atoms: C_12  and  C_17
REMARK   10  A    between atoms: C_16  and  C_18
REMARK   11  A    between atoms: C_17  and  C_20
REMARK                            x       y       z     vdW  Elec       q    Type
REMARK                         _______ _______ _______ _____ _____    ______ ____
ROOT
ATOM      9  N   UNL     1      -6.049  -8.676   9.984  0.00  0.00    -0.176 NA
ATOM     11  C   UNL     1      -3.841  -9.780  10.266  0.00  0.00    +0.014 C 
ATOM     12  C   UNL     1      -3.274  -8.454  10.826  0.00  0.00    +0.006 C 
ATOM     13  C   UNL     1      -4.999  -9.486   9.298  0.00  0.00    +0.113 C 
ATOM     14  C   UNL     1      -4.381  -7.583  11.436  0.00  0.00    +0.021 C 
ATOM     15  C   UNL     1      -5.524  -7.361  10.452  0.00  0.00    +0.110 C 
ENDROOT
BRANCH   9   1
ATOM      1  S   UNL     1      -7.566  -8.619   9.188  0.00  0.00    +0.067 S 
ATOM      3  O   UNL     1      -7.609  -9.655   8.179  0.00  0.00    -0.152 OA
ATOM      4  O   UNL     1      -7.872  -7.243   8.859  0.00  0.00    -0.152 OA
BRANCH   1  21
ATOM      2  S   UNL     1     -10.286  -8.776  10.261  0.00  0.00    -0.077 S 
ATOM     21  C   UNL     1      -8.626  -9.109  10.512  0.00  0.00    +0.143 A 
ATOM     26  C   UNL     1      -8.398  -9.712  11.730  0.00  0.00    +0.036 A 
ATOM     30  C   UNL     1      -9.603  -9.905  12.465  0.00  0.00    +0.010 A 
ATOM     31  C   UNL     1     -10.705  -9.441  11.782  0.00  0.00    +0.047 A 
ENDBRANCH   1  21
ENDBRANCH   9   1
BRANCH  11  16
ATOM     16  C   UNL     1      -4.283 -10.777  11.346  0.00  0.00    +0.060 C 
BRANCH  16  18
ATOM     10  N   UNL     1      -2.252 -10.475  12.593  0.00  0.00    -0.287 NA
ATOM     18  C   UNL     1      -3.544 -10.500  12.633  0.00  0.00    +0.044 C 
ATOM     19  C   UNL     1      -4.329 -10.279  13.874  0.00  0.00    +0.003 A 
ATOM     22  C   UNL     1      -3.642 -10.412  15.088  0.00  0.00    -0.033 A 
ATOM     23  C   UNL     1      -2.187 -10.778  15.055  0.00  0.00    +0.059 C 
ATOM     24  C   UNL     1      -1.537 -10.146  13.831  0.00  0.00    +0.146 C 
ATOM     25  C   UNL     1      -5.690  -9.968  13.863  0.00  0.00    +0.059 A 
ATOM     27  C   UNL     1      -4.332 -10.257  16.293  0.00  0.00    +0.053 A 
ATOM     28  C   UNL     1      -6.366  -9.799  15.071  0.00  0.00    +0.162 A 
ATOM     29  C   UNL     1      -5.691  -9.946  16.283  0.00  0.00    +0.162 A 
BRANCH  28   7
ATOM      7  O   UNL     1      -7.695  -9.493  15.055  0.00  0.00    -0.491 OA
ATOM     32  C   UNL     1      -8.580 -10.419  15.680  0.00  0.00    +0.277 C 
ENDBRANCH  28   7
BRANCH  29   8
ATOM      8  O   UNL     1      -6.350  -9.789  17.465  0.00  0.00    -0.491 OA
ATOM     33  C   UNL     1      -6.119 -10.774  18.471  0.00  0.00    +0.277 C 
ENDBRANCH  29   8
ENDBRANCH  16  18
ENDBRANCH  11  16
BRANCH  12  17
ATOM     17  C   UNL     1      -2.137  -8.661  11.827  0.00  0.00    +0.124 C 
BRANCH  17  20
ATOM      6  O   UNL     1       0.242  -8.148  11.684  0.00  0.00    -0.251 OA
ATOM     20  C   UNL     1      -0.790  -8.551  11.168  0.00  0.00    +0.305 C 
BRANCH  20   5
ATOM      5  O   UNL     1      -0.875  -8.972   9.880  0.00  0.00    -0.481 OA
ATOM     34  H   UNL     1      -0.007  -9.270   9.534  0.00  0.00    +0.295 HD
ENDBRANCH  20   5
ENDBRANCH  17  20
ENDBRANCH  12  17
TORSDOF 9
ENDMDL
MODEL 4
REMARK VINA RESULT:       4.9      2.585      5.470
REMARK  Name = 51136643
REMARK  11 active torsions:
REMARK  status: ('A' for Active; 'I' for Inactive)
REMARK    1  A    between atoms: S_1  and  N_9
REMARK    2  A    between atoms: S_1  and  C_21
REMARK    3  A    between atoms: O_5  and  C_20
REMARK    4  A    between atoms: O_7  and  C_28
REMARK    5  A    between atoms: O_7  and  C_32
REMARK    6  A    between atoms: O_8  and  C_29
REMARK    7  A    between atoms: O_8  and  C_33
REMARK    8  A    between atoms: C_11  and  C_16
REMARK    9  A    between atoms: C_12  and  C_17
REMARK   10  A    between atoms: C_16  and  C_18
REMARK   11  A    between atoms: C_17  and  C_20
REMARK                            x       y       z     vdW  Elec       q    Type
REMARK                         _______ _______ _______ _____ _____    ______ ____
ROOT
ATOM      9  N   UNL     1      -0.823  -1.641  23.638  0.00  0.00    -0.176 NA
ATOM     11  C   UNL     1       1.024   0.009  23.837  0.00  0.00    +0.014 C 
ATOM     12  C   UNL     1       1.732  -0.672  22.641  0.00  0.00    +0.006 C 
ATOM     13  C   UNL     1       0.152  -1.017  24.581  0.00  0.00    +0.113 C 
ATOM     14  C   UNL     1       0.727  -1.399  21.735  0.00  0.00    +0.021 C 
ATOM     15  C   UNL     1      -0.142  -2.367  22.528  0.00  0.00    +0.110 C 
ENDROOT
BRANCH   9   1
ATOM      1  S   UNL     1      -2.121  -2.482  24.377  0.00  0.00    +0.067 S 
ATOM      3  O   UNL     1      -1.723  -2.889  25.707  0.00  0.00    -0.152 OA
ATOM      4  O   UNL     1      -2.659  -3.438  23.434  0.00  0.00    -0.152 OA
BRANCH   1  21
ATOM      2  S   UNL     1      -3.610  -0.691  26.152  0.00  0.00    -0.077 S 
ATOM     21  C   UNL     1      -3.287  -1.166  24.540  0.00  0.00    +0.143 A 
ATOM     26  C   UNL     1      -4.007  -0.426  23.628  0.00  0.00    +0.036 A 
ATOM     30  C   UNL     1      -4.834   0.546  24.262  0.00  0.00    +0.010 A 
ATOM     31  C   UNL     1      -4.715   0.510  25.634  0.00  0.00    +0.047 A 
ENDBRANCH   1  21
ENDBRANCH   9   1
BRANCH  11  16
ATOM     16  C   UNL     1       0.197   1.243  23.456  0.00  0.00    +0.060 C 
BRANCH  16  18
ATOM     10  N   UNL     1       0.825   2.145  25.592  0.00  0.00    -0.287 NA
ATOM     18  C   UNL     1      -0.095   2.065  24.689  0.00  0.00    +0.044 C 
ATOM     19  C   UNL     1      -1.418   2.731  24.806  0.00  0.00    +0.003 A 
ATOM     22  C   UNL     1      -1.803   3.147  26.087  0.00  0.00    -0.033 A 
ATOM     23  C   UNL     1      -0.878   2.884  27.239  0.00  0.00    +0.059 C 
ATOM     24  C   UNL     1       0.564   2.993  26.760  0.00  0.00    +0.146 C 
ATOM     25  C   UNL     1      -2.262   2.933  23.713  0.00  0.00    +0.059 A 
ATOM     27  C   UNL     1      -3.053   3.744  26.273  0.00  0.00    +0.053 A 
ATOM     28  C   UNL     1      -3.501   3.544  23.906  0.00  0.00    +0.162 A 
ATOM     29  C   UNL     1      -3.898   3.946  25.182  0.00  0.00    +0.162 A 
BRANCH  28   7
ATOM      7  O   UNL     1      -4.322   3.740  22.835  0.00  0.00    -0.491 OA
ATOM     32  C   UNL     1      -3.859   3.277  21.569  0.00  0.00    +0.277 C 
ENDBRANCH  28   7
BRANCH  29   8
ATOM      8  O   UNL     1      -5.110   4.536  25.375  0.00  0.00    -0.491 OA
ATOM     33  C   UNL     1      -6.194   3.685  25.746  0.00  0.00    +0.277 C 
ENDBRANCH  29   8
ENDBRANCH  16  18
ENDBRANCH  11  16
BRANCH  12  17
ATOM     17  C   UNL     1       2.595   0.291  21.826  0.00  0.00    +0.124 C 
BRANCH  17  20
ATOM      6  O   UNL     1       4.721   0.136  23.009  0.00  0.00    -0.251 OA
ATOM     20  C   UNL     1       3.767   0.795  22.622  0.00  0.00    +0.305 C 
BRANCH  20   5
ATOM      5  O   UNL     1       3.621   2.123  22.863  0.00  0.00    -0.481 OA
ATOM     34  H   UNL     1       4.010   2.384  23.724  0.00  0.00    +0.295 HD
ENDBRANCH  20   5
ENDBRANCH  17  20
ENDBRANCH  12  17
TORSDOF 9
ENDMDL
MODEL 5
REMARK VINA RESULT:       4.9      2.738      7.169
REMARK  Name = 51136643
REMARK  11 active torsions:
REMARK  status: ('A' for Active; 'I' for Inactive)
REMARK    1  A    between atoms: S_1  and  N_9
REMARK    2  A    between atoms: S_1  and  C_21
REMARK    3  A    between atoms: O_5  and  C_20
REMARK    4  A    between atoms: O_7  and  C_28
REMARK    5  A    between atoms: O_7  and  C_32
REMARK    6  A    between atoms: O_8  and  C_29
REMARK    7  A    between atoms: O_8  and  C_33
REMARK    8  A    between atoms: C_11  and  C_16
REMARK    9  A    between atoms: C_12  and  C_17
REMARK   10  A    between atoms: C_16  and  C_18
REMARK   11  A    between atoms: C_17  and  C_20
REMARK                            x       y       z     vdW  Elec       q    Type
REMARK                         _______ _______ _______ _____ _____    ______ ____
ROOT
ATOM      9  N   UNL     1      -4.914   1.818  25.174  0.00  0.00    -0.176 NA
ATOM     11  C   UNL     1      -3.472  -0.206  25.182  0.00  0.00    +0.014 C 
ATOM     12  C   UNL     1      -4.662  -1.029  24.635  0.00  0.00    +0.006 C 
ATOM     13  C   UNL     1      -3.993   0.985  26.004  0.00  0.00    +0.113 C 
ATOM     14  C   UNL     1      -5.655  -0.141  23.872  0.00  0.00    +0.021 C 
ATOM     15  C   UNL     1      -6.104   1.048  24.714  0.00  0.00    +0.110 C 
ENDROOT
BRANCH   9   1
ATOM      1  S   UNL     1      -5.246   3.381  25.795  0.00  0.00    +0.067 S 
ATOM      3  O   UNL     1      -5.349   3.304  27.236  0.00  0.00    -0.152 OA
ATOM      4  O   UNL     1      -6.294   3.987  25.003  0.00  0.00    -0.152 OA
BRANCH   1  21
ATOM      2  S   UNL     1      -3.235   4.041  23.772  0.00  0.00    -0.077 S 
ATOM     21  C   UNL     1      -3.729   4.195  25.403  0.00  0.00    +0.143 A 
ATOM     26  C   UNL     1      -2.840   4.942  26.145  0.00  0.00    +0.036 A 
ATOM     30  C   UNL     1      -1.739   5.395  25.363  0.00  0.00    +0.010 A 
ATOM     31  C   UNL     1      -1.828   4.977  24.053  0.00  0.00    +0.047 A 
ENDBRANCH   1  21
ENDBRANCH   9   1
BRANCH  11  16
ATOM     16  C   UNL     1      -2.494   0.274  24.102  0.00  0.00    +0.060 C 
BRANCH  16  18
ATOM     10  N   UNL     1      -1.503   1.578  25.859  0.00  0.00    -0.287 NA
ATOM     18  C   UNL     1      -1.307   0.949  24.747  0.00  0.00    +0.044 C 
ATOM     19  C   UNL     1       0.015   0.866  24.076  0.00  0.00    +0.003 A 
ATOM     22  C   UNL     1       0.983   1.798  24.471  0.00  0.00    -0.033 A 
ATOM     23  C   UNL     1       0.623   2.812  25.516  0.00  0.00    +0.059 C 
ATOM     24  C   UNL     1      -0.340   2.183  26.515  0.00  0.00    +0.146 C 
ATOM     25  C   UNL     1       0.302  -0.076  23.087  0.00  0.00    +0.059 A 
ATOM     27  C   UNL     1       2.235   1.799  23.850  0.00  0.00    +0.053 A 
ATOM     28  C   UNL     1       1.560  -0.078  22.484  0.00  0.00    +0.162 A 
ATOM     29  C   UNL     1       2.523   0.859  22.861  0.00  0.00    +0.162 A 
BRANCH  28   7
ATOM      7  O   UNL     1       1.837  -1.000  21.519  0.00  0.00    -0.491 OA
ATOM     32  C   UNL     1       0.918  -1.099  20.434  0.00  0.00    +0.277 C 
ENDBRANCH  28   7
BRANCH  29   8
ATOM      8  O   UNL     1       3.750   0.866  22.269  0.00  0.00    -0.491 OA
ATOM     33  C   UNL     1       4.858   0.454  23.069  0.00  0.00    +0.277 C 
ENDBRANCH  29   8
ENDBRANCH  16  18
ENDBRANCH  11  16
BRANCH  12  17
ATOM     17  C   UNL     1      -4.228  -2.216  23.775  0.00  0.00    +0.124 C 
BRANCH  17  20
ATOM      6  O   UNL     1      -1.926  -3.018  23.815  0.00  0.00    -0.251 OA
ATOM     20  C   UNL     1      -3.020  -2.904  24.348  0.00  0.00    +0.305 C 
BRANCH  20   5
ATOM      5  O   UNL     1      -3.315  -3.399  25.577  0.00  0.00    -0.481 OA
ATOM     34  H   UNL     1      -2.959  -4.304  25.703  0.00  0.00    +0.295 HD
ENDBRANCH  20   5
ENDBRANCH  17  20
ENDBRANCH  12  17
TORSDOF 9
ENDMDL
