MODEL 1
REMARK VINA RESULT:      -5.2      0.000      0.000
REMARK  Name = 75536809
REMARK  11 active torsions:
REMARK  status: ('A' for Active; 'I' for Inactive)
REMARK    1  A    between atoms: O_2  and  C_8
REMARK    2  A    between atoms: N_4  and  C_7
REMARK    3  A    between atoms: N_4  and  C_14
REMARK    4  A    between atoms: N_5  and  C_11
REMARK    5  A    between atoms: C_9  and  C_11
REMARK    6  A    between atoms: C_12  and  C_13
REMARK    7  A    between atoms: C_12  and  C_16
REMARK    8  A    between atoms: C_12  and  C_17
REMARK    9  A    between atoms: C_12  and  C_18
REMARK   10  A    between atoms: C_13  and  C_15
REMARK   11  A    between atoms: C_14  and  C_19
REMARK                            x       y       z     vdW  Elec       q    Type
REMARK                         _______ _______ _______ _____ _____    ______ ____
ROOT
ATOM      1  O   UNL     1      -3.092   4.333  23.721  0.00  0.00    -0.371 OA
ATOM      7  C   UNL     1      -4.562   3.181  25.189  0.00  0.00    +0.111 C 
ATOM      8  C   UNL     1      -3.300   3.557  25.945  0.00  0.00    +0.164 C 
ATOM      9  C   UNL     1      -2.762   4.684  25.074  0.00  0.00    +0.165 C 
ATOM     10  C   UNL     1      -4.095   3.303  23.748  0.00  0.00    +0.181 C 
ENDROOT
BRANCH   8   2
ATOM      2  O   UNL     1      -3.563   3.990  27.265  0.00  0.00    -0.388 OA
ATOM     26  H   UNL     1      -3.352   4.937  27.324  0.00  0.00    +0.210 HD
ENDBRANCH   8   2
BRANCH   7   4
ATOM      4  N   UNL     1      -5.062   1.855  25.513  0.00  0.00    -0.305 NA
ATOM     24  H   UNL     1      -6.029   1.932  25.828  0.00  0.00    +0.123 HD
BRANCH   4  14
ATOM     14  C   UNL     1      -5.013   0.978  24.349  0.00  0.00    +0.116 C 
BRANCH  14  19
ATOM      6  N   UNL     1      -3.227  -2.822  25.286  0.00  0.00    -0.263 NA
ATOM     19  C   UNL     1      -4.387  -0.352  24.676  0.00  0.00    -0.031 A 
ATOM     20  C   UNL     1      -4.396  -1.378  23.737  0.00  0.00    +0.024 A 
ATOM     21  C   UNL     1      -3.800  -0.560  25.920  0.00  0.00    +0.024 A 
ATOM     22  C   UNL     1      -3.808  -2.583  24.088  0.00  0.00    +0.111 A 
ATOM     23  C   UNL     1      -3.239  -1.801  26.173  0.00  0.00    +0.111 A 
ENDBRANCH  14  19
ENDBRANCH   4  14
ENDBRANCH   7   4
BRANCH   9  11
ATOM     11  C   UNL     1      -1.261   4.876  25.203  0.00  0.00    +0.138 C 
BRANCH  11   5
ATOM      3  O   UNL     1      -0.082   2.526  26.418  0.00  0.00    -0.276 OA
ATOM      5  N   UNL     1      -0.534   3.818  24.539  0.00  0.00    -0.313 N 
ATOM     15  C   UNL     1      -0.004   2.727  25.208  0.00  0.00    +0.214 C 
ATOM     25  H   UNL     1      -0.422   3.886  23.532  0.00  0.00    +0.149 HD
BRANCH  15  13
ATOM     13  C   UNL     1       0.722   1.760  24.286  0.00  0.00    +0.102 C 
BRANCH  13  12
ATOM     12  C   UNL     1      -0.136   0.573  23.789  0.00  0.00    -0.029 C 
ATOM     16  C   UNL     1      -1.448   1.065  23.156  0.00  0.00    +0.011 C 
ATOM     17  C   UNL     1       0.670  -0.182  22.713  0.00  0.00    +0.011 C 
ATOM     18  C   UNL     1      -0.459  -0.406  24.930  0.00  0.00    +0.011 C 
ENDBRANCH  13  12
ENDBRANCH  15  13
ENDBRANCH  11   5
ENDBRANCH   9  11
TORSDOF 8
ENDMDL
MODEL 2
REMARK VINA RESULT:      -4.9      0.688      1.437
REMARK  Name = 75536809
REMARK  11 active torsions:
REMARK  status: ('A' for Active; 'I' for Inactive)
REMARK    1  A    between atoms: O_2  and  C_8
REMARK    2  A    between atoms: N_4  and  C_7
REMARK    3  A    between atoms: N_4  and  C_14
REMARK    4  A    between atoms: N_5  and  C_11
REMARK    5  A    between atoms: C_9  and  C_11
REMARK    6  A    between atoms: C_12  and  C_13
REMARK    7  A    between atoms: C_12  and  C_16
REMARK    8  A    between atoms: C_12  and  C_17
REMARK    9  A    between atoms: C_12  and  C_18
REMARK   10  A    between atoms: C_13  and  C_15
REMARK   11  A    between atoms: C_14  and  C_19
REMARK                            x       y       z     vdW  Elec       q    Type
REMARK                         _______ _______ _______ _____ _____    ______ ____
ROOT
ATOM      1  O   UNL     1      -3.108   3.922  23.395  0.00  0.00    -0.371 OA
ATOM      7  C   UNL     1      -4.859   2.870  24.606  0.00  0.00    +0.111 C 
ATOM      8  C   UNL     1      -3.811   3.368  25.583  0.00  0.00    +0.164 C 
ATOM      9  C   UNL     1      -3.102   4.421  24.742  0.00  0.00    +0.165 C 
ATOM     10  C   UNL     1      -4.075   2.863  23.303  0.00  0.00    +0.181 C 
ENDROOT
BRANCH   8   2
ATOM      2  O   UNL     1      -4.376   3.923  26.755  0.00  0.00    -0.388 OA
ATOM     26  H   UNL     1      -5.259   3.537  26.881  0.00  0.00    +0.210 HD
ENDBRANCH   8   2
BRANCH   7   4
ATOM      4  N   UNL     1      -5.401   1.565  24.948  0.00  0.00    -0.305 NA
ATOM     24  H   UNL     1      -5.533   1.025  24.092  0.00  0.00    +0.123 HD
BRANCH   4  14
ATOM     14  C   UNL     1      -4.497   0.837  25.831  0.00  0.00    +0.116 C 
BRANCH  14  19
ATOM      6  N   UNL     1      -3.512  -3.045  24.260  0.00  0.00    -0.263 NA
ATOM     19  C   UNL     1      -4.153  -0.522  25.281  0.00  0.00    -0.031 A 
ATOM     20  C   UNL     1      -3.511  -1.458  26.086  0.00  0.00    +0.024 A 
ATOM     21  C   UNL     1      -4.474  -0.846  23.968  0.00  0.00    +0.024 A 
ATOM     22  C   UNL     1      -3.215  -2.694  25.532  0.00  0.00    +0.111 A 
ATOM     23  C   UNL     1      -4.136  -2.109  23.509  0.00  0.00    +0.111 A 
ENDBRANCH  14  19
ENDBRANCH   4  14
ENDBRANCH   7   4
BRANCH   9  11
ATOM     11  C   UNL     1      -1.674   4.683  25.186  0.00  0.00    +0.138 C 
BRANCH  11   5
ATOM      3  O   UNL     1      -0.612   2.267  26.378  0.00  0.00    -0.276 OA
ATOM      5  N   UNL     1      -0.754   3.743  24.589  0.00  0.00    -0.313 N 
ATOM     15  C   UNL     1      -0.299   2.608  25.240  0.00  0.00    +0.214 C 
ATOM     25  H   UNL     1      -0.441   3.932  23.640  0.00  0.00    +0.149 HD
BRANCH  15  13
ATOM     13  C   UNL     1       0.667   1.788  24.400  0.00  0.00    +0.102 C 
BRANCH  13  12
ATOM     12  C   UNL     1       0.058   0.511  23.775  0.00  0.00    -0.029 C 
ATOM     16  C   UNL     1      -0.353  -0.496  24.862  0.00  0.00    +0.011 C 
ATOM     17  C   UNL     1      -1.204   0.920  22.989  0.00  0.00    +0.011 C 
ATOM     18  C   UNL     1       1.039  -0.164  22.803  0.00  0.00    +0.011 C 
ENDBRANCH  13  12
ENDBRANCH  15  13
ENDBRANCH  11   5
ENDBRANCH   9  11
TORSDOF 8
ENDMDL
MODEL 3
REMARK VINA RESULT:      -4.8      1.869      4.233
REMARK  Name = 75536809
REMARK  11 active torsions:
REMARK  status: ('A' for Active; 'I' for Inactive)
REMARK    1  A    between atoms: O_2  and  C_8
REMARK    2  A    between atoms: N_4  and  C_7
REMARK    3  A    between atoms: N_4  and  C_14
REMARK    4  A    between atoms: N_5  and  C_11
REMARK    5  A    between atoms: C_9  and  C_11
REMARK    6  A    between atoms: C_12  and  C_13
REMARK    7  A    between atoms: C_12  and  C_16
REMARK    8  A    between atoms: C_12  and  C_17
REMARK    9  A    between atoms: C_12  and  C_18
REMARK   10  A    between atoms: C_13  and  C_15
REMARK   11  A    between atoms: C_14  and  C_19
REMARK                            x       y       z     vdW  Elec       q    Type
REMARK                         _______ _______ _______ _____ _____    ______ ____
ROOT
ATOM      1  O   UNL     1      -0.522   2.033  23.163  0.00  0.00    -0.371 OA
ATOM      7  C   UNL     1      -0.964   3.278  25.136  0.00  0.00    +0.111 C 
ATOM      8  C   UNL     1      -0.134   2.060  25.495  0.00  0.00    +0.164 C 
ATOM      9  C   UNL     1       0.477   1.714  24.145  0.00  0.00    +0.165 C 
ATOM     10  C   UNL     1      -1.510   2.878  23.775  0.00  0.00    +0.181 C 
ENDROOT
BRANCH   8   2
ATOM      2  O   UNL     1       0.856   2.341  26.465  0.00  0.00    -0.388 OA
ATOM     26  H   UNL     1       0.871   3.301  26.619  0.00  0.00    +0.210 HD
ENDBRANCH   8   2
BRANCH   7   4
ATOM      4  N   UNL     1      -2.011   3.576  26.101  0.00  0.00    -0.305 NA
ATOM     24  H   UNL     1      -1.640   4.211  26.808  0.00  0.00    +0.123 HD
BRANCH   4  14
ATOM     14  C   UNL     1      -3.156   4.207  25.454  0.00  0.00    +0.116 C 
BRANCH  14  19
ATOM      6  N   UNL     1      -6.567   1.588  25.337  0.00  0.00    -0.263 NA
ATOM     19  C   UNL     1      -4.350   3.289  25.413  0.00  0.00    -0.031 A 
ATOM     20  C   UNL     1      -4.666   2.608  24.243  0.00  0.00    +0.024 A 
ATOM     21  C   UNL     1      -5.140   3.121  26.545  0.00  0.00    +0.024 A 
ATOM     22  C   UNL     1      -5.776   1.777  24.257  0.00  0.00    +0.111 A 
ATOM     23  C   UNL     1      -6.227   2.268  26.456  0.00  0.00    +0.111 A 
ENDBRANCH  14  19
ENDBRANCH   4  14
ENDBRANCH   7   4
BRANCH   9  11
ATOM     11  C   UNL     1       0.870   0.252  24.021  0.00  0.00    +0.138 C 
BRANCH  11   5
ATOM      3  O   UNL     1      -0.186  -1.769  25.807  0.00  0.00    -0.276 OA
ATOM      5  N   UNL     1      -0.285  -0.590  23.807  0.00  0.00    -0.313 N 
ATOM     15  C   UNL     1      -0.717  -1.533  24.725  0.00  0.00    +0.214 C 
ATOM     25  H   UNL     1      -0.802  -0.465  22.941  0.00  0.00    +0.149 HD
BRANCH  15  13
ATOM     13  C   UNL     1      -1.949  -2.294  24.260  0.00  0.00    +0.102 C 
BRANCH  13  12
ATOM     12  C   UNL     1      -3.280  -1.519  24.405  0.00  0.00    -0.029 C 
ATOM     16  C   UNL     1      -3.297  -0.274  23.502  0.00  0.00    +0.011 C 
ATOM     17  C   UNL     1      -4.426  -2.452  23.969  0.00  0.00    +0.011 C 
ATOM     18  C   UNL     1      -3.528  -1.092  25.861  0.00  0.00    +0.011 C 
ENDBRANCH  13  12
ENDBRANCH  15  13
ENDBRANCH  11   5
ENDBRANCH   9  11
TORSDOF 8
ENDMDL
MODEL 4
REMARK VINA RESULT:      -4.6      3.173      5.177
REMARK  Name = 75536809
REMARK  11 active torsions:
REMARK  status: ('A' for Active; 'I' for Inactive)
REMARK    1  A    between atoms: O_2  and  C_8
REMARK    2  A    between atoms: N_4  and  C_7
REMARK    3  A    between atoms: N_4  and  C_14
REMARK    4  A    between atoms: N_5  and  C_11
REMARK    5  A    between atoms: C_9  and  C_11
REMARK    6  A    between atoms: C_12  and  C_13
REMARK    7  A    between atoms: C_12  and  C_16
REMARK    8  A    between atoms: C_12  and  C_17
REMARK    9  A    between atoms: C_12  and  C_18
REMARK   10  A    between atoms: C_13  and  C_15
REMARK   11  A    between atoms: C_14  and  C_19
REMARK                            x       y       z     vdW  Elec       q    Type
REMARK                         _______ _______ _______ _____ _____    ______ ____
ROOT
ATOM      1  O   UNL     1      -0.334   0.427  25.320  0.00  0.00    -0.371 OA
ATOM      7  C   UNL     1      -2.233  -0.955  25.670  0.00  0.00    +0.111 C 
ATOM      8  C   UNL     1      -1.661  -1.239  24.294  0.00  0.00    +0.164 C 
ATOM      9  C   UNL     1      -0.241  -0.714  24.453  0.00  0.00    +0.165 C 
ATOM     10  C   UNL     1      -1.611   0.396  25.981  0.00  0.00    +0.181 C 
ENDROOT
BRANCH   8   2
ATOM      2  O   UNL     1      -1.681  -2.615  23.967  0.00  0.00    -0.388 OA
ATOM     26  H   UNL     1      -0.775  -2.891  23.749  0.00  0.00    +0.210 HD
ENDBRANCH   8   2
BRANCH   7   4
ATOM      4  N   UNL     1      -3.687  -0.930  25.703  0.00  0.00    -0.305 NA
ATOM     24  H   UNL     1      -3.992  -0.394  26.516  0.00  0.00    +0.123 HD
BRANCH   4  14
ATOM     14  C   UNL     1      -4.228  -0.312  24.498  0.00  0.00    +0.116 C 
BRANCH  14  19
ATOM      6  N   UNL     1      -4.791   3.924  24.991  0.00  0.00    -0.263 NA
ATOM     19  C   UNL     1      -4.424   1.171  24.671  0.00  0.00    -0.031 A 
ATOM     20  C   UNL     1      -5.389   1.649  25.552  0.00  0.00    +0.024 A 
ATOM     21  C   UNL     1      -3.644   2.068  23.951  0.00  0.00    +0.024 A 
ATOM     22  C   UNL     1      -5.532   3.022  25.675  0.00  0.00    +0.111 A 
ATOM     23  C   UNL     1      -3.864   3.422  24.145  0.00  0.00    +0.111 A 
ENDBRANCH  14  19
ENDBRANCH   4  14
ENDBRANCH   7   4
BRANCH   9  11
ATOM     11  C   UNL     1       0.400  -0.308  23.138  0.00  0.00    +0.138 C 
BRANCH  11   5
ATOM      3  O   UNL     1       2.567  -0.190  21.220  0.00  0.00    -0.276 OA
ATOM      5  N   UNL     1       1.720   0.244  23.340  0.00  0.00    -0.313 N 
ATOM     15  C   UNL     1       2.696   0.256  22.358  0.00  0.00    +0.214 C 
ATOM     25  H   UNL     1       1.924   0.649  24.250  0.00  0.00    +0.149 HD
BRANCH  15  13
ATOM     13  C   UNL     1       4.000   0.886  22.823  0.00  0.00    +0.102 C 
BRANCH  13  12
ATOM     12  C   UNL     1       5.000  -0.101  23.469  0.00  0.00    -0.029 C 
ATOM     16  C   UNL     1       6.199  -0.361  22.543  0.00  0.00    +0.011 C 
ATOM     17  C   UNL     1       5.521   0.533  24.774  0.00  0.00    +0.011 C 
ATOM     18  C   UNL     1       4.326  -1.440  23.814  0.00  0.00    +0.011 C 
ENDBRANCH  13  12
ENDBRANCH  15  13
ENDBRANCH  11   5
ENDBRANCH   9  11
TORSDOF 8
ENDMDL
MODEL 5
REMARK VINA RESULT:      -4.3      3.024      6.455
REMARK  Name = 75536809
REMARK  11 active torsions:
REMARK  status: ('A' for Active; 'I' for Inactive)
REMARK    1  A    between atoms: O_2  and  C_8
REMARK    2  A    between atoms: N_4  and  C_7
REMARK    3  A    between atoms: N_4  and  C_14
REMARK    4  A    between atoms: N_5  and  C_11
REMARK    5  A    between atoms: C_9  and  C_11
REMARK    6  A    between atoms: C_12  and  C_13
REMARK    7  A    between atoms: C_12  and  C_16
REMARK    8  A    between atoms: C_12  and  C_17
REMARK    9  A    between atoms: C_12  and  C_18
REMARK   10  A    between atoms: C_13  and  C_15
REMARK   11  A    between atoms: C_14  and  C_19
REMARK                            x       y       z     vdW  Elec       q    Type
REMARK                         _______ _______ _______ _____ _____    ______ ____
ROOT
ATOM      1  O   UNL     1      -1.710  -2.418  24.424  0.00  0.00    -0.371 OA
ATOM      7  C   UNL     1      -0.027  -0.745  24.358  0.00  0.00    +0.111 C 
ATOM      8  C   UNL     1      -1.154  -0.277  25.259  0.00  0.00    +0.164 C 
ATOM      9  C   UNL     1      -1.825  -1.600  25.600  0.00  0.00    +0.165 C 
ATOM     10  C   UNL     1      -0.713  -1.842  23.563  0.00  0.00    +0.181 C 
ENDROOT
BRANCH   8   2
ATOM      2  O   UNL     1      -0.689   0.391  26.415  0.00  0.00    -0.388 OA
ATOM     26  H   UNL     1      -1.345   1.063  26.665  0.00  0.00    +0.210 HD
ENDBRANCH   8   2
BRANCH   7   4
ATOM      4  N   UNL     1       0.521   0.307  23.516  0.00  0.00    -0.305 NA
ATOM     24  H   UNL     1       1.050   0.957  24.098  0.00  0.00    +0.123 HD
BRANCH   4  14
ATOM     14  C   UNL     1       1.407  -0.245  22.498  0.00  0.00    +0.116 C 
BRANCH  14  19
ATOM      6  N   UNL     1       5.525  -0.148  23.740  0.00  0.00    -0.263 NA
ATOM     19  C   UNL     1       2.849  -0.211  22.933  0.00  0.00    -0.031 A 
ATOM     20  C   UNL     1       3.611   0.936  22.735  0.00  0.00    +0.024 A 
ATOM     21  C   UNL     1       3.424  -1.325  23.534  0.00  0.00    +0.024 A 
ATOM     22  C   UNL     1       4.932   0.916  23.152  0.00  0.00    +0.111 A 
ATOM     23  C   UNL     1       4.752  -1.244  23.916  0.00  0.00    +0.111 A 
ENDBRANCH  14  19
ENDBRANCH   4  14
ENDBRANCH   7   4
BRANCH   9  11
ATOM     11  C   UNL     1      -3.287  -1.452  25.980  0.00  0.00    +0.138 C 
BRANCH  11   5
ATOM      3  O   UNL     1      -4.314  -0.369  23.498  0.00  0.00    -0.276 OA
ATOM      5  N   UNL     1      -3.763  -0.108  25.740  0.00  0.00    -0.313 N 
ATOM     15  C   UNL     1      -4.239   0.320  24.512  0.00  0.00    +0.214 C 
ATOM     25  H   UNL     1      -3.750   0.540  26.523  0.00  0.00    +0.149 HD
BRANCH  15  13
ATOM     13  C   UNL     1      -4.671   1.778  24.518  0.00  0.00    +0.102 C 
BRANCH  13  12
ATOM     12  C   UNL     1      -3.545   2.787  24.189  0.00  0.00    -0.029 C 
ATOM     16  C   UNL     1      -2.605   2.234  23.105  0.00  0.00    +0.011 C 
ATOM     17  C   UNL     1      -4.200   4.076  23.654  0.00  0.00    +0.011 C 
ATOM     18  C   UNL     1      -2.725   3.142  25.440  0.00  0.00    +0.011 C 
ENDBRANCH  13  12
ENDBRANCH  15  13
ENDBRANCH  11   5
ENDBRANCH   9  11
TORSDOF 8
ENDMDL
MODEL 6
REMARK VINA RESULT:      -3.8      2.205      6.118
REMARK  Name = 75536809
REMARK  11 active torsions:
REMARK  status: ('A' for Active; 'I' for Inactive)
REMARK    1  A    between atoms: O_2  and  C_8
REMARK    2  A    between atoms: N_4  and  C_7
REMARK    3  A    between atoms: N_4  and  C_14
REMARK    4  A    between atoms: N_5  and  C_11
REMARK    5  A    between atoms: C_9  and  C_11
REMARK    6  A    between atoms: C_12  and  C_13
REMARK    7  A    between atoms: C_12  and  C_16
REMARK    8  A    between atoms: C_12  and  C_17
REMARK    9  A    between atoms: C_12  and  C_18
REMARK   10  A    between atoms: C_13  and  C_15
REMARK   11  A    between atoms: C_14  and  C_19
REMARK                            x       y       z     vdW  Elec       q    Type
REMARK                         _______ _______ _______ _____ _____    ______ ____
ROOT
ATOM      1  O   UNL     1      -1.390  -2.197  23.586  0.00  0.00    -0.371 OA
ATOM      7  C   UNL     1       0.037  -0.638  24.668  0.00  0.00    +0.111 C 
ATOM      8  C   UNL     1      -1.213  -0.830  25.507  0.00  0.00    +0.164 C 
ATOM      9  C   UNL     1      -1.712  -2.170  24.986  0.00  0.00    +0.165 C 
ATOM     10  C   UNL     1      -0.422  -1.169  23.320  0.00  0.00    +0.181 C 
ENDROOT
BRANCH   8   2
ATOM      2  O   UNL     1      -0.939  -0.871  26.894  0.00  0.00    -0.388 OA
ATOM     26  H   UNL     1      -0.992  -1.796  27.188  0.00  0.00    +0.210 HD
ENDBRANCH   8   2
BRANCH   7   4
ATOM      4  N   UNL     1       0.493   0.742  24.608  0.00  0.00    -0.305 NA
ATOM     24  H   UNL     1       1.447   0.762  24.247  0.00  0.00    +0.123 HD
BRANCH   4  14
ATOM     14  C   UNL     1      -0.360   1.538  23.732  0.00  0.00    +0.116 C 
BRANCH  14  19
ATOM      6  N   UNL     1      -1.755   5.112  25.677  0.00  0.00    -0.263 NA
ATOM     19  C   UNL     1      -0.848   2.789  24.414  0.00  0.00    -0.031 A 
ATOM     20  C   UNL     1      -1.717   2.701  25.496  0.00  0.00    +0.024 A 
ATOM     21  C   UNL     1      -0.432   4.037  23.963  0.00  0.00    +0.024 A 
ATOM     22  C   UNL     1      -2.138   3.882  26.087  0.00  0.00    +0.111 A 
ATOM     23  C   UNL     1      -0.910   5.157  24.622  0.00  0.00    +0.111 A 
ENDBRANCH  14  19
ENDBRANCH   4  14
ENDBRANCH   7   4
BRANCH   9  11
ATOM     11  C   UNL     1      -3.206  -2.368  25.173  0.00  0.00    +0.138 C 
BRANCH  11   5
ATOM      3  O   UNL     1      -4.003   0.003  23.712  0.00  0.00    -0.276 OA
ATOM      5  N   UNL     1      -3.834  -1.180  25.705  0.00  0.00    -0.313 N 
ATOM     15  C   UNL     1      -4.181  -0.091  24.924  0.00  0.00    +0.214 C 
ATOM     25  H   UNL     1      -4.034  -1.162  26.701  0.00  0.00    +0.149 HD
BRANCH  15  13
ATOM     13  C   UNL     1      -4.821   1.034  25.723  0.00  0.00    +0.102 C 
BRANCH  13  12
ATOM     12  C   UNL     1      -5.433   2.168  24.868  0.00  0.00    -0.029 C 
ATOM     16  C   UNL     1      -6.814   1.768  24.323  0.00  0.00    +0.011 C 
ATOM     17  C   UNL     1      -5.605   3.407  25.769  0.00  0.00    +0.011 C 
ATOM     18  C   UNL     1      -4.514   2.545  23.693  0.00  0.00    +0.011 C 
ENDBRANCH  13  12
ENDBRANCH  15  13
ENDBRANCH  11   5
ENDBRANCH   9  11
TORSDOF 8
ENDMDL
MODEL 7
REMARK VINA RESULT:      -3.7      2.760      6.058
REMARK  Name = 75536809
REMARK  11 active torsions:
REMARK  status: ('A' for Active; 'I' for Inactive)
REMARK    1  A    between atoms: O_2  and  C_8
REMARK    2  A    between atoms: N_4  and  C_7
REMARK    3  A    between atoms: N_4  and  C_14
REMARK    4  A    between atoms: N_5  and  C_11
REMARK    5  A    between atoms: C_9  and  C_11
REMARK    6  A    between atoms: C_12  and  C_13
REMARK    7  A    between atoms: C_12  and  C_16
REMARK    8  A    between atoms: C_12  and  C_17
REMARK    9  A    between atoms: C_12  and  C_18
REMARK   10  A    between atoms: C_13  and  C_15
REMARK   11  A    between atoms: C_14  and  C_19
REMARK                            x       y       z     vdW  Elec       q    Type
REMARK                         _______ _______ _______ _____ _____    ______ ____
ROOT
ATOM      1  O   UNL     1      -3.019  -2.014  24.190  0.00  0.00    -0.371 OA
ATOM      7  C   UNL     1      -0.864  -1.556  25.077  0.00  0.00    +0.111 C 
ATOM      8  C   UNL     1      -1.609  -0.248  24.884  0.00  0.00    +0.164 C 
ATOM      9  C   UNL     1      -3.051  -0.735  24.843  0.00  0.00    +0.165 C 
ATOM     10  C   UNL     1      -1.662  -2.490  24.182  0.00  0.00    +0.181 C 
ENDROOT
BRANCH   8   2
ATOM      2  O   UNL     1      -1.391   0.665  25.942  0.00  0.00    -0.388 OA
ATOM     26  H   UNL     1      -1.672   1.548  25.647  0.00  0.00    +0.210 HD
ENDBRANCH   8   2
BRANCH   7   4
ATOM      4  N   UNL     1       0.542  -1.485  24.711  0.00  0.00    -0.305 NA
ATOM     24  H   UNL     1       0.871  -2.421  24.471  0.00  0.00    +0.123 HD
BRANCH   4  14
ATOM     14  C   UNL     1       0.742  -0.606  23.565  0.00  0.00    +0.116 C 
BRANCH  14  19
ATOM      6  N   UNL     1       4.901   0.314  22.965  0.00  0.00    -0.263 NA
ATOM     19  C   UNL     1       2.198  -0.284  23.354  0.00  0.00    -0.031 A 
ATOM     20  C   UNL     1       3.174  -1.219  23.684  0.00  0.00    +0.024 A 
ATOM     21  C   UNL     1       2.572   0.948  22.831  0.00  0.00    +0.024 A 
ATOM     22  C   UNL     1       4.499  -0.874  23.472  0.00  0.00    +0.111 A 
ATOM     23  C   UNL     1       3.924   1.196  22.658  0.00  0.00    +0.111 A 
ENDBRANCH  14  19
ENDBRANCH   4  14
ENDBRANCH   7   4
BRANCH   9  11
ATOM     11  C   UNL     1      -3.979   0.202  24.091  0.00  0.00    +0.138 C 
BRANCH  11   5
ATOM      3  O   UNL     1      -5.090   2.747  24.911  0.00  0.00    -0.276 OA
ATOM      5  N   UNL     1      -3.389   1.510  23.923  0.00  0.00    -0.313 N 
ATOM     15  C   UNL     1      -3.998   2.678  24.351  0.00  0.00    +0.214 C 
ATOM     25  H   UNL     1      -2.477   1.560  23.477  0.00  0.00    +0.149 HD
BRANCH  15  13
ATOM     13  C   UNL     1      -3.177   3.922  24.051  0.00  0.00    +0.102 C 
BRANCH  13  12
ATOM     12  C   UNL     1      -1.984   4.155  25.008  0.00  0.00    -0.029 C 
ATOM     16  C   UNL     1      -0.728   3.419  24.515  0.00  0.00    +0.011 C 
ATOM     17  C   UNL     1      -1.683   5.667  25.036  0.00  0.00    +0.011 C 
ATOM     18  C   UNL     1      -2.312   3.698  26.438  0.00  0.00    +0.011 C 
ENDBRANCH  13  12
ENDBRANCH  15  13
ENDBRANCH  11   5
ENDBRANCH   9  11
TORSDOF 8
ENDMDL
MODEL 8
REMARK VINA RESULT:      -3.3      2.309      5.890
REMARK  Name = 75536809
REMARK  11 active torsions:
REMARK  status: ('A' for Active; 'I' for Inactive)
REMARK    1  A    between atoms: O_2  and  C_8
REMARK    2  A    between atoms: N_4  and  C_7
REMARK    3  A    between atoms: N_4  and  C_14
REMARK    4  A    between atoms: N_5  and  C_11
REMARK    5  A    between atoms: C_9  and  C_11
REMARK    6  A    between atoms: C_12  and  C_13
REMARK    7  A    between atoms: C_12  and  C_16
REMARK    8  A    between atoms: C_12  and  C_17
REMARK    9  A    between atoms: C_12  and  C_18
REMARK   10  A    between atoms: C_13  and  C_15
REMARK   11  A    between atoms: C_14  and  C_19
REMARK                            x       y       z     vdW  Elec       q    Type
REMARK                         _______ _______ _______ _____ _____    ______ ____
ROOT
ATOM      1  O   UNL     1      -2.756  -2.924  23.847  0.00  0.00    -0.371 OA
ATOM      7  C   UNL     1      -1.057  -1.899  25.152  0.00  0.00    +0.111 C 
ATOM      8  C   UNL     1      -2.319  -1.061  25.236  0.00  0.00    +0.164 C 
ATOM      9  C   UNL     1      -3.375  -2.080  24.831  0.00  0.00    +0.165 C 
ATOM     10  C   UNL     1      -1.332  -2.733  23.912  0.00  0.00    +0.181 C 
ENDROOT
BRANCH   8   2
ATOM      2  O   UNL     1      -2.550  -0.549  26.534  0.00  0.00    -0.388 OA
ATOM     26  H   UNL     1      -2.260   0.378  26.554  0.00  0.00    +0.210 HD
ENDBRANCH   8   2
BRANCH   7   4
ATOM      4  N   UNL     1       0.161  -1.111  25.046  0.00  0.00    -0.305 NA
ATOM     24  H   UNL     1       0.952  -1.739  24.898  0.00  0.00    +0.123 HD
BRANCH   4  14
ATOM     14  C   UNL     1       0.084  -0.176  23.929  0.00  0.00    +0.116 C 
BRANCH  14  19
ATOM      6  N   UNL     1      -0.525   3.866  25.268  0.00  0.00    -0.263 NA
ATOM     19  C   UNL     1      -0.130   1.239  24.398  0.00  0.00    -0.031 A 
ATOM     20  C   UNL     1      -0.533   2.219  23.497  0.00  0.00    +0.024 A 
ATOM     21  C   UNL     1       0.075   1.571  25.732  0.00  0.00    +0.024 A 
ATOM     22  C   UNL     1      -0.715   3.506  23.978  0.00  0.00    +0.111 A 
ATOM     23  C   UNL     1      -0.134   2.886  26.114  0.00  0.00    +0.111 A 
ENDBRANCH  14  19
ENDBRANCH   4  14
ENDBRANCH   7   4
BRANCH   9  11
ATOM     11  C   UNL     1      -4.627  -1.448  24.250  0.00  0.00    +0.138 C 
BRANCH  11   5
ATOM      3  O   UNL     1      -5.266   0.924  25.785  0.00  0.00    -0.276 OA
ATOM      5  N   UNL     1      -4.399  -0.072  23.872  0.00  0.00    -0.313 N 
ATOM     15  C   UNL     1      -4.739   1.003  24.677  0.00  0.00    +0.214 C 
ATOM     25  H   UNL     1      -3.957   0.100  22.974  0.00  0.00    +0.149 HD
BRANCH  15  13
ATOM     13  C   UNL     1      -4.403   2.346  24.049  0.00  0.00    +0.102 C 
BRANCH  13  12
ATOM     12  C   UNL     1      -4.465   3.548  25.021  0.00  0.00    -0.029 C 
ATOM     16  C   UNL     1      -3.567   3.315  26.247  0.00  0.00    +0.011 C 
ATOM     17  C   UNL     1      -3.955   4.795  24.273  0.00  0.00    +0.011 C 
ATOM     18  C   UNL     1      -5.904   3.818  25.491  0.00  0.00    +0.011 C 
ENDBRANCH  13  12
ENDBRANCH  15  13
ENDBRANCH  11   5
ENDBRANCH   9  11
TORSDOF 8
ENDMDL
MODEL 9
REMARK VINA RESULT:      -2.8      2.626      3.281
REMARK  Name = 75536809
REMARK  11 active torsions:
REMARK  status: ('A' for Active; 'I' for Inactive)
REMARK    1  A    between atoms: O_2  and  C_8
REMARK    2  A    between atoms: N_4  and  C_7
REMARK    3  A    between atoms: N_4  and  C_14
REMARK    4  A    between atoms: N_5  and  C_11
REMARK    5  A    between atoms: C_9  and  C_11
REMARK    6  A    between atoms: C_12  and  C_13
REMARK    7  A    between atoms: C_12  and  C_16
REMARK    8  A    between atoms: C_12  and  C_17
REMARK    9  A    between atoms: C_12  and  C_18
REMARK   10  A    between atoms: C_13  and  C_15
REMARK   11  A    between atoms: C_14  and  C_19
REMARK                            x       y       z     vdW  Elec       q    Type
REMARK                         _______ _______ _______ _____ _____    ______ ____
ROOT
ATOM      1  O   UNL     1      -1.099   1.541  22.791  0.00  0.00    -0.371 OA
ATOM      7  C   UNL     1      -3.033   2.537  23.741  0.00  0.00    +0.111 C 
ATOM      8  C   UNL     1      -2.045   2.220  24.848  0.00  0.00    +0.164 C 
ATOM      9  C   UNL     1      -0.747   2.114  24.061  0.00  0.00    +0.165 C 
ATOM     10  C   UNL     1      -2.522   1.650  22.619  0.00  0.00    +0.181 C 
ENDROOT
BRANCH   8   2
ATOM      2  O   UNL     1      -1.983   3.234  25.833  0.00  0.00    -0.388 OA
ATOM     26  H   UNL     1      -2.649   3.041  26.513  0.00  0.00    +0.210 HD
ENDBRANCH   8   2
BRANCH   7   4
ATOM      4  N   UNL     1      -4.416   2.261  24.098  0.00  0.00    -0.305 NA
ATOM     24  H   UNL     1      -4.859   1.745  23.336  0.00  0.00    +0.123 HD
BRANCH   4  14
ATOM     14  C   UNL     1      -4.493   1.463  25.316  0.00  0.00    +0.116 C 
BRANCH  14  19
ATOM      6  N   UNL     1      -3.549  -2.670  24.584  0.00  0.00    -0.263 NA
ATOM     19  C   UNL     1      -4.162   0.016  25.059  0.00  0.00    -0.031 A 
ATOM     20  C   UNL     1      -4.669  -0.626  23.935  0.00  0.00    +0.024 A 
ATOM     21  C   UNL     1      -3.349  -0.682  25.945  0.00  0.00    +0.024 A 
ATOM     22  C   UNL     1      -4.336  -1.959  23.745  0.00  0.00    +0.111 A 
ATOM     23  C   UNL     1      -3.075  -2.010  25.666  0.00  0.00    +0.111 A 
ENDBRANCH  14  19
ENDBRANCH   4  14
ENDBRANCH   7   4
BRANCH   9  11
ATOM     11  C   UNL     1       0.299   1.249  24.741  0.00  0.00    +0.138 C 
BRANCH  11   5
ATOM      3  O   UNL     1       1.464  -0.456  22.711  0.00  0.00    -0.276 OA
ATOM      5  N   UNL     1       1.593   1.392  24.114  0.00  0.00    -0.313 N 
ATOM     15  C   UNL     1       2.068   0.522  23.146  0.00  0.00    +0.214 C 
ATOM     25  H   UNL     1       2.169   2.180  24.400  0.00  0.00    +0.149 HD
BRANCH  15  13
ATOM     13  C   UNL     1       3.459   0.885  22.651  0.00  0.00    +0.102 C 
BRANCH  13  12
ATOM     12  C   UNL     1       4.603   0.047  23.268  0.00  0.00    -0.029 C 
ATOM     16  C   UNL     1       4.083  -1.305  23.785  0.00  0.00    +0.011 C 
ATOM     17  C   UNL     1       5.646  -0.222  22.165  0.00  0.00    +0.011 C 
ATOM     18  C   UNL     1       5.294   0.798  24.418  0.00  0.00    +0.011 C 
ENDBRANCH  13  12
ENDBRANCH  15  13
ENDBRANCH  11   5
ENDBRANCH   9  11
TORSDOF 8
ENDMDL
MODEL 10
REMARK VINA RESULT:      -2.8      1.992      4.697
REMARK  Name = 75536809
REMARK  11 active torsions:
REMARK  status: ('A' for Active; 'I' for Inactive)
REMARK    1  A    between atoms: O_2  and  C_8
REMARK    2  A    between atoms: N_4  and  C_7
REMARK    3  A    between atoms: N_4  and  C_14
REMARK    4  A    between atoms: N_5  and  C_11
REMARK    5  A    between atoms: C_9  and  C_11
REMARK    6  A    between atoms: C_12  and  C_13
REMARK    7  A    between atoms: C_12  and  C_16
REMARK    8  A    between atoms: C_12  and  C_17
REMARK    9  A    between atoms: C_12  and  C_18
REMARK   10  A    between atoms: C_13  and  C_15
REMARK   11  A    between atoms: C_14  and  C_19
REMARK                            x       y       z     vdW  Elec       q    Type
REMARK                         _______ _______ _______ _____ _____    ______ ____
ROOT
ATOM      1  O   UNL     1      -0.738  -0.503  25.927  0.00  0.00    -0.371 OA
ATOM      7  C   UNL     1      -2.375  -2.158  25.463  0.00  0.00    +0.111 C 
ATOM      8  C   UNL     1      -1.554  -1.911  24.212  0.00  0.00    +0.164 C 
ATOM      9  C   UNL     1      -0.299  -1.284  24.804  0.00  0.00    +0.165 C 
ATOM     10  C   UNL     1      -2.072  -0.909  26.274  0.00  0.00    +0.181 C 
ENDROOT
BRANCH   8   2
ATOM      2  O   UNL     1      -1.265  -3.100  23.503  0.00  0.00    -0.388 OA
ATOM     26  H   UNL     1      -1.287  -2.902  22.551  0.00  0.00    +0.210 HD
ENDBRANCH   8   2
BRANCH   7   4
ATOM      4  N   UNL     1      -3.795  -2.335  25.203  0.00  0.00    -0.305 NA
ATOM     24  H   UNL     1      -4.327  -1.940  25.979  0.00  0.00    +0.123 HD
BRANCH   4  14
ATOM     14  C   UNL     1      -4.189  -1.663  23.970  0.00  0.00    +0.116 C 
BRANCH  14  19
ATOM      6  N   UNL     1      -4.913   2.531  24.596  0.00  0.00    -0.263 NA
ATOM     19  C   UNL     1      -4.442  -0.194  24.190  0.00  0.00    -0.031 A 
ATOM     20  C   UNL     1      -5.354   0.220  25.155  0.00  0.00    +0.024 A 
ATOM     21  C   UNL     1      -3.766   0.753  23.428  0.00  0.00    +0.024 A 
ATOM     22  C   UNL     1      -5.551   1.582  25.318  0.00  0.00    +0.111 A 
ATOM     23  C   UNL     1      -4.035   2.090  23.668  0.00  0.00    +0.111 A 
ENDBRANCH  14  19
ENDBRANCH   4  14
ENDBRANCH   7   4
BRANCH   9  11
ATOM     11  C   UNL     1       0.450  -0.399  23.824  0.00  0.00    +0.138 C 
BRANCH  11   5
ATOM      3  O   UNL     1       0.936   2.170  25.069  0.00  0.00    -0.276 OA
ATOM      5  N   UNL     1      -0.256   0.839  23.583  0.00  0.00    -0.313 N 
ATOM     15  C   UNL     1       0.050   2.025  24.230  0.00  0.00    +0.214 C 
ATOM     25  H   UNL     1      -1.004   0.826  22.896  0.00  0.00    +0.149 HD
BRANCH  15  13
ATOM     13  C   UNL     1      -0.843   3.181  23.806  0.00  0.00    +0.102 C 
BRANCH  13  12
ATOM     12  C   UNL     1      -1.390   4.036  24.973  0.00  0.00    -0.029 C 
ATOM     16  C   UNL     1      -1.244   3.299  26.315  0.00  0.00    +0.011 C 
ATOM     17  C   UNL     1      -0.565   5.336  25.039  0.00  0.00    +0.011 C 
ATOM     18  C   UNL     1      -2.866   4.407  24.756  0.00  0.00    +0.011 C 
ENDBRANCH  13  12
ENDBRANCH  15  13
ENDBRANCH  11   5
ENDBRANCH   9  11
TORSDOF 8
ENDMDL
