MODEL 1
REMARK VINA RESULT:       1.3      0.000      0.000
REMARK  Name = 11879606
REMARK  7 active torsions:
REMARK  status: ('A' for Active; 'I' for Inactive)
REMARK    1  A    between atoms: O_3  and  C_18
REMARK    2  A    between atoms: O_3  and  C_21
REMARK    3  A    between atoms: N_6  and  C_14
REMARK    4  A    between atoms: N_7  and  C_15
REMARK    5  A    between atoms: N_11  and  C_24
REMARK    6  A    between atoms: C_19  and  C_20
REMARK    7  A    between atoms: C_33  and  C_36
REMARK                            x       y       z     vdW  Elec       q    Type
REMARK                         _______ _______ _______ _____ _____    ______ ____
ROOT
ATOM      1  O   UNL     1      -1.490   1.664  22.428  0.00  0.00    -0.370 OA
ATOM      2  O   UNL     1      -0.989   0.192  25.162  0.00  0.00    -0.370 OA
ATOM     12  C   UNL     1      -0.782   1.540  24.702  0.00  0.00    +0.176 C 
ATOM     13  C   UNL     1      -0.334   1.455  23.255  0.00  0.00    +0.171 C 
ATOM     14  C   UNL     1      -2.107   2.277  24.651  0.00  0.00    +0.171 C 
ATOM     15  C   UNL     1       0.171   0.038  23.102  0.00  0.00    +0.130 C 
ATOM     16  C   UNL     1      -2.625   1.957  23.254  0.00  0.00    +0.190 C 
ATOM     17  C   UNL     1      -0.689  -0.721  24.096  0.00  0.00    +0.185 C 
ENDROOT
BRANCH  14   6
ATOM      6  N   UNL     1      -1.967   3.704  24.950  0.00  0.00    -0.187 N 
ATOM      8  N   UNL     1      -0.950   4.413  24.452  0.00  0.00    -0.041 NA
ATOM      9  N   UNL     1      -2.261   5.707  25.707  0.00  0.00    -0.071 NA
ATOM     10  N   UNL     1      -1.135   5.642  24.918  0.00  0.00    -0.020 NA
ATOM     18  C   UNL     1      -2.761   4.493  25.711  0.00  0.00    +0.342 A 
BRANCH  18   3
ATOM      3  O   UNL     1      -3.847   4.090  26.344  0.00  0.00    -0.423 OA
BRANCH   3  21
ATOM     21  C   UNL     1      -4.656   3.068  25.866  0.00  0.00    +0.134 A 
ATOM     24  C   UNL     1      -4.935   0.777  25.232  0.00  0.00    +0.033 A 
ATOM     25  C   UNL     1      -4.121   1.804  25.712  0.00  0.00    +0.069 A 
ATOM     28  C   UNL     1      -5.974   3.346  25.559  0.00  0.00    +0.046 A 
ATOM     34  C   UNL     1      -6.269   1.035  24.916  0.00  0.00    +0.023 A 
ATOM     35  C   UNL     1      -6.788   2.319  25.079  0.00  0.00    +0.005 A 
BRANCH  24  11
ATOM      5  O   UNL     1      -3.149  -2.978  24.609  0.00  0.00    -0.377 OA
ATOM     11  N   UNL     1      -4.412  -0.510  25.069  0.00  0.00    -0.325 N 
ATOM     26  C   UNL     1      -3.412  -1.018  26.014  0.00  0.00    +0.133 C 
ATOM     27  C   UNL     1      -4.318  -1.053  23.708  0.00  0.00    +0.133 C 
ATOM     31  C   UNL     1      -3.369  -2.541  25.949  0.00  0.00    +0.178 C 
ATOM     32  C   UNL     1      -4.228  -2.574  23.765  0.00  0.00    +0.178 C 
ENDBRANCH  24  11
ENDBRANCH   3  21
ENDBRANCH  18   3
ENDBRANCH  14   6
BRANCH  15   7
ATOM      4  O   UNL     1       2.374  -0.115  21.268  0.00  0.00    -0.270 OA
ATOM      7  N   UNL     1       1.569  -0.059  23.441  0.00  0.00    -0.304 N 
ATOM     19  C   UNL     1       2.568  -0.128  22.481  0.00  0.00    +0.244 C 
ATOM     37  H   UNL     1       1.794  -0.191  24.422  0.00  0.00    +0.149 HD
BRANCH  19  20
ATOM     20  C   UNL     1       3.957  -0.250  22.993  0.00  0.00    +0.037 A 
ATOM     22  C   UNL     1       4.363  -1.451  23.536  0.00  0.00    +0.013 A 
ATOM     23  C   UNL     1       4.795   0.842  22.910  0.00  0.00    +0.013 A 
ATOM     29  C   UNL     1       5.668  -1.566  24.015  0.00  0.00    +0.004 A 
ATOM     30  C   UNL     1       6.100   0.727  23.390  0.00  0.00    +0.004 A 
ATOM     33  C   UNL     1       6.536  -0.476  23.942  0.00  0.00    -0.050 A 
ATOM     36  C   UNL     1       7.932  -0.599  24.457  0.00  0.00    +0.044 C 
ENDBRANCH  19  20
ENDBRANCH  15   7
TORSDOF 6
ENDMDL
MODEL 2
REMARK VINA RESULT:       3.3      2.678      4.818
REMARK  Name = 11879606
REMARK  7 active torsions:
REMARK  status: ('A' for Active; 'I' for Inactive)
REMARK    1  A    between atoms: O_3  and  C_18
REMARK    2  A    between atoms: O_3  and  C_21
REMARK    3  A    between atoms: N_6  and  C_14
REMARK    4  A    between atoms: N_7  and  C_15
REMARK    5  A    between atoms: N_11  and  C_24
REMARK    6  A    between atoms: C_19  and  C_20
REMARK    7  A    between atoms: C_33  and  C_36
REMARK                            x       y       z     vdW  Elec       q    Type
REMARK                         _______ _______ _______ _____ _____    ______ ____
ROOT
ATOM      1  O   UNL     1      -3.844  -1.315  23.367  0.00  0.00    -0.370 OA
ATOM      2  O   UNL     1      -2.419  -1.597  26.156  0.00  0.00    -0.370 OA
ATOM     12  C   UNL     1      -2.780  -0.475  25.329  0.00  0.00    +0.176 C 
ATOM     13  C   UNL     1      -2.571  -0.898  23.887  0.00  0.00    +0.171 C 
ATOM     14  C   UNL     1      -4.270  -0.211  25.441  0.00  0.00    +0.171 C 
ATOM     15  C   UNL     1      -1.629  -2.077  23.975  0.00  0.00    +0.130 C 
ATOM     16  C   UNL     1      -4.860  -1.107  24.358  0.00  0.00    +0.190 C 
ATOM     17  C   UNL     1      -1.991  -2.681  25.320  0.00  0.00    +0.185 C 
ENDROOT
BRANCH  14   6
ATOM      6  N   UNL     1      -4.599   1.211  25.318  0.00  0.00    -0.187 N 
ATOM      8  N   UNL     1      -5.776   1.681  25.738  0.00  0.00    -0.041 NA
ATOM      9  N   UNL     1      -4.535   3.329  24.892  0.00  0.00    -0.071 NA
ATOM     10  N   UNL     1      -5.732   2.982  25.477  0.00  0.00    -0.020 NA
ATOM     18  C   UNL     1      -3.848   2.213  24.805  0.00  0.00    +0.342 A 
BRANCH  18   3
ATOM      3  O   UNL     1      -2.635   2.072  24.304  0.00  0.00    -0.423 OA
BRANCH   3  21
ATOM     21  C   UNL     1      -1.560   2.845  24.720  0.00  0.00    +0.134 A 
ATOM     24  C   UNL     1       0.164   3.301  26.316  0.00  0.00    +0.033 A 
ATOM     25  C   UNL     1      -0.918   2.524  25.901  0.00  0.00    +0.069 A 
ATOM     28  C   UNL     1      -1.161   3.913  23.939  0.00  0.00    +0.046 A 
ATOM     34  C   UNL     1       0.583   4.384  25.544  0.00  0.00    +0.023 A 
ATOM     35  C   UNL     1      -0.080   4.690  24.356  0.00  0.00    +0.005 A 
BRANCH  24  11
ATOM      5  O   UNL     1       2.166   2.108  29.816  0.00  0.00    -0.377 OA
ATOM     11  N   UNL     1       0.828   2.993  27.508  0.00  0.00    -0.325 N 
ATOM     26  C   UNL     1       2.292   2.902  27.527  0.00  0.00    +0.133 C 
ATOM     27  C   UNL     1       0.137   2.143  28.488  0.00  0.00    +0.133 C 
ATOM     31  C   UNL     1       2.799   3.056  28.957  0.00  0.00    +0.178 C 
ATOM     32  C   UNL     1       0.758   2.338  29.867  0.00  0.00    +0.178 C 
ENDBRANCH  24  11
ENDBRANCH   3  21
ENDBRANCH  18   3
ENDBRANCH  14   6
BRANCH  15   7
ATOM      4  O   UNL     1      -0.562   0.184  22.564  0.00  0.00    -0.270 OA
ATOM      7  N   UNL     1      -0.252  -1.649  23.949  0.00  0.00    -0.304 N 
ATOM     19  C   UNL     1       0.171  -0.537  23.235  0.00  0.00    +0.244 C 
ATOM     37  H   UNL     1       0.427  -2.264  24.386  0.00  0.00    +0.149 HD
BRANCH  19  20
ATOM     20  C   UNL     1       1.626  -0.244  23.290  0.00  0.00    +0.037 A 
ATOM     22  C   UNL     1       2.503  -1.271  23.571  0.00  0.00    +0.013 A 
ATOM     23  C   UNL     1       2.054   1.046  23.057  0.00  0.00    +0.013 A 
ATOM     29  C   UNL     1       3.869  -0.996  23.620  0.00  0.00    +0.004 A 
ATOM     30  C   UNL     1       3.421   1.322  23.108  0.00  0.00    +0.004 A 
ATOM     33  C   UNL     1       4.328   0.301  23.389  0.00  0.00    -0.050 A 
ATOM     36  C   UNL     1       5.790   0.595  23.443  0.00  0.00    +0.044 C 
ENDBRANCH  19  20
ENDBRANCH  15   7
TORSDOF 6
ENDMDL
MODEL 3
REMARK VINA RESULT:       5.0      2.847      7.779
REMARK  Name = 11879606
REMARK  7 active torsions:
REMARK  status: ('A' for Active; 'I' for Inactive)
REMARK    1  A    between atoms: O_3  and  C_18
REMARK    2  A    between atoms: O_3  and  C_21
REMARK    3  A    between atoms: N_6  and  C_14
REMARK    4  A    between atoms: N_7  and  C_15
REMARK    5  A    between atoms: N_11  and  C_24
REMARK    6  A    between atoms: C_19  and  C_20
REMARK    7  A    between atoms: C_33  and  C_36
REMARK                            x       y       z     vdW  Elec       q    Type
REMARK                         _______ _______ _______ _____ _____    ______ ____
ROOT
ATOM      1  O   UNL     1       0.117  -1.904  26.020  0.00  0.00    -0.370 OA
ATOM      2  O   UNL     1      -1.716  -1.565  23.487  0.00  0.00    -0.370 OA
ATOM     12  C   UNL     1      -0.575  -0.850  23.996  0.00  0.00    +0.176 C 
ATOM     13  C   UNL     1      -0.695  -0.835  25.508  0.00  0.00    +0.171 C 
ATOM     14  C   UNL     1       0.692  -1.637  23.718  0.00  0.00    +0.171 C 
ATOM     15  C   UNL     1      -2.157  -1.116  25.770  0.00  0.00    +0.130 C 
ATOM     16  C   UNL     1       0.807  -2.544  24.937  0.00  0.00    +0.190 C 
ATOM     17  C   UNL     1      -2.538  -1.984  24.585  0.00  0.00    +0.185 C 
ENDROOT
BRANCH  14   6
ATOM      6  N   UNL     1       1.849  -0.771  23.476  0.00  0.00    -0.187 N 
ATOM      8  N   UNL     1       3.092  -1.255  23.541  0.00  0.00    -0.041 NA
ATOM      9  N   UNL     1       3.125   0.918  23.043  0.00  0.00    -0.071 NA
ATOM     10  N   UNL     1       3.872  -0.215  23.273  0.00  0.00    -0.020 NA
ATOM     18  C   UNL     1       1.872   0.548  23.174  0.00  0.00    +0.342 A 
BRANCH  18   3
ATOM      3  O   UNL     1       0.806   1.314  23.040  0.00  0.00    -0.423 OA
BRANCH   3  21
ATOM     21  C   UNL     1       0.308   2.091  24.077  0.00  0.00    +0.134 A 
ATOM     24  C   UNL     1       0.405   2.796  26.361  0.00  0.00    +0.033 A 
ATOM     25  C   UNL     1       0.905   2.014  25.320  0.00  0.00    +0.069 A 
ATOM     28  C   UNL     1      -0.771   2.920  23.834  0.00  0.00    +0.046 A 
ATOM     34  C   UNL     1      -0.683   3.640  26.139  0.00  0.00    +0.023 A 
ATOM     35  C   UNL     1      -1.270   3.702  24.876  0.00  0.00    +0.005 A 
BRANCH  24  11
ATOM      5  O   UNL     1       2.209   2.333  30.131  0.00  0.00    -0.377 OA
ATOM     11  N   UNL     1       0.996   2.733  27.628  0.00  0.00    -0.325 N 
ATOM     26  C   UNL     1       2.457   2.752  27.754  0.00  0.00    +0.133 C 
ATOM     27  C   UNL     1       0.286   2.007  28.689  0.00  0.00    +0.133 C 
ATOM     31  C   UNL     1       2.846   3.171  29.168  0.00  0.00    +0.178 C 
ATOM     32  C   UNL     1       0.790   2.466  30.053  0.00  0.00    +0.178 C 
ENDBRANCH  24  11
ENDBRANCH   3  21
ENDBRANCH  18   3
ENDBRANCH  14   6
BRANCH  15   7
ATOM      4  O   UNL     1      -4.541  -0.564  24.266  0.00  0.00    -0.270 OA
ATOM      7  N   UNL     1      -2.928   0.104  25.792  0.00  0.00    -0.304 N 
ATOM     19  C   UNL     1      -4.072   0.279  25.027  0.00  0.00    +0.244 C 
ATOM     37  H   UNL     1      -2.535   0.884  26.309  0.00  0.00    +0.149 HD
BRANCH  19  20
ATOM     20  C   UNL     1      -4.737   1.602  25.143  0.00  0.00    +0.037 A 
ATOM     22  C   UNL     1      -5.876   1.709  25.913  0.00  0.00    +0.013 A 
ATOM     23  C   UNL     1      -4.193   2.680  24.478  0.00  0.00    +0.013 A 
ATOM     29  C   UNL     1      -6.500   2.952  26.023  0.00  0.00    +0.004 A 
ATOM     30  C   UNL     1      -4.817   3.924  24.588  0.00  0.00    +0.004 A 
ATOM     33  C   UNL     1      -5.969   4.059  25.361  0.00  0.00    -0.050 A 
ATOM     36  C   UNL     1      -6.637   5.389  25.478  0.00  0.00    +0.044 C 
ENDBRANCH  19  20
ENDBRANCH  15   7
TORSDOF 6
ENDMDL
