MODEL 1
REMARK VINA RESULT:      -3.4      0.000      0.000
REMARK  Name = 28959550
REMARK  11 active torsions:
REMARK  status: ('A' for Active; 'I' for Inactive)
REMARK    1  A    between atoms: O_1  and  C_16
REMARK    2  A    between atoms: N_5  and  C_14
REMARK    3  A    between atoms: N_5  and  C_17
REMARK    4  A    between atoms: N_5  and  C_18
REMARK    5  A    between atoms: N_6  and  C_21
REMARK    6  A    between atoms: C_7  and  C_11
REMARK    7  A    between atoms: C_8  and  C_13
REMARK    8  A    between atoms: C_11  and  C_14
REMARK    9  A    between atoms: C_13  and  C_16
REMARK   10  A    between atoms: C_17  and  C_19
REMARK   11  A    between atoms: C_18  and  C_20
REMARK                            x       y       z     vdW  Elec       q    Type
REMARK                         _______ _______ _______ _____ _____    ______ ____
ROOT
ATOM      2  O   UNL     1      -0.084  -1.308  25.034  0.00  0.00    -0.252 OA
ATOM      4  N   UNL     1      -2.076  -0.472  24.210  0.00  0.00    -0.285 N 
ATOM      6  N   UNL     1      -0.023   0.523  23.611  0.00  0.00    -0.269 N 
ATOM      7  C   UNL     1      -3.878   1.230  24.244  0.00  0.00    +0.011 C 
ATOM      8  C   UNL     1      -4.748   0.240  25.064  0.00  0.00    +0.006 C 
ATOM      9  C   UNL     1      -3.885  -0.766  25.848  0.00  0.00    +0.023 C 
ATOM     10  C   UNL     1      -2.876   0.442  23.383  0.00  0.00    +0.113 C 
ATOM     12  C   UNL     1      -2.870  -1.460  24.941  0.00  0.00    +0.109 C 
ATOM     15  C   UNL     1      -0.669  -0.483  24.327  0.00  0.00    +0.306 C 
ATOM     27  H   UNL     1      -0.524   1.391  23.449  0.00  0.00    +0.156 HD
ENDROOT
BRANCH   6  21
ATOM     21  C   UNL     1       1.272   0.475  23.039  0.00  0.00    +0.035 A 
ATOM     22  C   UNL     1       1.507  -0.314  21.912  0.00  0.00    +0.023 A 
ATOM     23  C   UNL     1       2.311   1.215  23.601  0.00  0.00    +0.023 A 
ATOM     24  C   UNL     1       2.782  -0.361  21.348  0.00  0.00    +0.002 A 
ATOM     25  C   UNL     1       3.587   1.167  23.037  0.00  0.00    +0.002 A 
ATOM     26  C   UNL     1       3.823   0.378  21.911  0.00  0.00    +0.000 A 
ENDBRANCH   6  21
BRANCH   7  11
ATOM     11  C   UNL     1      -3.147   2.273  25.098  0.00  0.00    +0.020 C 
BRANCH  11  14
ATOM     14  C   UNL     1      -2.277   3.172  24.231  0.00  0.00    +0.084 C 
BRANCH  14   5
ATOM      5  N   UNL     1      -0.931   3.244  24.787  0.00  0.00    -0.303 NA
BRANCH   5  17
ATOM     17  C   UNL     1      -0.900   2.683  26.139  0.00  0.00    +0.081 C 
ATOM     19  C   UNL     1       0.526   2.555  26.648  0.00  0.00    +0.020 C 
ENDBRANCH   5  17
BRANCH   5  18
ATOM     18  C   UNL     1      -0.453   4.628  24.801  0.00  0.00    +0.081 C 
ATOM     20  C   UNL     1      -1.589   5.599  25.075  0.00  0.00    +0.020 C 
ENDBRANCH   5  18
ENDBRANCH  14   5
ENDBRANCH  11  14
ENDBRANCH   7  11
BRANCH   8  13
ATOM     13  C   UNL     1      -5.739   0.939  25.993  0.00  0.00    +0.124 C 
BRANCH  13  16
ATOM      3  O   UNL     1      -7.180   1.952  24.307  0.00  0.00    -0.251 OA
ATOM     16  C   UNL     1      -6.464   2.056  25.292  0.00  0.00    +0.305 C 
BRANCH  16   1
ATOM      1  O   UNL     1      -6.209   3.232  25.919  0.00  0.00    -0.481 OA
ATOM     28  H   UNL     1      -7.017   3.612  26.327  0.00  0.00    +0.295 HD
ENDBRANCH  16   1
ENDBRANCH  13  16
ENDBRANCH   8  13
TORSDOF 9
ENDMDL
MODEL 2
REMARK VINA RESULT:      -2.1      2.380      7.413
REMARK  Name = 28959550
REMARK  11 active torsions:
REMARK  status: ('A' for Active; 'I' for Inactive)
REMARK    1  A    between atoms: O_1  and  C_16
REMARK    2  A    between atoms: N_5  and  C_14
REMARK    3  A    between atoms: N_5  and  C_17
REMARK    4  A    between atoms: N_5  and  C_18
REMARK    5  A    between atoms: N_6  and  C_21
REMARK    6  A    between atoms: C_7  and  C_11
REMARK    7  A    between atoms: C_8  and  C_13
REMARK    8  A    between atoms: C_11  and  C_14
REMARK    9  A    between atoms: C_13  and  C_16
REMARK   10  A    between atoms: C_17  and  C_19
REMARK   11  A    between atoms: C_18  and  C_20
REMARK                            x       y       z     vdW  Elec       q    Type
REMARK                         _______ _______ _______ _____ _____    ______ ____
ROOT
ATOM      2  O   UNL     1      -1.164   3.202  25.488  0.00  0.00    -0.252 OA
ATOM      4  N   UNL     1      -0.451   1.815  23.782  0.00  0.00    -0.285 N 
ATOM      6  N   UNL     1      -2.608   1.564  24.703  0.00  0.00    -0.269 N 
ATOM      7  C   UNL     1       0.409  -0.376  23.001  0.00  0.00    +0.011 C 
ATOM      8  C   UNL     1       1.834   0.239  22.962  0.00  0.00    +0.006 C 
ATOM      9  C   UNL     1       1.972   1.426  23.934  0.00  0.00    +0.023 C 
ATOM     10  C   UNL     1      -0.635   0.737  22.800  0.00  0.00    +0.113 C 
ATOM     12  C   UNL     1       0.863   2.456  23.721  0.00  0.00    +0.109 C 
ATOM     15  C   UNL     1      -1.406   2.271  24.716  0.00  0.00    +0.306 C 
ATOM     27  H   UNL     1      -2.586   0.591  24.415  0.00  0.00    +0.156 HD
ENDROOT
BRANCH   6  21
ATOM     21  C   UNL     1      -3.897   2.056  25.023  0.00  0.00    +0.035 A 
ATOM     22  C   UNL     1      -4.071   3.405  25.338  0.00  0.00    +0.023 A 
ATOM     23  C   UNL     1      -4.992   1.194  25.024  0.00  0.00    +0.023 A 
ATOM     24  C   UNL     1      -5.340   3.889  25.653  0.00  0.00    +0.002 A 
ATOM     25  C   UNL     1      -6.262   1.678  25.339  0.00  0.00    +0.002 A 
ATOM     26  C   UNL     1      -6.436   3.026  25.654  0.00  0.00    +0.000 A 
ENDBRANCH   6  21
BRANCH   7  11
ATOM     11  C   UNL     1       0.106  -1.172  24.275  0.00  0.00    +0.020 C 
BRANCH  11  14
ATOM     14  C   UNL     1      -1.048  -2.137  24.051  0.00  0.00    +0.084 C 
BRANCH  14   5
ATOM      5  N   UNL     1      -2.272  -1.590  24.627  0.00  0.00    -0.303 NA
BRANCH   5  17
ATOM     17  C   UNL     1      -2.036  -1.130  25.997  0.00  0.00    +0.081 C 
ATOM     19  C   UNL     1      -3.242  -1.402  26.881  0.00  0.00    +0.020 C 
ENDBRANCH   5  17
BRANCH   5  18
ATOM     18  C   UNL     1      -3.344  -2.587  24.602  0.00  0.00    +0.081 C 
ATOM     20  C   UNL     1      -4.427  -2.203  23.610  0.00  0.00    +0.020 C 
ENDBRANCH   5  18
ENDBRANCH  14   5
ENDBRANCH  11  14
ENDBRANCH   7  11
BRANCH   8  13
ATOM     13  C   UNL     1       2.937  -0.790  23.209  0.00  0.00    +0.124 C 
BRANCH  13  16
ATOM      3  O   UNL     1       4.723   0.716  22.512  0.00  0.00    -0.251 OA
ATOM     16  C   UNL     1       4.295  -0.145  23.266  0.00  0.00    +0.305 C 
BRANCH  16   1
ATOM      1  O   UNL     1       5.004  -0.663  24.300  0.00  0.00    -0.481 OA
ATOM     28  H   UNL     1       5.967  -0.682  24.112  0.00  0.00    +0.295 HD
ENDBRANCH  16   1
ENDBRANCH  13  16
ENDBRANCH   8  13
TORSDOF 9
ENDMDL
MODEL 3
REMARK VINA RESULT:      -2.0      1.633      3.747
REMARK  Name = 28959550
REMARK  11 active torsions:
REMARK  status: ('A' for Active; 'I' for Inactive)
REMARK    1  A    between atoms: O_1  and  C_16
REMARK    2  A    between atoms: N_5  and  C_14
REMARK    3  A    between atoms: N_5  and  C_17
REMARK    4  A    between atoms: N_5  and  C_18
REMARK    5  A    between atoms: N_6  and  C_21
REMARK    6  A    between atoms: C_7  and  C_11
REMARK    7  A    between atoms: C_8  and  C_13
REMARK    8  A    between atoms: C_11  and  C_14
REMARK    9  A    between atoms: C_13  and  C_16
REMARK   10  A    between atoms: C_17  and  C_19
REMARK   11  A    between atoms: C_18  and  C_20
REMARK                            x       y       z     vdW  Elec       q    Type
REMARK                         _______ _______ _______ _____ _____    ______ ____
ROOT
ATOM      2  O   UNL     1       0.667   3.750  23.570  0.00  0.00    -0.252 OA
ATOM      4  N   UNL     1      -1.007   2.947  24.948  0.00  0.00    -0.285 N 
ATOM      6  N   UNL     1       0.381   1.455  23.760  0.00  0.00    -0.269 N 
ATOM      7  C   UNL     1      -3.262   1.963  25.253  0.00  0.00    +0.011 C 
ATOM      8  C   UNL     1      -3.793   3.380  25.600  0.00  0.00    +0.006 C 
ATOM      9  C   UNL     1      -2.924   4.486  24.974  0.00  0.00    +0.023 C 
ATOM     10  C   UNL     1      -1.767   1.875  25.606  0.00  0.00    +0.113 C 
ATOM     12  C   UNL     1      -1.446   4.295  25.311  0.00  0.00    +0.109 C 
ATOM     15  C   UNL     1       0.075   2.783  24.056  0.00  0.00    +0.306 C 
ATOM     27  H   UNL     1      -0.368   0.772  23.799  0.00  0.00    +0.156 HD
ENDROOT
BRANCH   6  21
ATOM     21  C   UNL     1       1.651   0.920  23.431  0.00  0.00    +0.035 A 
ATOM     22  C   UNL     1       1.840  -0.463  23.410  0.00  0.00    +0.023 A 
ATOM     23  C   UNL     1       2.710   1.773  23.127  0.00  0.00    +0.023 A 
ATOM     24  C   UNL     1       3.089  -0.990  23.085  0.00  0.00    +0.002 A 
ATOM     25  C   UNL     1       3.961   1.245  22.803  0.00  0.00    +0.002 A 
ATOM     26  C   UNL     1       4.150  -0.137  22.783  0.00  0.00    +0.000 A 
ENDBRANCH   6  21
BRANCH   7  11
ATOM     11  C   UNL     1      -3.495   1.549  23.796  0.00  0.00    +0.020 C 
BRANCH  11  14
ATOM     14  C   UNL     1      -2.729   0.276  23.464  0.00  0.00    +0.084 C 
BRANCH  14   5
ATOM      5  N   UNL     1      -3.019  -0.751  24.459  0.00  0.00    -0.303 NA
BRANCH   5  17
ATOM     17  C   UNL     1      -1.976  -1.779  24.458  0.00  0.00    +0.081 C 
ATOM     19  C   UNL     1      -0.903  -1.472  25.490  0.00  0.00    +0.020 C 
ENDBRANCH   5  17
BRANCH   5  18
ATOM     18  C   UNL     1      -4.329  -1.355  24.209  0.00  0.00    +0.081 C 
ATOM     20  C   UNL     1      -4.199  -2.835  23.892  0.00  0.00    +0.020 C 
ENDBRANCH   5  18
ENDBRANCH  14   5
ENDBRANCH  11  14
ENDBRANCH   7  11
BRANCH   8  13
ATOM     13  C   UNL     1      -5.263   3.576  25.231  0.00  0.00    +0.124 C 
BRANCH  13  16
ATOM      3  O   UNL     1      -6.562   1.547  24.860  0.00  0.00    -0.251 OA
ATOM     16  C   UNL     1      -6.096   2.385  25.617  0.00  0.00    +0.305 C 
BRANCH  16   1
ATOM      1  O   UNL     1      -6.267   2.364  26.964  0.00  0.00    -0.481 OA
ATOM     28  H   UNL     1      -7.206   2.497  27.216  0.00  0.00    +0.295 HD
ENDBRANCH  16   1
ENDBRANCH  13  16
ENDBRANCH   8  13
TORSDOF 9
ENDMDL
MODEL 4
REMARK VINA RESULT:       0.6      2.000      6.645
REMARK  Name = 28959550
REMARK  11 active torsions:
REMARK  status: ('A' for Active; 'I' for Inactive)
REMARK    1  A    between atoms: O_1  and  C_16
REMARK    2  A    between atoms: N_5  and  C_14
REMARK    3  A    between atoms: N_5  and  C_17
REMARK    4  A    between atoms: N_5  and  C_18
REMARK    5  A    between atoms: N_6  and  C_21
REMARK    6  A    between atoms: C_7  and  C_11
REMARK    7  A    between atoms: C_8  and  C_13
REMARK    8  A    between atoms: C_11  and  C_14
REMARK    9  A    between atoms: C_13  and  C_16
REMARK   10  A    between atoms: C_17  and  C_19
REMARK   11  A    between atoms: C_18  and  C_20
REMARK                            x       y       z     vdW  Elec       q    Type
REMARK                         _______ _______ _______ _____ _____    ______ ____
ROOT
ATOM      2  O   UNL     1      -3.181   0.123  22.752  0.00  0.00    -0.252 OA
ATOM      4  N   UNL     1      -1.130   0.049  23.816  0.00  0.00    -0.285 N 
ATOM      6  N   UNL     1      -2.769   1.607  24.487  0.00  0.00    -0.269 N 
ATOM      7  C   UNL     1       1.139   0.974  24.191  0.00  0.00    +0.011 C 
ATOM      8  C   UNL     1       1.702  -0.121  23.246  0.00  0.00    +0.006 C 
ATOM      9  C   UNL     1       0.641  -0.613  22.245  0.00  0.00    +0.023 C 
ATOM     10  C   UNL     1      -0.163   0.473  24.839  0.00  0.00    +0.113 C 
ATOM     12  C   UNL     1      -0.647  -1.031  22.954  0.00  0.00    +0.109 C 
ATOM     15  C   UNL     1      -2.432   0.562  23.628  0.00  0.00    +0.306 C 
ATOM     27  H   UNL     1      -2.022   2.200  24.833  0.00  0.00    +0.156 HD
ENDROOT
BRANCH   6  21
ATOM     21  C   UNL     1      -4.058   1.937  24.975  0.00  0.00    +0.035 A 
ATOM     22  C   UNL     1      -4.957   0.923  25.309  0.00  0.00    +0.023 A 
ATOM     23  C   UNL     1      -4.427   3.273  25.120  0.00  0.00    +0.023 A 
ATOM     24  C   UNL     1      -6.225   1.248  25.789  0.00  0.00    +0.002 A 
ATOM     25  C   UNL     1      -5.696   3.598  25.600  0.00  0.00    +0.002 A 
ATOM     26  C   UNL     1      -6.596   2.585  25.934  0.00  0.00    +0.000 A 
ENDBRANCH   6  21
BRANCH   7  11
ATOM     11  C   UNL     1       0.914   2.330  23.512  0.00  0.00    +0.020 C 
BRANCH  11  14
ATOM     14  C   UNL     1      -0.410   2.942  23.947  0.00  0.00    +0.084 C 
BRANCH  14   5
ATOM      5  N   UNL     1      -0.191   3.859  25.059  0.00  0.00    -0.303 NA
BRANCH   5  17
ATOM     17  C   UNL     1      -0.856   3.371  26.269  0.00  0.00    +0.081 C 
ATOM     19  C   UNL     1       0.122   2.645  27.177  0.00  0.00    +0.020 C 
ENDBRANCH   5  17
BRANCH   5  18
ATOM     18  C   UNL     1      -0.670   5.201  24.722  0.00  0.00    +0.081 C 
ATOM     20  C   UNL     1      -2.031   5.469  25.341  0.00  0.00    +0.020 C 
ENDBRANCH   5  18
ENDBRANCH  14   5
ENDBRANCH  11  14
ENDBRANCH   7  11
BRANCH   8  13
ATOM     13  C   UNL     1       2.972   0.314  22.515  0.00  0.00    +0.124 C 
BRANCH  13  16
ATOM      3  O   UNL     1       5.088   0.853  23.598  0.00  0.00    -0.251 OA
ATOM     16  C   UNL     1       4.204   0.051  23.337  0.00  0.00    +0.305 C 
BRANCH  16   1
ATOM      1  O   UNL     1       4.202  -1.237  23.765  0.00  0.00    -0.481 OA
ATOM     28  H   UNL     1       3.297  -1.554  23.971  0.00  0.00    +0.295 HD
ENDBRANCH  16   1
ENDBRANCH  13  16
ENDBRANCH   8  13
TORSDOF 9
ENDMDL
