MODEL 1
REMARK VINA RESULT:       9.5      0.000      0.000
REMARK  Name = 11887601
REMARK  9 active torsions:
REMARK  status: ('A' for Active; 'I' for Inactive)
REMARK    1  A    between atoms: N_5  and  C_18
REMARK    2  A    between atoms: N_9  and  C_27
REMARK    3  A    between atoms: N_10  and  C_30
REMARK    4  A    between atoms: C_11  and  C_14
REMARK    5  A    between atoms: C_14  and  C_18
REMARK    6  A    between atoms: C_18  and  C_24
REMARK    7  A    between atoms: C_19  and  C_21
REMARK    8  A    between atoms: C_27  and  C_28
REMARK    9  A    between atoms: C_27  and  C_29
REMARK                            x       y       z     vdW  Elec       q    Type
REMARK                         _______ _______ _______ _____ _____    ______ ____
ROOT
ATOM      3  O   UNL     1       3.184  -1.871  23.873  0.00  0.00    -0.253 OA
ATOM      4  O   UNL     1      -3.190  -1.129  26.533  0.00  0.00    -0.252 OA
ATOM      6  N   UNL     1       1.165  -0.729  23.996  0.00  0.00    -0.271 N 
ATOM      7  N   UNL     1      -1.610  -0.619  24.923  0.00  0.00    -0.282 N 
ATOM      9  N   UNL     1       3.014   0.171  22.828  0.00  0.00    -0.297 N 
ATOM     10  N   UNL     1      -3.855   0.040  24.632  0.00  0.00    -0.269 N 
ATOM     19  C   UNL     1       0.272   0.355  23.562  0.00  0.00    +0.181 C 
ATOM     20  C   UNL     1      -1.215  -0.004  23.646  0.00  0.00    +0.141 C 
ATOM     22  C   UNL     1       0.563  -1.795  24.800  0.00  0.00    +0.129 C 
ATOM     23  C   UNL     1      -0.559  -1.286  25.690  0.00  0.00    +0.128 C 
ATOM     25  C   UNL     1       2.505  -0.881  23.584  0.00  0.00    +0.303 C 
ATOM     26  C   UNL     1      -2.923  -0.599  25.451  0.00  0.00    +0.307 C 
ATOM     39  H   UNL     1       2.479   1.023  22.720  0.00  0.00    +0.150 HD
ATOM     40  H   UNL     1      -3.685   0.032  23.630  0.00  0.00    +0.156 HD
ENDROOT
BRANCH  10  30
ATOM     30  C   UNL     1      -5.020   0.739  25.032  0.00  0.00    +0.035 A 
ATOM     31  C   UNL     1      -5.276   0.952  26.388  0.00  0.00    +0.023 A 
ATOM     32  C   UNL     1      -5.913   1.215  24.072  0.00  0.00    +0.023 A 
ATOM     33  C   UNL     1      -6.422   1.641  26.781  0.00  0.00    +0.002 A 
ATOM     34  C   UNL     1      -7.060   1.904  24.466  0.00  0.00    +0.002 A 
ATOM     35  C   UNL     1      -7.314   2.117  25.821  0.00  0.00    +0.000 A 
ENDBRANCH  10  30
BRANCH  19  21
ATOM      1  O   UNL     1       1.514   2.296  24.194  0.00  0.00    -0.274 OA
ATOM      5  N   UNL     1      -0.343   1.687  25.457  0.00  0.00    -0.302 N 
ATOM     21  C   UNL     1       0.561   1.554  24.417  0.00  0.00    +0.236 C 
ATOM     36  H   UNL     1      -1.048   0.968  25.590  0.00  0.00    +0.150 HD
BRANCH   5  18
ATOM     18  C   UNL     1      -0.271   2.746  26.437  0.00  0.00    +0.159 C 
BRANCH  18  24
ATOM      2  O   UNL     1       0.243   1.707  28.573  0.00  0.00    -0.274 OA
ATOM      8  N   UNL     1       1.956   2.660  27.378  0.00  0.00    -0.328 N 
ATOM     24  C   UNL     1       0.640   2.301  27.573  0.00  0.00    +0.231 C 
ATOM     37  H   UNL     1       2.268   3.169  26.557  0.00  0.00    +0.145 HD
ATOM     38  H   UNL     1       2.667   2.431  28.066  0.00  0.00    +0.145 HD
ENDBRANCH  18  24
BRANCH  18  14
ATOM     14  C   UNL     1      -1.658   3.179  26.925  0.00  0.00    +0.035 C 
BRANCH  14  11
ATOM     11  C   UNL     1      -2.729   3.192  25.836  0.00  0.00    -0.009 C 
ATOM     12  C   UNL     1      -2.088   3.338  24.449  0.00  0.00    +0.003 C 
ATOM     13  C   UNL     1      -3.745   4.313  26.089  0.00  0.00    +0.003 C 
ATOM     15  C   UNL     1      -3.143   3.407  23.346  0.00  0.00    +0.000 C 
ATOM     16  C   UNL     1      -4.797   4.382  24.984  0.00  0.00    +0.000 C 
ATOM     17  C   UNL     1      -4.156   4.517  23.606  0.00  0.00    +0.000 C 
ENDBRANCH  14  11
ENDBRANCH  18  14
ENDBRANCH   5  18
ENDBRANCH  19  21
BRANCH   9  27
ATOM     27  C   UNL     1       4.371   0.181  22.328  0.00  0.00    +0.068 C 
ATOM     28  C   UNL     1       5.353  -0.104  23.456  0.00  0.00    +0.027 C 
ATOM     29  C   UNL     1       4.679   1.509  21.648  0.00  0.00    +0.027 C 
ENDBRANCH   9  27
TORSDOF 7
ENDMDL
MODEL 2
REMARK VINA RESULT:      10.5      2.149      7.525
REMARK  Name = 11887601
REMARK  9 active torsions:
REMARK  status: ('A' for Active; 'I' for Inactive)
REMARK    1  A    between atoms: N_5  and  C_18
REMARK    2  A    between atoms: N_9  and  C_27
REMARK    3  A    between atoms: N_10  and  C_30
REMARK    4  A    between atoms: C_11  and  C_14
REMARK    5  A    between atoms: C_14  and  C_18
REMARK    6  A    between atoms: C_18  and  C_24
REMARK    7  A    between atoms: C_19  and  C_21
REMARK    8  A    between atoms: C_27  and  C_28
REMARK    9  A    between atoms: C_27  and  C_29
REMARK                            x       y       z     vdW  Elec       q    Type
REMARK                         _______ _______ _______ _____ _____    ______ ____
ROOT
ATOM      3  O   UNL     1      -5.959   0.588  23.844  0.00  0.00    -0.253 OA
ATOM      4  O   UNL     1       0.535   0.061  21.433  0.00  0.00    -0.252 OA
ATOM      6  N   UNL     1      -3.665   0.534  24.208  0.00  0.00    -0.271 N 
ATOM      7  N   UNL     1      -0.968   0.020  23.190  0.00  0.00    -0.282 N 
ATOM      9  N   UNL     1      -5.167   1.140  25.931  0.00  0.00    -0.297 N 
ATOM     10  N   UNL     1       1.252  -0.705  23.512  0.00  0.00    -0.269 N 
ATOM     19  C   UNL     1      -2.506   0.562  25.110  0.00  0.00    +0.181 C 
ATOM     20  C   UNL     1      -1.308  -0.245  24.597  0.00  0.00    +0.141 C 
ATOM     22  C   UNL     1      -3.413   0.118  22.827  0.00  0.00    +0.129 C 
ATOM     23  C   UNL     1      -2.036   0.537  22.337  0.00  0.00    +0.128 C 
ATOM     25  C   UNL     1      -5.002   0.742  24.608  0.00  0.00    +0.303 C 
ATOM     26  C   UNL     1       0.311  -0.186  22.621  0.00  0.00    +0.307 C 
ATOM     39  H   UNL     1      -4.360   1.383  26.493  0.00  0.00    +0.150 HD
ATOM     40  H   UNL     1       0.910  -1.283  24.274  0.00  0.00    +0.156 HD
ENDROOT
BRANCH  10  30
ATOM     30  C   UNL     1       2.654  -0.499  23.505  0.00  0.00    +0.035 A 
ATOM     31  C   UNL     1       3.509  -1.503  23.962  0.00  0.00    +0.023 A 
ATOM     32  C   UNL     1       3.180   0.707  23.041  0.00  0.00    +0.023 A 
ATOM     33  C   UNL     1       4.889  -1.300  23.954  0.00  0.00    +0.002 A 
ATOM     34  C   UNL     1       4.559   0.909  23.034  0.00  0.00    +0.002 A 
ATOM     35  C   UNL     1       5.414  -0.095  23.490  0.00  0.00    +0.000 A 
ENDBRANCH  10  30
BRANCH  19  21
ATOM      1  O   UNL     1      -2.890   2.921  25.068  0.00  0.00    -0.274 OA
ATOM      5  N   UNL     1      -0.808   2.131  25.744  0.00  0.00    -0.302 N 
ATOM     21  C   UNL     1      -2.113   1.998  25.304  0.00  0.00    +0.236 C 
ATOM     36  H   UNL     1      -0.231   1.298  25.832  0.00  0.00    +0.150 HD
BRANCH   5  18
ATOM     18  C   UNL     1      -0.180   3.410  25.984  0.00  0.00    +0.159 C 
BRANCH  18  24
ATOM      2  O   UNL     1       0.111   4.016  23.649  0.00  0.00    -0.274 OA
ATOM      8  N   UNL     1      -1.090   5.426  25.006  0.00  0.00    -0.328 N 
ATOM     24  C   UNL     1      -0.363   4.284  24.751  0.00  0.00    +0.231 C 
ATOM     37  H   UNL     1      -1.459   5.646  25.925  0.00  0.00    +0.145 HD
ATOM     38  H   UNL     1      -1.277   6.100  24.269  0.00  0.00    +0.145 HD
ENDBRANCH  18  24
BRANCH  18  14
ATOM     14  C   UNL     1       1.289   3.265  26.397  0.00  0.00    +0.035 C 
BRANCH  14  11
ATOM     11  C   UNL     1       1.519   3.269  27.907  0.00  0.00    -0.009 C 
ATOM     12  C   UNL     1       2.932   2.773  28.240  0.00  0.00    +0.003 C 
ATOM     13  C   UNL     1       0.459   2.419  28.619  0.00  0.00    +0.003 C 
ATOM     15  C   UNL     1       3.169   2.718  29.747  0.00  0.00    +0.000 C 
ATOM     16  C   UNL     1       0.700   2.363  30.126  0.00  0.00    +0.000 C 
ATOM     17  C   UNL     1       2.109   1.878  30.453  0.00  0.00    +0.000 C 
ENDBRANCH  14  11
ENDBRANCH  18  14
ENDBRANCH   5  18
ENDBRANCH  19  21
BRANCH   9  27
ATOM     27  C   UNL     1      -6.468   1.401  26.506  0.00  0.00    +0.068 C 
ATOM     28  C   UNL     1      -6.803   2.883  26.404  0.00  0.00    +0.027 C 
ATOM     29  C   UNL     1      -6.520   0.920  27.951  0.00  0.00    +0.027 C 
ENDBRANCH   9  27
TORSDOF 7
ENDMDL
MODEL 3
REMARK VINA RESULT:      10.6      2.105      3.911
REMARK  Name = 11887601
REMARK  9 active torsions:
REMARK  status: ('A' for Active; 'I' for Inactive)
REMARK    1  A    between atoms: N_5  and  C_18
REMARK    2  A    between atoms: N_9  and  C_27
REMARK    3  A    between atoms: N_10  and  C_30
REMARK    4  A    between atoms: C_11  and  C_14
REMARK    5  A    between atoms: C_14  and  C_18
REMARK    6  A    between atoms: C_18  and  C_24
REMARK    7  A    between atoms: C_19  and  C_21
REMARK    8  A    between atoms: C_27  and  C_28
REMARK    9  A    between atoms: C_27  and  C_29
REMARK                            x       y       z     vdW  Elec       q    Type
REMARK                         _______ _______ _______ _____ _____    ______ ____
ROOT
ATOM      3  O   UNL     1       2.745  -0.358  21.599  0.00  0.00    -0.253 OA
ATOM      4  O   UNL     1      -3.902   1.309  22.745  0.00  0.00    -0.252 OA
ATOM      6  N   UNL     1       1.131   0.827  22.778  0.00  0.00    -0.271 N 
ATOM      7  N   UNL     1      -1.645   1.720  23.038  0.00  0.00    -0.282 N 
ATOM      9  N   UNL     1       3.380   0.758  23.506  0.00  0.00    -0.297 N 
ATOM     10  N   UNL     1      -3.239   3.329  23.693  0.00  0.00    -0.269 N 
ATOM     19  C   UNL     1       0.750   1.794  23.817  0.00  0.00    +0.181 C 
ATOM     20  C   UNL     1      -0.532   2.568  23.493  0.00  0.00    +0.141 C 
ATOM     22  C   UNL     1       0.090   0.442  21.823  0.00  0.00    +0.129 C 
ATOM     23  C   UNL     1      -1.295   0.429  22.450  0.00  0.00    +0.128 C 
ATOM     25  C   UNL     1       2.444   0.358  22.558  0.00  0.00    +0.303 C 
ATOM     26  C   UNL     1      -3.013   2.067  23.140  0.00  0.00    +0.307 C 
ATOM     39  H   UNL     1       3.079   1.233  24.349  0.00  0.00    +0.150 HD
ATOM     40  H   UNL     1      -2.519   4.034  23.566  0.00  0.00    +0.156 HD
ENDROOT
BRANCH  10  30
ATOM     30  C   UNL     1      -4.358   3.751  24.452  0.00  0.00    +0.035 A 
ATOM     31  C   UNL     1      -5.072   2.827  25.215  0.00  0.00    +0.023 A 
ATOM     32  C   UNL     1      -4.746   5.091  24.437  0.00  0.00    +0.023 A 
ATOM     33  C   UNL     1      -6.173   3.243  25.963  0.00  0.00    +0.002 A 
ATOM     34  C   UNL     1      -5.848   5.506  25.185  0.00  0.00    +0.002 A 
ATOM     35  C   UNL     1      -6.561   4.582  25.948  0.00  0.00    +0.000 A 
ENDBRANCH  10  30
BRANCH  19  21
ATOM      1  O   UNL     1       0.892   1.526  26.188  0.00  0.00    -0.274 OA
ATOM      5  N   UNL     1       0.076  -0.234  24.902  0.00  0.00    -0.302 N 
ATOM     21  C   UNL     1       0.583   1.038  25.104  0.00  0.00    +0.236 C 
ATOM     36  H   UNL     1      -0.072  -0.561  23.952  0.00  0.00    +0.150 HD
BRANCH   5  18
ATOM     18  C   UNL     1      -0.156  -1.172  25.977  0.00  0.00    +0.159 C 
BRANCH  18  24
ATOM      2  O   UNL     1      -0.072  -3.595  25.821  0.00  0.00    -0.274 OA
ATOM      8  N   UNL     1       1.702  -2.384  25.011  0.00  0.00    -0.328 N 
ATOM     24  C   UNL     1       0.462  -2.511  25.600  0.00  0.00    +0.231 C 
ATOM     37  H   UNL     1       2.141  -1.483  24.852  0.00  0.00    +0.145 HD
ATOM     38  H   UNL     1       2.226  -3.202  24.719  0.00  0.00    +0.145 HD
ENDBRANCH  18  24
BRANCH  18  14
ATOM     14  C   UNL     1      -1.642  -1.285  26.336  0.00  0.00    +0.035 C 
BRANCH  14  11
ATOM     11  C   UNL     1      -2.573  -1.379  25.129  0.00  0.00    -0.009 C 
ATOM     12  C   UNL     1      -3.914  -0.694  25.426  0.00  0.00    +0.003 C 
ATOM     13  C   UNL     1      -2.786  -2.843  24.723  0.00  0.00    +0.003 C 
ATOM     15  C   UNL     1      -4.883  -0.821  24.252  0.00  0.00    +0.000 C 
ATOM     16  C   UNL     1      -3.757  -2.968  23.551  0.00  0.00    +0.000 C 
ATOM     17  C   UNL     1      -5.086  -2.277  23.845  0.00  0.00    +0.000 C 
ENDBRANCH  14  11
ENDBRANCH  18  14
ENDBRANCH   5  18
ENDBRANCH  19  21
BRANCH   9  27
ATOM     27  C   UNL     1       4.770   0.365  23.438  0.00  0.00    +0.068 C 
ATOM     28  C   UNL     1       4.934  -1.083  23.882  0.00  0.00    +0.027 C 
ATOM     29  C   UNL     1       5.632   1.301  24.275  0.00  0.00    +0.027 C 
ENDBRANCH   9  27
TORSDOF 7
ENDMDL
MODEL 4
REMARK VINA RESULT:      11.3      1.492      3.304
REMARK  Name = 11887601
REMARK  9 active torsions:
REMARK  status: ('A' for Active; 'I' for Inactive)
REMARK    1  A    between atoms: N_5  and  C_18
REMARK    2  A    between atoms: N_9  and  C_27
REMARK    3  A    between atoms: N_10  and  C_30
REMARK    4  A    between atoms: C_11  and  C_14
REMARK    5  A    between atoms: C_14  and  C_18
REMARK    6  A    between atoms: C_18  and  C_24
REMARK    7  A    between atoms: C_19  and  C_21
REMARK    8  A    between atoms: C_27  and  C_28
REMARK    9  A    between atoms: C_27  and  C_29
REMARK                            x       y       z     vdW  Elec       q    Type
REMARK                         _______ _______ _______ _____ _____    ______ ____
ROOT
ATOM      3  O   UNL     1       2.976  -1.962  23.781  0.00  0.00    -0.253 OA
ATOM      4  O   UNL     1      -3.488  -1.048  26.158  0.00  0.00    -0.252 OA
ATOM      6  N   UNL     1       1.012  -0.724  23.876  0.00  0.00    -0.271 N 
ATOM      7  N   UNL     1      -1.800  -0.524  24.667  0.00  0.00    -0.282 N 
ATOM      9  N   UNL     1       2.964   0.147  22.863  0.00  0.00    -0.297 N 
ATOM     10  N   UNL     1      -3.990   0.269  24.305  0.00  0.00    -0.269 N 
ATOM     19  C   UNL     1       0.199   0.430  23.467  0.00  0.00    +0.181 C 
ATOM     20  C   UNL     1      -1.307   0.146  23.453  0.00  0.00    +0.141 C 
ATOM     22  C   UNL     1       0.316  -1.804  24.578  0.00  0.00    +0.129 C 
ATOM     23  C   UNL     1      -0.826  -1.292  25.441  0.00  0.00    +0.128 C 
ATOM     25  C   UNL     1       2.364  -0.921  23.523  0.00  0.00    +0.303 C 
ATOM     26  C   UNL     1      -3.136  -0.468  25.128  0.00  0.00    +0.307 C 
ATOM     39  H   UNL     1       2.478   1.031  22.783  0.00  0.00    +0.150 HD
ATOM     40  H   UNL     1      -3.767   0.314  23.315  0.00  0.00    +0.156 HD
ENDROOT
BRANCH  10  30
ATOM     30  C   UNL     1      -5.139   1.003  24.690  0.00  0.00    +0.035 A 
ATOM     31  C   UNL     1      -5.094   1.833  25.811  0.00  0.00    +0.023 A 
ATOM     32  C   UNL     1      -6.316   0.896  23.949  0.00  0.00    +0.023 A 
ATOM     33  C   UNL     1      -6.225   2.556  26.189  0.00  0.00    +0.002 A 
ATOM     34  C   UNL     1      -7.447   1.620  24.327  0.00  0.00    +0.002 A 
ATOM     35  C   UNL     1      -7.401   2.450  25.448  0.00  0.00    +0.000 A 
ENDBRANCH  10  30
BRANCH  19  21
ATOM      1  O   UNL     1       1.601   2.103  24.441  0.00  0.00    -0.274 OA
ATOM      5  N   UNL     1      -0.578   1.866  25.222  0.00  0.00    -0.302 N 
ATOM     21  C   UNL     1       0.501   1.557  24.412  0.00  0.00    +0.236 C 
ATOM     36  H   UNL     1      -1.417   1.295  25.163  0.00  0.00    +0.150 HD
BRANCH   5  18
ATOM     18  C   UNL     1      -0.539   2.898  26.233  0.00  0.00    +0.159 C 
BRANCH  18  24
ATOM      2  O   UNL     1      -2.643   4.114  26.207  0.00  0.00    -0.274 OA
ATOM      8  N   UNL     1      -0.902   4.911  24.940  0.00  0.00    -0.328 N 
ATOM     24  C   UNL     1      -1.480   4.022  25.820  0.00  0.00    +0.231 C 
ATOM     37  H   UNL     1       0.054   4.812  24.612  0.00  0.00    +0.145 HD
ATOM     38  H   UNL     1      -1.425   5.703  24.580  0.00  0.00    +0.145 HD
ENDBRANCH  18  24
BRANCH  18  14
ATOM     14  C   UNL     1       0.887   3.387  26.506  0.00  0.00    +0.035 C 
BRANCH  14  11
ATOM     11  C   UNL     1       1.303   3.319  27.974  0.00  0.00    -0.009 C 
ATOM     12  C   UNL     1       2.752   2.831  28.104  0.00  0.00    +0.003 C 
ATOM     13  C   UNL     1       0.349   2.416  28.766  0.00  0.00    +0.003 C 
ATOM     15  C   UNL     1       3.174   2.705  29.566  0.00  0.00    +0.000 C 
ATOM     16  C   UNL     1       0.775   2.289  30.227  0.00  0.00    +0.000 C 
ATOM     17  C   UNL     1       2.219   1.812  30.352  0.00  0.00    +0.000 C 
ENDBRANCH  14  11
ENDBRANCH  18  14
ENDBRANCH   5  18
ENDBRANCH  19  21
BRANCH   9  27
ATOM     27  C   UNL     1       4.344   0.116  22.434  0.00  0.00    +0.068 C 
ATOM     28  C   UNL     1       5.232  -0.434  23.543  0.00  0.00    +0.027 C 
ATOM     29  C   UNL     1       4.799   1.503  21.998  0.00  0.00    +0.027 C 
ENDBRANCH   9  27
TORSDOF 7
ENDMDL
MODEL 5
REMARK VINA RESULT:      11.7      1.666      6.858
REMARK  Name = 11887601
REMARK  9 active torsions:
REMARK  status: ('A' for Active; 'I' for Inactive)
REMARK    1  A    between atoms: N_5  and  C_18
REMARK    2  A    between atoms: N_9  and  C_27
REMARK    3  A    between atoms: N_10  and  C_30
REMARK    4  A    between atoms: C_11  and  C_14
REMARK    5  A    between atoms: C_14  and  C_18
REMARK    6  A    between atoms: C_18  and  C_24
REMARK    7  A    between atoms: C_19  and  C_21
REMARK    8  A    between atoms: C_27  and  C_28
REMARK    9  A    between atoms: C_27  and  C_29
REMARK                            x       y       z     vdW  Elec       q    Type
REMARK                         _______ _______ _______ _____ _____    ______ ____
ROOT
ATOM      3  O   UNL     1      -4.832   0.096  23.169  0.00  0.00    -0.253 OA
ATOM      4  O   UNL     1       1.864  -0.138  21.329  0.00  0.00    -0.252 OA
ATOM      6  N   UNL     1      -2.578   0.083  23.734  0.00  0.00    -0.271 N 
ATOM      7  N   UNL     1       0.213  -0.307  22.939  0.00  0.00    -0.282 N 
ATOM      9  N   UNL     1      -4.244   0.561  25.343  0.00  0.00    -0.297 N 
ATOM     10  N   UNL     1       2.417  -0.990  23.424  0.00  0.00    -0.269 N 
ATOM     19  C   UNL     1      -1.505   0.096  24.737  0.00  0.00    +0.181 C 
ATOM     20  C   UNL     1      -0.243  -0.652  24.295  0.00  0.00    +0.141 C 
ATOM     22  C   UNL     1      -2.193  -0.255  22.362  0.00  0.00    +0.129 C 
ATOM     23  C   UNL     1      -0.791   0.225  22.020  0.00  0.00    +0.128 C 
ATOM     25  C   UNL     1      -3.951   0.236  24.022  0.00  0.00    +0.303 C 
ATOM     26  C   UNL     1       1.543  -0.450  22.478  0.00  0.00    +0.307 C 
ATOM     39  H   UNL     1      -3.498   0.797  25.985  0.00  0.00    +0.150 HD
ATOM     40  H   UNL     1       2.026  -1.614  24.124  0.00  0.00    +0.156 HD
ENDROOT
BRANCH  10  30
ATOM     30  C   UNL     1       3.806  -0.747  23.553  0.00  0.00    +0.035 A 
ATOM     31  C   UNL     1       4.322   0.521  23.278  0.00  0.00    +0.023 A 
ATOM     32  C   UNL     1       4.660  -1.774  23.953  0.00  0.00    +0.023 A 
ATOM     33  C   UNL     1       5.690   0.760  23.405  0.00  0.00    +0.002 A 
ATOM     34  C   UNL     1       6.028  -1.535  24.080  0.00  0.00    +0.002 A 
ATOM     35  C   UNL     1       6.543  -0.267  23.807  0.00  0.00    +0.000 A 
ENDBRANCH  10  30
BRANCH  19  21
ATOM      1  O   UNL     1      -1.295   2.413  24.188  0.00  0.00    -0.274 OA
ATOM      5  N   UNL     1      -0.718   1.706  26.329  0.00  0.00    -0.302 N 
ATOM     21  C   UNL     1      -1.175   1.530  25.034  0.00  0.00    +0.236 C 
ATOM     36  H   UNL     1      -0.586   0.890  26.919  0.00  0.00    +0.150 HD
BRANCH   5  18
ATOM     18  C   UNL     1      -0.312   2.988  26.857  0.00  0.00    +0.159 C 
BRANCH  18  24
ATOM      2  O   UNL     1       2.002   3.109  27.589  0.00  0.00    -0.274 OA
ATOM      8  N   UNL     1       0.461   2.137  28.986  0.00  0.00    -0.328 N 
ATOM     24  C   UNL     1       0.843   2.775  27.826  0.00  0.00    +0.231 C 
ATOM     37  H   UNL     1      -0.497   1.848  29.161  0.00  0.00    +0.145 HD
ATOM     38  H   UNL     1       1.138   1.927  29.713  0.00  0.00    +0.145 HD
ENDBRANCH  18  24
BRANCH  18  14
ATOM     14  C   UNL     1      -1.481   3.752  27.487  0.00  0.00    +0.035 C 
BRANCH  14  11
ATOM     11  C   UNL     1      -2.353   4.503  26.483  0.00  0.00    -0.009 C 
ATOM     12  C   UNL     1      -3.556   3.647  26.064  0.00  0.00    +0.003 C 
ATOM     13  C   UNL     1      -1.530   4.925  25.259  0.00  0.00    +0.003 C 
ATOM     15  C   UNL     1      -4.415   4.357  25.019  0.00  0.00    +0.000 C 
ATOM     16  C   UNL     1      -2.392   5.632  24.215  0.00  0.00    +0.000 C 
ATOM     17  C   UNL     1      -3.591   4.782  23.808  0.00  0.00    +0.000 C 
ENDBRANCH  14  11
ENDBRANCH  18  14
ENDBRANCH   5  18
ENDBRANCH  19  21
BRANCH   9  27
ATOM     27  C   UNL     1      -5.598   0.759  25.810  0.00  0.00    +0.068 C 
ATOM     28  C   UNL     1      -6.433   1.448  24.738  0.00  0.00    +0.027 C 
ATOM     29  C   UNL     1      -5.604   1.553  27.110  0.00  0.00    +0.027 C 
ENDBRANCH   9  27
TORSDOF 7
ENDMDL
MODEL 6
REMARK VINA RESULT:      12.6      2.095      7.598
REMARK  Name = 11887601
REMARK  9 active torsions:
REMARK  status: ('A' for Active; 'I' for Inactive)
REMARK    1  A    between atoms: N_5  and  C_18
REMARK    2  A    between atoms: N_9  and  C_27
REMARK    3  A    between atoms: N_10  and  C_30
REMARK    4  A    between atoms: C_11  and  C_14
REMARK    5  A    between atoms: C_14  and  C_18
REMARK    6  A    between atoms: C_18  and  C_24
REMARK    7  A    between atoms: C_19  and  C_21
REMARK    8  A    between atoms: C_27  and  C_28
REMARK    9  A    between atoms: C_27  and  C_29
REMARK                            x       y       z     vdW  Elec       q    Type
REMARK                         _______ _______ _______ _____ _____    ______ ____
ROOT
ATOM      3  O   UNL     1      -4.714   1.555  23.145  0.00  0.00    -0.253 OA
ATOM      4  O   UNL     1       2.133   1.338  21.988  0.00  0.00    -0.252 OA
ATOM      6  N   UNL     1      -2.588   0.819  23.723  0.00  0.00    -0.271 N 
ATOM      7  N   UNL     1       0.243   0.517  23.038  0.00  0.00    -0.282 N 
ATOM      9  N   UNL     1      -4.431   0.506  25.171  0.00  0.00    -0.297 N 
ATOM     10  N   UNL     1       2.270  -0.683  23.136  0.00  0.00    -0.269 N 
ATOM     19  C   UNL     1      -1.687   0.041  24.585  0.00  0.00    +0.181 C 
ATOM     20  C   UNL     1      -0.448  -0.491  23.857  0.00  0.00    +0.141 C 
ATOM     22  C   UNL     1      -2.027   1.317  22.465  0.00  0.00    +0.129 C 
ATOM     23  C   UNL     1      -0.551   1.658  22.584  0.00  0.00    +0.128 C 
ATOM     25  C   UNL     1      -3.967   0.999  23.955  0.00  0.00    +0.303 C 
ATOM     26  C   UNL     1       1.609   0.457  22.674  0.00  0.00    +0.307 C 
ATOM     39  H   UNL     1      -3.775   0.176  25.868  0.00  0.00    +0.150 HD
ATOM     40  H   UNL     1       1.717  -1.525  23.272  0.00  0.00    +0.156 HD
ENDROOT
BRANCH  10  30
ATOM     30  C   UNL     1       3.639  -0.808  23.476  0.00  0.00    +0.035 A 
ATOM     31  C   UNL     1       4.492   0.289  23.353  0.00  0.00    +0.023 A 
ATOM     32  C   UNL     1       4.136  -2.029  23.934  0.00  0.00    +0.023 A 
ATOM     33  C   UNL     1       5.840   0.166  23.688  0.00  0.00    +0.002 A 
ATOM     34  C   UNL     1       5.484  -2.152  24.269  0.00  0.00    +0.002 A 
ATOM     35  C   UNL     1       6.336  -1.054  24.146  0.00  0.00    +0.000 A 
ENDBRANCH  10  30
BRANCH  19  21
ATOM      1  O   UNL     1      -0.841   0.463  26.780  0.00  0.00    -0.274 OA
ATOM      5  N   UNL     1      -1.459   2.266  25.446  0.00  0.00    -0.302 N 
ATOM     21  C   UNL     1      -1.273   0.924  25.727  0.00  0.00    +0.236 C 
ATOM     36  H   UNL     1      -1.897   2.529  24.567  0.00  0.00    +0.150 HD
BRANCH   5  18
ATOM     18  C   UNL     1      -1.160   3.320  26.387  0.00  0.00    +0.159 C 
BRANCH  18  24
ATOM      2  O   UNL     1      -3.092   4.794  26.390  0.00  0.00    -0.274 OA
ATOM      8  N   UNL     1      -1.264   5.387  25.133  0.00  0.00    -0.328 N 
ATOM     24  C   UNL     1      -1.950   4.562  25.998  0.00  0.00    +0.231 C 
ATOM     37  H   UNL     1      -0.329   5.174  24.801  0.00  0.00    +0.145 HD
ATOM     38  H   UNL     1      -1.682   6.246  24.790  0.00  0.00    +0.145 HD
ENDBRANCH  18  24
BRANCH  18  14
ATOM     14  C   UNL     1       0.345   3.586  26.501  0.00  0.00    +0.035 C 
BRANCH  14  11
ATOM     11  C   UNL     1       1.041   2.787  27.601  0.00  0.00    -0.009 C 
ATOM     12  C   UNL     1       0.195   2.779  28.881  0.00  0.00    +0.003 C 
ATOM     13  C   UNL     1       2.442   3.349  27.875  0.00  0.00    +0.003 C 
ATOM     15  C   UNL     1       0.895   2.030  30.014  0.00  0.00    +0.000 C 
ATOM     16  C   UNL     1       3.138   2.601  29.010  0.00  0.00    +0.000 C 
ATOM     17  C   UNL     1       2.290   2.587  30.278  0.00  0.00    +0.000 C 
ENDBRANCH  14  11
ENDBRANCH  18  14
ENDBRANCH   5  18
ENDBRANCH  19  21
BRANCH   9  27
ATOM     27  C   UNL     1      -5.816   0.610  25.573  0.00  0.00    +0.068 C 
ATOM     28  C   UNL     1      -6.637   1.275  24.476  0.00  0.00    +0.027 C 
ATOM     29  C   UNL     1      -5.936   1.368  26.889  0.00  0.00    +0.027 C 
ENDBRANCH   9  27
TORSDOF 7
ENDMDL
