MODEL 1
REMARK VINA RESULT:      -6.4      0.000      0.000
REMARK  Name = 56775585
REMARK  7 active torsions:
REMARK  status: ('A' for Active; 'I' for Inactive)
REMARK    1  A    between atoms: O_3  and  C_20
REMARK    2  A    between atoms: N_4  and  C_7
REMARK    3  A    between atoms: N_4  and  C_11
REMARK    4  A    between atoms: C_7  and  C_10
REMARK    5  A    between atoms: C_10  and  C_12
REMARK    6  A    between atoms: C_11  and  C_13
REMARK    7  A    between atoms: C_15  and  C_20
REMARK                            x       y       z     vdW  Elec       q    Type
REMARK                         _______ _______ _______ _____ _____    ______ ____
ROOT
ATOM      4  N   UNL     1      -1.380  -1.808  24.269  0.00  0.00    -0.302 NA
ATOM     25  H   UNL     1      -1.049  -1.468  23.368  0.00  0.00    +0.123 HD
ENDROOT
BRANCH   4   7
ATOM      1  O   UNL     1      -3.488  -2.782  26.218  0.00  0.00    -0.376 OA
ATOM      7  C   UNL     1      -2.833  -1.783  24.449  0.00  0.00    +0.072 C 
ATOM      8  C   UNL     1      -3.304  -3.179  24.840  0.00  0.00    +0.184 C 
ATOM      9  C   UNL     1      -3.142  -1.415  25.895  0.00  0.00    +0.184 C 
BRANCH   7  10
ATOM     10  C   UNL     1      -3.544  -1.057  23.349  0.00  0.00    +0.085 C 
BRANCH  10  12
ATOM      2  O   UNL     1      -4.106   2.479  23.833  0.00  0.00    -0.357 OA
ATOM      5  N   UNL     1      -3.520   1.405  23.174  0.00  0.00    -0.083 NA
ATOM     12  C   UNL     1      -3.978   0.321  23.806  0.00  0.00    +0.086 A 
ATOM     14  C   UNL     1      -4.849   0.646  24.860  0.00  0.00    +0.073 A 
ATOM     15  C   UNL     1      -4.894   2.014  24.835  0.00  0.00    +0.163 A 
BRANCH  15  20
ATOM     20  C   UNL     1      -5.595   3.023  25.639  0.00  0.00    +0.232 C 
BRANCH  20   3
ATOM      3  O   UNL     1      -6.347   2.392  26.679  0.00  0.00    -0.387 OA
ATOM     26  H   UNL     1      -7.054   3.011  26.933  0.00  0.00    +0.210 HD
ENDBRANCH  20   3
ENDBRANCH  15  20
ENDBRANCH  10  12
ENDBRANCH   7  10
ENDBRANCH   4   7
BRANCH   4  11
ATOM     11  C   UNL     1      -0.750  -1.042  25.348  0.00  0.00    +0.118 C 
BRANCH  11  13
ATOM      6  N   UNL     1       0.380   2.148  23.698  0.00  0.00    -0.255 NA
ATOM     13  C   UNL     1      -0.629   0.404  25.026  0.00  0.00    -0.015 A 
ATOM     16  C   UNL     1      -1.371   1.358  25.710  0.00  0.00    +0.016 A 
ATOM     17  C   UNL     1       0.224   0.848  24.037  0.00  0.00    +0.116 A 
ATOM     18  C   UNL     1      -1.240   2.715  25.389  0.00  0.00    +0.001 A 
ATOM     19  C   UNL     1      -0.341   3.071  24.362  0.00  0.00    +0.071 A 
ATOM     21  C   UNL     1      -1.976   3.705  26.062  0.00  0.00    +0.010 A 
ATOM     22  C   UNL     1      -0.211   4.420  24.045  0.00  0.00    +0.028 A 
ATOM     23  C   UNL     1      -1.826   5.047  25.724  0.00  0.00    +0.001 A 
ATOM     24  C   UNL     1      -0.942   5.405  24.714  0.00  0.00    +0.002 A 
ENDBRANCH  11  13
ENDBRANCH   4  11
TORSDOF 7
ENDMDL
MODEL 2
REMARK VINA RESULT:      -5.9      1.967      5.089
REMARK  Name = 56775585
REMARK  7 active torsions:
REMARK  status: ('A' for Active; 'I' for Inactive)
REMARK    1  A    between atoms: O_3  and  C_20
REMARK    2  A    between atoms: N_4  and  C_7
REMARK    3  A    between atoms: N_4  and  C_11
REMARK    4  A    between atoms: C_7  and  C_10
REMARK    5  A    between atoms: C_10  and  C_12
REMARK    6  A    between atoms: C_11  and  C_13
REMARK    7  A    between atoms: C_15  and  C_20
REMARK                            x       y       z     vdW  Elec       q    Type
REMARK                         _______ _______ _______ _____ _____    ______ ____
ROOT
ATOM      4  N   UNL     1      -1.577   3.384  26.006  0.00  0.00    -0.302 NA
ATOM     25  H   UNL     1      -2.407   2.843  26.244  0.00  0.00    +0.123 HD
ENDROOT
BRANCH   4   7
ATOM      1  O   UNL     1      -0.174   5.659  24.575  0.00  0.00    -0.376 OA
ATOM      7  C   UNL     1      -1.669   4.146  24.758  0.00  0.00    +0.072 C 
ATOM      8  C   UNL     1      -1.529   5.630  25.079  0.00  0.00    +0.184 C 
ATOM      9  C   UNL     1      -0.273   4.278  24.160  0.00  0.00    +0.184 C 
BRANCH   7  10
ATOM     10  C   UNL     1      -2.794   3.695  23.880  0.00  0.00    +0.085 C 
BRANCH  10  12
ATOM      2  O   UNL     1      -5.530   3.320  26.210  0.00  0.00    -0.357 OA
ATOM      5  N   UNL     1      -4.478   4.036  25.653  0.00  0.00    -0.083 NA
ATOM     12  C   UNL     1      -3.974   3.234  24.711  0.00  0.00    +0.086 A 
ATOM     14  C   UNL     1      -4.661   2.010  24.629  0.00  0.00    +0.073 A 
ATOM     15  C   UNL     1      -5.629   2.115  25.592  0.00  0.00    +0.163 A 
BRANCH  15  20
ATOM     20  C   UNL     1      -6.696   1.224  26.061  0.00  0.00    +0.232 C 
BRANCH  20   3
ATOM      3  O   UNL     1      -7.120   1.604  27.374  0.00  0.00    -0.387 OA
ATOM     26  H   UNL     1      -7.635   2.424  27.278  0.00  0.00    +0.210 HD
ENDBRANCH  20   3
ENDBRANCH  15  20
ENDBRANCH  10  12
ENDBRANCH   7  10
ENDBRANCH   4   7
BRANCH   4  11
ATOM     11  C   UNL     1      -0.411   2.499  25.941  0.00  0.00    +0.118 C 
BRANCH  11  13
ATOM      6  N   UNL     1      -0.152  -0.751  24.056  0.00  0.00    -0.255 NA
ATOM     13  C   UNL     1      -0.748   1.147  25.422  0.00  0.00    -0.015 A 
ATOM     16  C   UNL     1      -1.928   0.512  25.785  0.00  0.00    +0.016 A 
ATOM     17  C   UNL     1       0.098   0.478  24.562  0.00  0.00    +0.116 A 
ATOM     18  C   UNL     1      -2.226  -0.762  25.284  0.00  0.00    +0.001 A 
ATOM     19  C   UNL     1      -1.297  -1.365  24.410  0.00  0.00    +0.071 A 
ATOM     21  C   UNL     1      -3.411  -1.432  25.632  0.00  0.00    +0.010 A 
ATOM     22  C   UNL     1      -1.594  -2.631  23.911  0.00  0.00    +0.028 A 
ATOM     23  C   UNL     1      -3.682  -2.697  25.119  0.00  0.00    +0.001 A 
ATOM     24  C   UNL     1      -2.772  -3.297  24.257  0.00  0.00    +0.002 A 
ENDBRANCH  11  13
ENDBRANCH   4  11
TORSDOF 7
ENDMDL
MODEL 3
REMARK VINA RESULT:      -5.7      2.292      4.687
REMARK  Name = 56775585
REMARK  7 active torsions:
REMARK  status: ('A' for Active; 'I' for Inactive)
REMARK    1  A    between atoms: O_3  and  C_20
REMARK    2  A    between atoms: N_4  and  C_7
REMARK    3  A    between atoms: N_4  and  C_11
REMARK    4  A    between atoms: C_7  and  C_10
REMARK    5  A    between atoms: C_10  and  C_12
REMARK    6  A    between atoms: C_11  and  C_13
REMARK    7  A    between atoms: C_15  and  C_20
REMARK                            x       y       z     vdW  Elec       q    Type
REMARK                         _______ _______ _______ _____ _____    ______ ____
ROOT
ATOM      4  N   UNL     1      -0.040   0.750  23.126  0.00  0.00    -0.302 NA
ATOM     25  H   UNL     1      -0.926   0.296  23.339  0.00  0.00    +0.123 HD
ENDROOT
BRANCH   4   7
ATOM      1  O   UNL     1       2.694   0.334  21.883  0.00  0.00    -0.376 OA
ATOM      7  C   UNL     1       1.147  -0.092  23.291  0.00  0.00    +0.072 C 
ATOM      8  C   UNL     1       1.587  -0.594  21.921  0.00  0.00    +0.184 C 
ATOM      9  C   UNL     1       2.388   0.790  23.221  0.00  0.00    +0.184 C 
BRANCH   7  10
ATOM     10  C   UNL     1       1.016  -1.070  24.416  0.00  0.00    +0.085 C 
BRANCH  10  12
ATOM      2  O   UNL     1      -2.352  -1.298  25.706  0.00  0.00    -0.357 OA
ATOM      5  N   UNL     1      -1.050  -0.814  25.743  0.00  0.00    -0.083 NA
ATOM     12  C   UNL     1      -0.440  -1.377  24.696  0.00  0.00    +0.086 A 
ATOM     14  C   UNL     1      -1.300  -2.219  23.969  0.00  0.00    +0.073 A 
ATOM     15  C   UNL     1      -2.488  -2.134  24.645  0.00  0.00    +0.163 A 
BRANCH  15  20
ATOM     20  C   UNL     1      -3.811  -2.740  24.454  0.00  0.00    +0.232 C 
BRANCH  20   3
ATOM      3  O   UNL     1      -4.684  -1.825  23.787  0.00  0.00    -0.387 OA
ATOM     26  H   UNL     1      -4.529  -0.948  24.179  0.00  0.00    +0.210 HD
ENDBRANCH  20   3
ENDBRANCH  15  20
ENDBRANCH  10  12
ENDBRANCH   7  10
ENDBRANCH   4   7
BRANCH   4  11
ATOM     11  C   UNL     1       0.109   1.954  23.948  0.00  0.00    +0.118 C 
BRANCH  11  13
ATOM      6  N   UNL     1      -2.435   4.208  25.568  0.00  0.00    -0.255 NA
ATOM     13  C   UNL     1      -1.193   2.468  24.449  0.00  0.00    -0.015 A 
ATOM     16  C   UNL     1      -2.363   1.738  24.291  0.00  0.00    +0.016 A 
ATOM     17  C   UNL     1      -1.283   3.687  25.089  0.00  0.00    +0.116 A 
ATOM     18  C   UNL     1      -3.578   2.242  24.772  0.00  0.00    +0.001 A 
ATOM     19  C   UNL     1      -3.569   3.499  25.413  0.00  0.00    +0.071 A 
ATOM     21  C   UNL     1      -4.780   1.528  24.627  0.00  0.00    +0.010 A 
ATOM     22  C   UNL     1      -4.777   3.998  25.891  0.00  0.00    +0.028 A 
ATOM     23  C   UNL     1      -5.973   2.051  25.115  0.00  0.00    +0.001 A 
ATOM     24  C   UNL     1      -5.972   3.289  25.748  0.00  0.00    +0.002 A 
ENDBRANCH  11  13
ENDBRANCH   4  11
TORSDOF 7
ENDMDL
MODEL 4
REMARK VINA RESULT:      -5.5     14.832     17.341
REMARK  Name = 56775585
REMARK  7 active torsions:
REMARK  status: ('A' for Active; 'I' for Inactive)
REMARK    1  A    between atoms: O_3  and  C_20
REMARK    2  A    between atoms: N_4  and  C_7
REMARK    3  A    between atoms: N_4  and  C_11
REMARK    4  A    between atoms: C_7  and  C_10
REMARK    5  A    between atoms: C_10  and  C_12
REMARK    6  A    between atoms: C_11  and  C_13
REMARK    7  A    between atoms: C_15  and  C_20
REMARK                            x       y       z     vdW  Elec       q    Type
REMARK                         _______ _______ _______ _____ _____    ______ ____
ROOT
ATOM      4  N   UNL     1      -5.274  -9.368  11.934  0.00  0.00    -0.302 NA
ATOM     25  H   UNL     1      -6.231  -9.095  12.152  0.00  0.00    +0.123 HD
ENDROOT
BRANCH   4   7
ATOM      1  O   UNL     1      -3.175  -9.092   9.764  0.00  0.00    -0.376 OA
ATOM      7  C   UNL     1      -5.043  -9.768  10.543  0.00  0.00    +0.072 C 
ATOM      8  C   UNL     1      -4.521  -8.565   9.767  0.00  0.00    +0.184 C 
ATOM      9  C   UNL     1      -3.621 -10.302  10.417  0.00  0.00    +0.184 C 
BRANCH   7  10
ATOM     10  C   UNL     1      -6.172 -10.569   9.972  0.00  0.00    +0.085 C 
BRANCH  10  12
ATOM      2  O   UNL     1      -9.331  -8.918  10.567  0.00  0.00    -0.357 OA
ATOM      5  N   UNL     1      -8.298  -9.770  10.939  0.00  0.00    -0.083 NA
ATOM     12  C   UNL     1      -7.441  -9.745   9.914  0.00  0.00    +0.086 A 
ATOM     14  C   UNL     1      -7.877  -8.902   8.876  0.00  0.00    +0.073 A 
ATOM     15  C   UNL     1      -9.068  -8.408   9.337  0.00  0.00    +0.163 A 
BRANCH  15  20
ATOM     20  C   UNL     1     -10.065  -7.482   8.785  0.00  0.00    +0.232 C 
BRANCH  20   3
ATOM      3  O   UNL     1      -9.566  -6.142   8.815  0.00  0.00    -0.387 OA
ATOM     26  H   UNL     1     -10.285  -5.579   9.149  0.00  0.00    +0.210 HD
ENDBRANCH  20   3
ENDBRANCH  15  20
ENDBRANCH  10  12
ENDBRANCH   7  10
ENDBRANCH   4   7
BRANCH   4  11
ATOM     11  C   UNL     1      -4.855 -10.457  12.821  0.00  0.00    +0.118 C 
BRANCH  11  13
ATOM      6  N   UNL     1      -7.507 -10.023  15.459  0.00  0.00    -0.255 NA
ATOM     13  C   UNL     1      -5.511 -10.391  14.154  0.00  0.00    -0.015 A 
ATOM     16  C   UNL     1      -4.794 -10.621  15.320  0.00  0.00    +0.016 A 
ATOM     17  C   UNL     1      -6.854 -10.098  14.277  0.00  0.00    +0.116 A 
ATOM     18  C   UNL     1      -5.433 -10.553  16.565  0.00  0.00    +0.001 A 
ATOM     19  C   UNL     1      -6.810 -10.247  16.589  0.00  0.00    +0.071 A 
ATOM     21  C   UNL     1      -4.736 -10.781  17.763  0.00  0.00    +0.010 A 
ATOM     22  C   UNL     1      -7.444 -10.179  17.826  0.00  0.00    +0.028 A 
ATOM     23  C   UNL     1      -5.395 -10.707  18.987  0.00  0.00    +0.001 A 
ATOM     24  C   UNL     1      -6.751 -10.406  19.018  0.00  0.00    +0.002 A 
ENDBRANCH  11  13
ENDBRANCH   4  11
TORSDOF 7
ENDMDL
MODEL 5
REMARK VINA RESULT:      -5.2     15.042     17.484
REMARK  Name = 56775585
REMARK  7 active torsions:
REMARK  status: ('A' for Active; 'I' for Inactive)
REMARK    1  A    between atoms: O_3  and  C_20
REMARK    2  A    between atoms: N_4  and  C_7
REMARK    3  A    between atoms: N_4  and  C_11
REMARK    4  A    between atoms: C_7  and  C_10
REMARK    5  A    between atoms: C_10  and  C_12
REMARK    6  A    between atoms: C_11  and  C_13
REMARK    7  A    between atoms: C_15  and  C_20
REMARK                            x       y       z     vdW  Elec       q    Type
REMARK                         _______ _______ _______ _____ _____    ______ ____
ROOT
ATOM      4  N   UNL     1      -5.394  -9.360  11.865  0.00  0.00    -0.302 NA
ATOM     25  H   UNL     1      -6.368  -9.063  11.853  0.00  0.00    +0.123 HD
ENDROOT
BRANCH   4   7
ATOM      1  O   UNL     1      -2.779  -9.710  10.372  0.00  0.00    -0.376 OA
ATOM      7  C   UNL     1      -4.893  -9.900  10.599  0.00  0.00    +0.072 C 
ATOM      8  C   UNL     1      -3.915  -8.901   9.992  0.00  0.00    +0.184 C 
ATOM      9  C   UNL     1      -3.654 -10.742  10.882  0.00  0.00    +0.184 C 
BRANCH   7  10
ATOM     10  C   UNL     1      -5.977 -10.472   9.739  0.00  0.00    +0.085 C 
BRANCH  10  12
ATOM      2  O   UNL     1      -8.910  -8.370   9.931  0.00  0.00    -0.357 OA
ATOM      5  N   UNL     1      -8.084  -9.377  10.415  0.00  0.00    -0.083 NA
ATOM     12  C   UNL     1      -7.087  -9.462   9.530  0.00  0.00    +0.086 A 
ATOM     14  C   UNL     1      -7.229  -8.543   8.476  0.00  0.00    +0.073 A 
ATOM     15  C   UNL     1      -8.390  -7.882   8.776  0.00  0.00    +0.163 A 
BRANCH  15  20
ATOM     20  C   UNL     1      -9.142  -6.803   8.124  0.00  0.00    +0.232 C 
BRANCH  20   3
ATOM      3  O   UNL     1      -8.591  -5.531   8.476  0.00  0.00    -0.387 OA
ATOM     26  H   UNL     1      -9.114  -4.857   8.009  0.00  0.00    +0.210 HD
ENDBRANCH  20   3
ENDBRANCH  15  20
ENDBRANCH  10  12
ENDBRANCH   7  10
ENDBRANCH   4   7
BRANCH   4  11
ATOM     11  C   UNL     1      -5.192 -10.354  12.923  0.00  0.00    +0.118 C 
BRANCH  11  13
ATOM      6  N   UNL     1      -6.175  -9.768  16.511  0.00  0.00    -0.255 NA
ATOM     13  C   UNL     1      -6.028 -10.088  14.123  0.00  0.00    -0.015 A 
ATOM     16  C   UNL     1      -7.402  -9.913  14.019  0.00  0.00    +0.016 A 
ATOM     17  C   UNL     1      -5.469 -10.006  15.382  0.00  0.00    +0.116 A 
ATOM     18  C   UNL     1      -8.170  -9.664  15.163  0.00  0.00    +0.001 A 
ATOM     19  C   UNL     1      -7.506  -9.598  16.407  0.00  0.00    +0.071 A 
ATOM     21  C   UNL     1      -9.561  -9.482  15.091  0.00  0.00    +0.010 A 
ATOM     22  C   UNL     1      -8.270  -9.351  17.544  0.00  0.00    +0.028 A 
ATOM     23  C   UNL     1     -10.300  -9.237  16.244  0.00  0.00    +0.001 A 
ATOM     24  C   UNL     1      -9.654  -9.171  17.472  0.00  0.00    +0.002 A 
ENDBRANCH  11  13
ENDBRANCH   4  11
TORSDOF 7
ENDMDL
MODEL 6
REMARK VINA RESULT:      -5.2      2.375      4.288
REMARK  Name = 56775585
REMARK  7 active torsions:
REMARK  status: ('A' for Active; 'I' for Inactive)
REMARK    1  A    between atoms: O_3  and  C_20
REMARK    2  A    between atoms: N_4  and  C_7
REMARK    3  A    between atoms: N_4  and  C_11
REMARK    4  A    between atoms: C_7  and  C_10
REMARK    5  A    between atoms: C_10  and  C_12
REMARK    6  A    between atoms: C_11  and  C_13
REMARK    7  A    between atoms: C_15  and  C_20
REMARK                            x       y       z     vdW  Elec       q    Type
REMARK                         _______ _______ _______ _____ _____    ______ ____
ROOT
ATOM      4  N   UNL     1      -4.312  -0.681  25.693  0.00  0.00    -0.302 NA
ATOM     25  H   UNL     1      -4.181  -0.171  26.565  0.00  0.00    +0.123 HD
ENDROOT
BRANCH   4   7
ATOM      1  O   UNL     1      -3.638  -2.860  23.696  0.00  0.00    -0.376 OA
ATOM      7  C   UNL     1      -3.172  -1.500  25.273  0.00  0.00    +0.072 C 
ATOM      8  C   UNL     1      -3.632  -2.947  25.139  0.00  0.00    +0.184 C 
ATOM      9  C   UNL     1      -3.112  -1.514  23.751  0.00  0.00    +0.184 C 
BRANCH   7  10
ATOM     10  C   UNL     1      -1.925  -1.202  26.046  0.00  0.00    +0.085 C 
BRANCH  10  12
ATOM      2  O   UNL     1       0.544   0.866  24.407  0.00  0.00    -0.357 OA
ATOM      5  N   UNL     1      -0.394   0.626  25.403  0.00  0.00    -0.083 NA
ATOM     12  C   UNL     1      -0.866  -0.598  25.146  0.00  0.00    +0.086 A 
ATOM     14  C   UNL     1      -0.268  -1.173  24.011  0.00  0.00    +0.073 A 
ATOM     15  C   UNL     1       0.610  -0.212  23.584  0.00  0.00    +0.163 A 
BRANCH  15  20
ATOM     20  C   UNL     1       1.559  -0.127  22.467  0.00  0.00    +0.232 C 
BRANCH  20   3
ATOM      3  O   UNL     1       2.656   0.723  22.812  0.00  0.00    -0.387 OA
ATOM     26  H   UNL     1       2.736   0.703  23.781  0.00  0.00    +0.210 HD
ENDBRANCH  20   3
ENDBRANCH  15  20
ENDBRANCH  10  12
ENDBRANCH   7  10
ENDBRANCH   4   7
BRANCH   4  11
ATOM     11  C   UNL     1      -4.649   0.256  24.617  0.00  0.00    +0.118 C 
BRANCH  11  13
ATOM      6  N   UNL     1      -4.283   3.818  25.782  0.00  0.00    -0.255 NA
ATOM     13  C   UNL     1      -4.071   1.608  24.836  0.00  0.00    -0.015 A 
ATOM     16  C   UNL     1      -2.824   1.947  24.330  0.00  0.00    +0.016 A 
ATOM     17  C   UNL     1      -4.754   2.572  25.549  0.00  0.00    +0.116 A 
ATOM     18  C   UNL     1      -2.299   3.228  24.548  0.00  0.00    +0.001 A 
ATOM     19  C   UNL     1      -3.073   4.145  25.290  0.00  0.00    +0.071 A 
ATOM     21  C   UNL     1      -1.040   3.603  24.049  0.00  0.00    +0.010 A 
ATOM     22  C   UNL     1      -2.551   5.417  25.506  0.00  0.00    +0.028 A 
ATOM     23  C   UNL     1      -0.543   4.882  24.280  0.00  0.00    +0.001 A 
ATOM     24  C   UNL     1      -1.300   5.790  25.010  0.00  0.00    +0.002 A 
ENDBRANCH  11  13
ENDBRANCH   4  11
TORSDOF 7
ENDMDL
MODEL 7
REMARK VINA RESULT:      -4.7     14.436     16.966
REMARK  Name = 56775585
REMARK  7 active torsions:
REMARK  status: ('A' for Active; 'I' for Inactive)
REMARK    1  A    between atoms: O_3  and  C_20
REMARK    2  A    between atoms: N_4  and  C_7
REMARK    3  A    between atoms: N_4  and  C_11
REMARK    4  A    between atoms: C_7  and  C_10
REMARK    5  A    between atoms: C_10  and  C_12
REMARK    6  A    between atoms: C_11  and  C_13
REMARK    7  A    between atoms: C_15  and  C_20
REMARK                            x       y       z     vdW  Elec       q    Type
REMARK                         _______ _______ _______ _____ _____    ______ ____
ROOT
ATOM      4  N   UNL     1      -5.352  -9.553  12.238  0.00  0.00    -0.302 NA
ATOM     25  H   UNL     1      -6.318  -9.380  12.509  0.00  0.00    +0.123 HD
ENDROOT
BRANCH   4   7
ATOM      1  O   UNL     1      -3.339  -8.649  10.158  0.00  0.00    -0.376 OA
ATOM      7  C   UNL     1      -5.118  -9.643  10.794  0.00  0.00    +0.072 C 
ATOM      8  C   UNL     1      -4.728  -8.265  10.274  0.00  0.00    +0.184 C 
ATOM      9  C   UNL     1      -3.656 -10.002  10.556  0.00  0.00    +0.184 C 
BRANCH   7  10
ATOM     10  C   UNL     1      -6.180 -10.417  10.078  0.00  0.00    +0.085 C 
BRANCH  10  12
ATOM      2  O   UNL     1      -9.434  -8.861  10.302  0.00  0.00    -0.357 OA
ATOM      5  N   UNL     1      -8.230  -9.108   9.654  0.00  0.00    -0.083 NA
ATOM     12  C   UNL     1      -7.559  -9.927  10.469  0.00  0.00    +0.086 A 
ATOM     14  C   UNL     1      -8.284 -10.228  11.635  0.00  0.00    +0.073 A 
ATOM     15  C   UNL     1      -9.453  -9.533  11.481  0.00  0.00    +0.163 A 
BRANCH  15  20
ATOM     20  C   UNL     1     -10.662  -9.383  12.301  0.00  0.00    +0.232 C 
BRANCH  20   3
ATOM      3  O   UNL     1     -10.310  -9.223  13.678  0.00  0.00    -0.387 OA
ATOM     26  H   UNL     1     -10.647 -10.004  14.149  0.00  0.00    +0.210 HD
ENDBRANCH  20   3
ENDBRANCH  15  20
ENDBRANCH  10  12
ENDBRANCH   7  10
ENDBRANCH   4   7
BRANCH   4  11
ATOM     11  C   UNL     1      -4.870 -10.780  12.878  0.00  0.00    +0.118 C 
BRANCH  11  13
ATOM      6  N   UNL     1      -3.891 -10.732  16.514  0.00  0.00    -0.255 NA
ATOM     13  C   UNL     1      -4.979 -10.732  14.359  0.00  0.00    -0.015 A 
ATOM     16  C   UNL     1      -6.215 -10.646  14.987  0.00  0.00    +0.016 A 
ATOM     17  C   UNL     1      -3.858 -10.772  15.162  0.00  0.00    +0.116 A 
ATOM     18  C   UNL     1      -6.294 -10.602  16.385  0.00  0.00    +0.001 A 
ATOM     19  C   UNL     1      -5.091 -10.649  17.120  0.00  0.00    +0.071 A 
ATOM     21  C   UNL     1      -7.529 -10.515  17.050  0.00  0.00    +0.010 A 
ATOM     22  C   UNL     1      -5.170 -10.606  18.509  0.00  0.00    +0.028 A 
ATOM     23  C   UNL     1      -7.579 -10.474  18.440  0.00  0.00    +0.001 A 
ATOM     24  C   UNL     1      -6.397 -10.519  19.170  0.00  0.00    +0.002 A 
ENDBRANCH  11  13
ENDBRANCH   4  11
TORSDOF 7
ENDMDL
MODEL 8
REMARK VINA RESULT:      -4.7     14.908     17.283
REMARK  Name = 56775585
REMARK  7 active torsions:
REMARK  status: ('A' for Active; 'I' for Inactive)
REMARK    1  A    between atoms: O_3  and  C_20
REMARK    2  A    between atoms: N_4  and  C_7
REMARK    3  A    between atoms: N_4  and  C_11
REMARK    4  A    between atoms: C_7  and  C_10
REMARK    5  A    between atoms: C_10  and  C_12
REMARK    6  A    between atoms: C_11  and  C_13
REMARK    7  A    between atoms: C_15  and  C_20
REMARK                            x       y       z     vdW  Elec       q    Type
REMARK                         _______ _______ _______ _____ _____    ______ ____
ROOT
ATOM      4  N   UNL     1      -5.150  -9.535   9.999  0.00  0.00    -0.302 NA
ATOM     25  H   UNL     1      -4.782  -8.743  10.523  0.00  0.00    +0.123 HD
ENDROOT
BRANCH   4   7
ATOM      1  O   UNL     1      -7.120  -7.787   8.496  0.00  0.00    -0.376 OA
ATOM      7  C   UNL     1      -6.582  -9.469   9.695  0.00  0.00    +0.072 C 
ATOM      8  C   UNL     1      -7.065  -8.041   9.918  0.00  0.00    +0.184 C 
ATOM      9  C   UNL     1      -6.755  -9.157   8.213  0.00  0.00    +0.184 C 
BRANCH   7  10
ATOM     10  C   UNL     1      -7.358 -10.601  10.293  0.00  0.00    +0.085 C 
BRANCH  10  12
ATOM      2  O   UNL     1      -9.716  -9.388  12.748  0.00  0.00    -0.357 OA
ATOM      5  N   UNL     1      -9.351  -9.709  11.446  0.00  0.00    -0.083 NA
ATOM     12  C   UNL     1      -8.093 -10.151  11.539  0.00  0.00    +0.086 A 
ATOM     14  C   UNL     1      -7.617 -10.131  12.861  0.00  0.00    +0.073 A 
ATOM     15  C   UNL     1      -8.675  -9.643  13.581  0.00  0.00    +0.163 A 
BRANCH  15  20
ATOM     20  C   UNL     1      -8.891  -9.358  15.005  0.00  0.00    +0.232 C 
BRANCH  20   3
ATOM      3  O   UNL     1      -7.653  -9.429  15.717  0.00  0.00    -0.387 OA
ATOM     26  H   UNL     1      -7.439  -8.524  16.004  0.00  0.00    +0.210 HD
ENDBRANCH  20   3
ENDBRANCH  15  20
ENDBRANCH  10  12
ENDBRANCH   7  10
ENDBRANCH   4   7
BRANCH   4  11
ATOM     11  C   UNL     1      -4.871 -10.780  10.720  0.00  0.00    +0.118 C 
BRANCH  11  13
ATOM      6  N   UNL     1      -1.641 -10.049  12.512  0.00  0.00    -0.255 NA
ATOM     13  C   UNL     1      -3.887 -10.594  11.819  0.00  0.00    -0.015 A 
ATOM     16  C   UNL     1      -4.249 -10.779  13.147  0.00  0.00    +0.016 A 
ATOM     17  C   UNL     1      -2.582 -10.232  11.558  0.00  0.00    +0.116 A 
ATOM     18  C   UNL     1      -3.304 -10.599  14.166  0.00  0.00    +0.001 A 
ATOM     19  C   UNL     1      -1.994 -10.229  13.799  0.00  0.00    +0.071 A 
ATOM     21  C   UNL     1      -3.638 -10.779  15.519  0.00  0.00    +0.010 A 
ATOM     22  C   UNL     1      -1.056 -10.051  14.812  0.00  0.00    +0.028 A 
ATOM     23  C   UNL     1      -2.680 -10.594  16.511  0.00  0.00    +0.001 A 
ATOM     24  C   UNL     1      -1.387 -10.229  16.157  0.00  0.00    +0.002 A 
ENDBRANCH  11  13
ENDBRANCH   4  11
TORSDOF 7
ENDMDL
MODEL 9
REMARK VINA RESULT:      -4.7      3.416      5.983
REMARK  Name = 56775585
REMARK  7 active torsions:
REMARK  status: ('A' for Active; 'I' for Inactive)
REMARK    1  A    between atoms: O_3  and  C_20
REMARK    2  A    between atoms: N_4  and  C_7
REMARK    3  A    between atoms: N_4  and  C_11
REMARK    4  A    between atoms: C_7  and  C_10
REMARK    5  A    between atoms: C_10  and  C_12
REMARK    6  A    between atoms: C_11  and  C_13
REMARK    7  A    between atoms: C_15  and  C_20
REMARK                            x       y       z     vdW  Elec       q    Type
REMARK                         _______ _______ _______ _____ _____    ______ ____
ROOT
ATOM      4  N   UNL     1       0.162   0.715  24.988  0.00  0.00    -0.302 NA
ATOM     25  H   UNL     1       1.094   0.796  25.391  0.00  0.00    +0.123 HD
ENDROOT
BRANCH   4   7
ATOM      1  O   UNL     1      -1.211  -1.987  24.897  0.00  0.00    -0.376 OA
ATOM      7  C   UNL     1      -0.025  -0.415  24.074  0.00  0.00    +0.072 C 
ATOM      8  C   UNL     1       0.207  -1.711  24.843  0.00  0.00    +0.184 C 
ATOM      9  C   UNL     1      -1.493  -0.822  24.090  0.00  0.00    +0.184 C 
BRANCH   7  10
ATOM     10  C   UNL     1       0.659  -0.219  22.757  0.00  0.00    +0.085 C 
BRANCH  10  12
ATOM      2  O   UNL     1       3.894   1.337  23.172  0.00  0.00    -0.357 OA
ATOM      5  N   UNL     1       2.519   1.390  22.973  0.00  0.00    -0.083 NA
ATOM     12  C   UNL     1       2.123   0.114  22.954  0.00  0.00    +0.086 A 
ATOM     14  C   UNL     1       3.194  -0.779  23.135  0.00  0.00    +0.073 A 
ATOM     15  C   UNL     1       4.283   0.040  23.266  0.00  0.00    +0.163 A 
BRANCH  15  20
ATOM     20  C   UNL     1       5.716  -0.200  23.479  0.00  0.00    +0.232 C 
BRANCH  20   3
ATOM      3  O   UNL     1       5.916  -1.010  24.640  0.00  0.00    -0.387 OA
ATOM     26  H   UNL     1       5.488  -0.551  25.383  0.00  0.00    +0.210 HD
ENDBRANCH  20   3
ENDBRANCH  15  20
ENDBRANCH  10  12
ENDBRANCH   7  10
ENDBRANCH   4   7
BRANCH   4  11
ATOM     11  C   UNL     1      -0.187   1.956  24.291  0.00  0.00    +0.118 C 
BRANCH  11  13
ATOM      6  N   UNL     1      -2.892   4.274  25.510  0.00  0.00    -0.255 NA
ATOM     13  C   UNL     1      -1.529   2.467  24.672  0.00  0.00    -0.015 A 
ATOM     16  C   UNL     1      -2.660   1.668  24.565  0.00  0.00    +0.016 A 
ATOM     17  C   UNL     1      -1.699   3.752  25.146  0.00  0.00    +0.116 A 
ATOM     18  C   UNL     1      -3.915   2.171  24.931  0.00  0.00    +0.001 A 
ATOM     19  C   UNL     1      -3.987   3.498  25.405  0.00  0.00    +0.071 A 
ATOM     21  C   UNL     1      -5.078   1.388  24.834  0.00  0.00    +0.010 A 
ATOM     22  C   UNL     1      -5.235   3.996  25.769  0.00  0.00    +0.028 A 
ATOM     23  C   UNL     1      -6.313   1.912  25.205  0.00  0.00    +0.001 A 
ATOM     24  C   UNL     1      -6.391   3.218  25.673  0.00  0.00    +0.002 A 
ENDBRANCH  11  13
ENDBRANCH   4  11
TORSDOF 7
ENDMDL
MODEL 10
REMARK VINA RESULT:      -3.7      2.185      3.417
REMARK  Name = 56775585
REMARK  7 active torsions:
REMARK  status: ('A' for Active; 'I' for Inactive)
REMARK    1  A    between atoms: O_3  and  C_20
REMARK    2  A    between atoms: N_4  and  C_7
REMARK    3  A    between atoms: N_4  and  C_11
REMARK    4  A    between atoms: C_7  and  C_10
REMARK    5  A    between atoms: C_10  and  C_12
REMARK    6  A    between atoms: C_11  and  C_13
REMARK    7  A    between atoms: C_15  and  C_20
REMARK                            x       y       z     vdW  Elec       q    Type
REMARK                         _______ _______ _______ _____ _____    ______ ____
ROOT
ATOM      4  N   UNL     1      -3.682  -1.189  25.673  0.00  0.00    -0.302 NA
ATOM     25  H   UNL     1      -3.042  -0.645  26.249  0.00  0.00    +0.123 HD
ENDROOT
BRANCH   4   7
ATOM      1  O   UNL     1      -4.416  -3.110  23.445  0.00  0.00    -0.376 OA
ATOM      7  C   UNL     1      -3.044  -2.147  24.767  0.00  0.00    +0.072 C 
ATOM      8  C   UNL     1      -3.871  -3.427  24.746  0.00  0.00    +0.184 C 
ATOM      9  C   UNL     1      -3.587  -1.928  23.360  0.00  0.00    +0.184 C 
BRANCH   7  10
ATOM     10  C   UNL     1      -1.564  -2.241  24.966  0.00  0.00    +0.085 C 
BRANCH  10  12
ATOM      2  O   UNL     1       0.155   0.784  23.987  0.00  0.00    -0.357 OA
ATOM      5  N   UNL     1      -0.315  -0.500  23.738  0.00  0.00    -0.083 NA
ATOM     12  C   UNL     1      -0.920  -0.873  24.869  0.00  0.00    +0.086 A 
ATOM     14  C   UNL     1      -0.864   0.125  25.858  0.00  0.00    +0.073 A 
ATOM     15  C   UNL     1      -0.178   1.145  25.252  0.00  0.00    +0.163 A 
BRANCH  15  20
ATOM     20  C   UNL     1       0.244   2.482  25.684  0.00  0.00    +0.232 C 
BRANCH  20   3
ATOM      3  O   UNL     1       0.942   2.404  26.930  0.00  0.00    -0.387 OA
ATOM     26  H   UNL     1       1.632   3.090  26.912  0.00  0.00    +0.210 HD
ENDBRANCH  20   3
ENDBRANCH  15  20
ENDBRANCH  10  12
ENDBRANCH   7  10
ENDBRANCH   4   7
BRANCH   4  11
ATOM     11  C   UNL     1      -4.533  -0.286  24.892  0.00  0.00    +0.118 C 
BRANCH  11  13
ATOM      6  N   UNL     1      -2.747   2.525  23.135  0.00  0.00    -0.255 NA
ATOM     13  C   UNL     1      -3.892   1.033  24.647  0.00  0.00    -0.015 A 
ATOM     16  C   UNL     1      -3.821   1.994  25.646  0.00  0.00    +0.016 A 
ATOM     17  C   UNL     1      -3.344   1.346  23.420  0.00  0.00    +0.116 A 
ATOM     18  C   UNL     1      -3.212   3.230  25.392  0.00  0.00    +0.001 A 
ATOM     19  C   UNL     1      -2.680   3.457  24.105  0.00  0.00    +0.071 A 
ATOM     21  C   UNL     1      -3.124   4.224  26.381  0.00  0.00    +0.010 A 
ATOM     22  C   UNL     1      -2.074   4.684  23.854  0.00  0.00    +0.028 A 
ATOM     23  C   UNL     1      -2.512   5.443  26.103  0.00  0.00    +0.001 A 
ATOM     24  C   UNL     1      -1.987   5.673  24.837  0.00  0.00    +0.002 A 
ENDBRANCH  11  13
ENDBRANCH   4  11
TORSDOF 7
ENDMDL
