MODEL 1
REMARK VINA RESULT:      -5.0      0.000      0.000
REMARK  Name = 11884600
REMARK  6 active torsions:
REMARK  status: ('A' for Active; 'I' for Inactive)
REMARK    1  A    between atoms: O_3  and  C_11
REMARK    2  A    between atoms: O_3  and  C_15
REMARK    3  A    between atoms: N_6  and  C_10
REMARK    4  A    between atoms: N_6  and  C_14
REMARK    5  A    between atoms: N_7  and  C_18
REMARK    6  A    between atoms: C_14  and  C_16
REMARK                            x       y       z     vdW  Elec       q    Type
REMARK                         _______ _______ _______ _____ _____    ______ ____
ROOT
ATOM      1  O   UNL     1      -1.401  -0.138  23.197  0.00  0.00    -0.369 OA
ATOM      2  O   UNL     1      -0.036  -1.447  25.597  0.00  0.00    -0.369 OA
ATOM      8  C   UNL     1       0.247  -1.524  24.183  0.00  0.00    +0.170 C 
ATOM      9  C   UNL     1      -1.089  -1.516  23.468  0.00  0.00    +0.191 C 
ATOM     10  C   UNL     1       0.921  -0.249  23.722  0.00  0.00    +0.111 C 
ATOM     11  C   UNL     1      -2.015  -2.104  24.504  0.00  0.00    +0.235 C 
ATOM     12  C   UNL     1      -0.269   0.680  23.534  0.00  0.00    +0.181 C 
ATOM     13  C   UNL     1      -1.455  -1.541  25.791  0.00  0.00    +0.207 C 
ENDROOT
BRANCH  10   6
ATOM      6  N   UNL     1       1.611  -0.438  22.447  0.00  0.00    -0.302 NA
ATOM     30  H   UNL     1       0.944  -0.322  21.684  0.00  0.00    +0.123 HD
BRANCH   6  14
ATOM     14  C   UNL     1       2.691   0.525  22.296  0.00  0.00    +0.156 C 
BRANCH  14  16
ATOM      4  O   UNL     1       3.922  -1.213  23.406  0.00  0.00    -0.467 OA
ATOM     16  C   UNL     1       3.924   0.076  23.031  0.00  0.00    +0.119 A 
ATOM     17  C   UNL     1       5.051   0.730  23.394  0.00  0.00    +0.046 A 
ATOM     19  C   UNL     1       5.837  -0.238  24.062  0.00  0.00    +0.041 A 
ATOM     20  C   UNL     1       5.108  -1.404  24.043  0.00  0.00    +0.195 A 
ENDBRANCH  14  16
ENDBRANCH   6  14
ENDBRANCH  10   6
BRANCH  11   3
ATOM      3  O   UNL     1      -3.367  -1.751  24.314  0.00  0.00    -0.442 OA
BRANCH   3  15
ATOM      5  O   UNL     1      -4.259  -0.940  26.258  0.00  0.00    -0.226 OA
ATOM      7  N   UNL     1      -3.845   0.451  24.421  0.00  0.00    -0.251 N 
ATOM     15  C   UNL     1      -3.868  -0.744  25.114  0.00  0.00    +0.405 C 
ATOM     31  H   UNL     1      -3.476   0.380  23.481  0.00  0.00    +0.158 HD
BRANCH   7  18
ATOM     18  C   UNL     1      -4.265   1.724  24.868  0.00  0.00    +0.044 A 
ATOM     21  C   UNL     1      -3.358   2.775  25.028  0.00  0.00    +0.003 A 
ATOM     22  C   UNL     1      -5.619   1.882  25.142  0.00  0.00    +0.024 A 
ATOM     23  C   UNL     1      -3.837   4.027  25.480  0.00  0.00    -0.016 A 
ATOM     24  C   UNL     1      -1.989   2.622  24.754  0.00  0.00    +0.010 A 
ATOM     25  C   UNL     1      -6.090   3.113  25.586  0.00  0.00    +0.002 A 
ATOM     26  C   UNL     1      -5.206   4.180  25.754  0.00  0.00    +0.008 A 
ATOM     27  C   UNL     1      -2.934   5.090  25.644  0.00  0.00    +0.008 A 
ATOM     28  C   UNL     1      -1.105   3.688  24.922  0.00  0.00    +0.001 A 
ATOM     29  C   UNL     1      -1.577   4.920  25.366  0.00  0.00    +0.001 A 
ENDBRANCH   7  18
ENDBRANCH   3  15
ENDBRANCH  11   3
TORSDOF 6
ENDMDL
MODEL 2
REMARK VINA RESULT:      -3.4      2.063      4.461
REMARK  Name = 11884600
REMARK  6 active torsions:
REMARK  status: ('A' for Active; 'I' for Inactive)
REMARK    1  A    between atoms: O_3  and  C_11
REMARK    2  A    between atoms: O_3  and  C_15
REMARK    3  A    between atoms: N_6  and  C_10
REMARK    4  A    between atoms: N_6  and  C_14
REMARK    5  A    between atoms: N_7  and  C_18
REMARK    6  A    between atoms: C_14  and  C_16
REMARK                            x       y       z     vdW  Elec       q    Type
REMARK                         _______ _______ _______ _____ _____    ______ ____
ROOT
ATOM      1  O   UNL     1      -1.947   2.288  24.174  0.00  0.00    -0.369 OA
ATOM      2  O   UNL     1      -0.591   4.888  25.032  0.00  0.00    -0.369 OA
ATOM      8  C   UNL     1      -0.247   3.508  25.283  0.00  0.00    +0.170 C 
ATOM      9  C   UNL     1      -1.551   2.760  25.474  0.00  0.00    +0.191 C 
ATOM     10  C   UNL     1       0.355   2.891  24.038  0.00  0.00    +0.111 C 
ATOM     11  C   UNL     1      -2.475   3.841  25.980  0.00  0.00    +0.235 C 
ATOM     12  C   UNL     1      -0.889   2.539  23.235  0.00  0.00    +0.181 C 
ATOM     13  C   UNL     1      -2.007   5.051  25.203  0.00  0.00    +0.207 C 
ENDROOT
BRANCH  10   6
ATOM      6  N   UNL     1       1.106   1.677  24.350  0.00  0.00    -0.302 NA
ATOM     30  H   UNL     1       0.547   1.085  24.965  0.00  0.00    +0.123 HD
BRANCH   6  14
ATOM     14  C   UNL     1       1.431   0.944  23.136  0.00  0.00    +0.156 C 
BRANCH  14  16
ATOM      4  O   UNL     1       3.058  -0.780  23.528  0.00  0.00    -0.467 OA
ATOM     16  C   UNL     1       2.866   0.493  23.144  0.00  0.00    +0.119 A 
ATOM     17  C   UNL     1       4.018   1.130  22.834  0.00  0.00    +0.046 A 
ATOM     19  C   UNL     1       5.036   0.170  23.043  0.00  0.00    +0.041 A 
ATOM     20  C   UNL     1       4.402  -0.975  23.463  0.00  0.00    +0.195 A 
ENDBRANCH  14  16
ENDBRANCH   6  14
ENDBRANCH  10   6
BRANCH  11   3
ATOM      3  O   UNL     1      -3.839   3.563  25.758  0.00  0.00    -0.442 OA
BRANCH   3  15
ATOM      5  O   UNL     1      -4.707   2.659  23.845  0.00  0.00    -0.226 OA
ATOM      7  N   UNL     1      -3.684   1.330  25.479  0.00  0.00    -0.251 N 
ATOM     15  C   UNL     1      -4.133   2.510  24.917  0.00  0.00    +0.405 C 
ATOM     31  H   UNL     1      -3.233   1.444  26.379  0.00  0.00    +0.158 HD
BRANCH   7  18
ATOM     18  C   UNL     1      -3.782   0.023  24.951  0.00  0.00    +0.044 A 
ATOM     21  C   UNL     1      -2.700  -0.862  24.997  0.00  0.00    +0.003 A 
ATOM     22  C   UNL     1      -4.997  -0.341  24.386  0.00  0.00    +0.024 A 
ATOM     23  C   UNL     1      -2.857  -2.158  24.452  0.00  0.00    -0.016 A 
ATOM     24  C   UNL     1      -1.468  -0.500  25.566  0.00  0.00    +0.010 A 
ATOM     25  C   UNL     1      -5.151  -1.616  23.850  0.00  0.00    +0.002 A 
ATOM     26  C   UNL     1      -4.089  -2.520  23.882  0.00  0.00    +0.008 A 
ATOM     27  C   UNL     1      -1.777  -3.055  24.492  0.00  0.00    +0.008 A 
ATOM     28  C   UNL     1      -0.406  -1.404  25.598  0.00  0.00    +0.001 A 
ATOM     29  C   UNL     1      -0.560  -2.679  25.063  0.00  0.00    +0.001 A 
ENDBRANCH   7  18
ENDBRANCH   3  15
ENDBRANCH  11   3
TORSDOF 6
ENDMDL
MODEL 3
REMARK VINA RESULT:      -2.8      1.598      2.330
REMARK  Name = 11884600
REMARK  6 active torsions:
REMARK  status: ('A' for Active; 'I' for Inactive)
REMARK    1  A    between atoms: O_3  and  C_11
REMARK    2  A    between atoms: O_3  and  C_15
REMARK    3  A    between atoms: N_6  and  C_10
REMARK    4  A    between atoms: N_6  and  C_14
REMARK    5  A    between atoms: N_7  and  C_18
REMARK    6  A    between atoms: C_14  and  C_16
REMARK                            x       y       z     vdW  Elec       q    Type
REMARK                         _______ _______ _______ _____ _____    ______ ____
ROOT
ATOM      1  O   UNL     1      -2.505  -0.630  25.862  0.00  0.00    -0.369 OA
ATOM      2  O   UNL     1      -2.416  -2.969  23.898  0.00  0.00    -0.369 OA
ATOM      8  C   UNL     1      -1.692  -1.719  23.923  0.00  0.00    +0.170 C 
ATOM      9  C   UNL     1      -2.655  -0.666  24.432  0.00  0.00    +0.191 C 
ATOM     10  C   UNL     1      -0.609  -1.771  24.979  0.00  0.00    +0.111 C 
ATOM     11  C   UNL     1      -3.996  -1.228  24.025  0.00  0.00    +0.235 C 
ATOM     12  C   UNL     1      -1.394  -1.456  26.244  0.00  0.00    +0.181 C 
ATOM     13  C   UNL     1      -3.792  -2.714  24.218  0.00  0.00    +0.207 C 
ENDROOT
BRANCH  10   6
ATOM      6  N   UNL     1       0.408  -0.745  24.756  0.00  0.00    -0.302 NA
ATOM     30  H   UNL     1       1.325  -1.126  24.988  0.00  0.00    +0.123 HD
BRANCH   6  14
ATOM     14  C   UNL     1       0.403  -0.305  23.369  0.00  0.00    +0.156 C 
BRANCH  14  16
ATOM      4  O   UNL     1       2.224  -0.331  21.803  0.00  0.00    -0.467 OA
ATOM     16  C   UNL     1       1.761   0.188  22.952  0.00  0.00    +0.119 A 
ATOM     17  C   UNL     1       2.620   1.065  23.518  0.00  0.00    +0.046 A 
ATOM     19  C   UNL     1       3.732   1.106  22.645  0.00  0.00    +0.041 A 
ATOM     20  C   UNL     1       3.444   0.240  21.616  0.00  0.00    +0.195 A 
ENDBRANCH  14  16
ENDBRANCH   6  14
ENDBRANCH  10   6
BRANCH  11   3
ATOM      3  O   UNL     1      -5.068  -0.736  24.796  0.00  0.00    -0.442 OA
BRANCH   3  15
ATOM      5  O   UNL     1      -6.331   1.143  24.470  0.00  0.00    -0.226 OA
ATOM      7  N   UNL     1      -4.107   1.266  25.190  0.00  0.00    -0.251 N 
ATOM     15  C   UNL     1      -5.266   0.630  24.791  0.00  0.00    +0.405 C 
ATOM     31  H   UNL     1      -3.342   0.639  25.410  0.00  0.00    +0.158 HD
BRANCH   7  18
ATOM     18  C   UNL     1      -3.878   2.655  25.323  0.00  0.00    +0.044 A 
ATOM     21  C   UNL     1      -2.621   3.212  25.070  0.00  0.00    +0.003 A 
ATOM     22  C   UNL     1      -4.956   3.438  25.716  0.00  0.00    +0.024 A 
ATOM     23  C   UNL     1      -2.451   4.608  25.220  0.00  0.00    -0.016 A 
ATOM     24  C   UNL     1      -1.527   2.426  24.673  0.00  0.00    +0.010 A 
ATOM     25  C   UNL     1      -4.789   4.811  25.864  0.00  0.00    +0.002 A 
ATOM     26  C   UNL     1      -3.546   5.394  25.617  0.00  0.00    +0.008 A 
ATOM     27  C   UNL     1      -1.192   5.178  24.969  0.00  0.00    +0.008 A 
ATOM     28  C   UNL     1      -0.283   3.009  24.427  0.00  0.00    +0.001 A 
ATOM     29  C   UNL     1      -0.117   4.383  24.575  0.00  0.00    +0.001 A 
ENDBRANCH   7  18
ENDBRANCH   3  15
ENDBRANCH  11   3
TORSDOF 6
ENDMDL
MODEL 4
REMARK VINA RESULT:      -1.6      3.348      5.579
REMARK  Name = 11884600
REMARK  6 active torsions:
REMARK  status: ('A' for Active; 'I' for Inactive)
REMARK    1  A    between atoms: O_3  and  C_11
REMARK    2  A    between atoms: O_3  and  C_15
REMARK    3  A    between atoms: N_6  and  C_10
REMARK    4  A    between atoms: N_6  and  C_14
REMARK    5  A    between atoms: N_7  and  C_18
REMARK    6  A    between atoms: C_14  and  C_16
REMARK                            x       y       z     vdW  Elec       q    Type
REMARK                         _______ _______ _______ _____ _____    ______ ____
ROOT
ATOM      1  O   UNL     1      -1.872   2.390  24.301  0.00  0.00    -0.369 OA
ATOM      2  O   UNL     1      -1.625   5.308  25.173  0.00  0.00    -0.369 OA
ATOM      8  C   UNL     1      -1.177   4.087  25.801  0.00  0.00    +0.170 C 
ATOM      9  C   UNL     1      -2.240   3.041  25.530  0.00  0.00    +0.191 C 
ATOM     10  C   UNL     1       0.050   3.560  25.088  0.00  0.00    +0.111 C 
ATOM     11  C   UNL     1      -3.485   3.878  25.366  0.00  0.00    +0.235 C 
ATOM     12  C   UNL     1      -0.568   2.839  23.898  0.00  0.00    +0.181 C 
ATOM     13  C   UNL     1      -2.954   5.109  24.667  0.00  0.00    +0.207 C 
ENDROOT
BRANCH  10   6
ATOM      6  N   UNL     1       0.786   2.608  25.918  0.00  0.00    -0.302 NA
ATOM     30  H   UNL     1       1.725   2.967  26.087  0.00  0.00    +0.123 HD
BRANCH   6  14
ATOM     14  C   UNL     1       0.110   2.403  27.190  0.00  0.00    +0.156 C 
BRANCH  14  16
ATOM      4  O   UNL     1       2.306   2.919  28.017  0.00  0.00    -0.467 OA
ATOM     16  C   UNL     1       1.083   2.465  28.336  0.00  0.00    +0.119 A 
ATOM     17  C   UNL     1       0.963   2.147  29.645  0.00  0.00    +0.046 A 
ATOM     19  C   UNL     1       2.230   2.426  30.209  0.00  0.00    +0.041 A 
ATOM     20  C   UNL     1       3.013   2.893  29.179  0.00  0.00    +0.195 A 
ENDBRANCH  14  16
ENDBRANCH   6  14
ENDBRANCH  10   6
BRANCH  11   3
ATOM      3  O   UNL     1      -4.497   3.239  24.620  0.00  0.00    -0.442 OA
BRANCH   3  15
ATOM      5  O   UNL     1      -3.804   2.075  22.777  0.00  0.00    -0.226 OA
ATOM      7  N   UNL     1      -4.248   1.006  24.813  0.00  0.00    -0.251 N 
ATOM     15  C   UNL     1      -4.146   2.083  23.954  0.00  0.00    +0.405 C 
ATOM     31  H   UNL     1      -4.551   1.247  25.749  0.00  0.00    +0.158 HD
BRANCH   7  18
ATOM     18  C   UNL     1      -3.982  -0.355  24.537  0.00  0.00    +0.044 A 
ATOM     21  C   UNL     1      -2.746  -0.931  24.843  0.00  0.00    +0.003 A 
ATOM     22  C   UNL     1      -5.003  -1.092  23.949  0.00  0.00    +0.024 A 
ATOM     23  C   UNL     1      -2.537  -2.297  24.544  0.00  0.00    -0.016 A 
ATOM     24  C   UNL     1      -1.709  -0.191  25.437  0.00  0.00    +0.010 A 
ATOM     25  C   UNL     1      -4.798  -2.436  23.654  0.00  0.00    +0.002 A 
ATOM     26  C   UNL     1      -3.573  -3.036  23.950  0.00  0.00    +0.008 A 
ATOM     27  C   UNL     1      -1.298  -2.885  24.847  0.00  0.00    +0.008 A 
ATOM     28  C   UNL     1      -0.485  -0.792  25.732  0.00  0.00    +0.001 A 
ATOM     29  C   UNL     1      -0.280  -2.137  25.437  0.00  0.00    +0.001 A 
ENDBRANCH   7  18
ENDBRANCH   3  15
ENDBRANCH  11   3
TORSDOF 6
ENDMDL
MODEL 5
REMARK VINA RESULT:      -1.0      1.955      3.722
REMARK  Name = 11884600
REMARK  6 active torsions:
REMARK  status: ('A' for Active; 'I' for Inactive)
REMARK    1  A    between atoms: O_3  and  C_11
REMARK    2  A    between atoms: O_3  and  C_15
REMARK    3  A    between atoms: N_6  and  C_10
REMARK    4  A    between atoms: N_6  and  C_14
REMARK    5  A    between atoms: N_7  and  C_18
REMARK    6  A    between atoms: C_14  and  C_16
REMARK                            x       y       z     vdW  Elec       q    Type
REMARK                         _______ _______ _______ _____ _____    ______ ____
ROOT
ATOM      1  O   UNL     1      -0.193   1.337  25.489  0.00  0.00    -0.369 OA
ATOM      2  O   UNL     1      -0.923   2.019  22.602  0.00  0.00    -0.369 OA
ATOM      8  C   UNL     1       0.294   1.494  23.176  0.00  0.00    +0.170 C 
ATOM      9  C   UNL     1       0.468   2.171  24.521  0.00  0.00    +0.191 C 
ATOM     10  C   UNL     1       0.113   0.031  23.519  0.00  0.00    +0.111 C 
ATOM     11  C   UNL     1      -0.257   3.479  24.324  0.00  0.00    +0.235 C 
ATOM     12  C   UNL     1      -0.603   0.112  24.860  0.00  0.00    +0.181 C 
ATOM     13  C   UNL     1      -1.417   3.073  23.443  0.00  0.00    +0.207 C 
ENDROOT
BRANCH  10   6
ATOM      6  N   UNL     1       1.400  -0.644  23.682  0.00  0.00    -0.302 NA
ATOM     30  H   UNL     1       1.251  -1.653  23.683  0.00  0.00    +0.123 HD
BRANCH   6  14
ATOM     14  C   UNL     1       2.310  -0.289  22.604  0.00  0.00    +0.156 C 
BRANCH  14  16
ATOM      4  O   UNL     1       4.179  -1.279  23.742  0.00  0.00    -0.467 OA
ATOM     16  C   UNL     1       3.726  -0.189  23.101  0.00  0.00    +0.119 A 
ATOM     17  C   UNL     1       4.645   0.800  23.027  0.00  0.00    +0.046 A 
ATOM     19  C   UNL     1       5.789   0.289  23.684  0.00  0.00    +0.041 A 
ATOM     20  C   UNL     1       5.456  -0.979  24.101  0.00  0.00    +0.195 A 
ENDBRANCH  14  16
ENDBRANCH   6  14
ENDBRANCH  10   6
BRANCH  11   3
ATOM      3  O   UNL     1      -0.689   4.069  25.530  0.00  0.00    -0.442 OA
BRANCH   3  15
ATOM      5  O   UNL     1      -2.595   4.684  26.635  0.00  0.00    -0.226 OA
ATOM      7  N   UNL     1      -2.566   2.880  25.142  0.00  0.00    -0.251 N 
ATOM     15  C   UNL     1      -2.026   3.941  25.844  0.00  0.00    +0.405 C 
ATOM     31  H   UNL     1      -1.907   2.402  24.539  0.00  0.00    +0.158 HD
BRANCH   7  18
ATOM     18  C   UNL     1      -3.897   2.406  25.170  0.00  0.00    +0.044 A 
ATOM     21  C   UNL     1      -4.213   1.103  24.774  0.00  0.00    +0.003 A 
ATOM     22  C   UNL     1      -4.875   3.292  25.606  0.00  0.00    +0.024 A 
ATOM     23  C   UNL     1      -5.563   0.684  24.823  0.00  0.00    -0.016 A 
ATOM     24  C   UNL     1      -3.230   0.203  24.332  0.00  0.00    +0.010 A 
ATOM     25  C   UNL     1      -6.202   2.880  25.653  0.00  0.00    +0.002 A 
ATOM     26  C   UNL     1      -6.546   1.585  25.265  0.00  0.00    +0.008 A 
ATOM     27  C   UNL     1      -5.892  -0.623  24.427  0.00  0.00    +0.008 A 
ATOM     28  C   UNL     1      -3.574  -1.093  23.943  0.00  0.00    +0.001 A 
ATOM     29  C   UNL     1      -4.902  -1.504  23.992  0.00  0.00    +0.001 A 
ENDBRANCH   7  18
ENDBRANCH   3  15
ENDBRANCH  11   3
TORSDOF 6
ENDMDL
