MODEL 1
REMARK VINA RESULT:       0.4      0.000      0.000
REMARK  Name = 45783974
REMARK  16 active torsions:
REMARK  status: ('A' for Active; 'I' for Inactive)
REMARK    1  A    between atoms: O_2  and  C_22
REMARK    2  A    between atoms: N_3  and  C_14
REMARK    3  A    between atoms: N_3  and  C_20
REMARK    4  A    between atoms: N_3  and  C_21
REMARK    5  A    between atoms: N_6  and  C_29
REMARK    6  A    between atoms: N_6  and  C_30
REMARK    7  A    between atoms: N_6  and  C_31
REMARK    8  A    between atoms: C_7  and  C_11
REMARK    9  A    between atoms: C_8  and  C_14
REMARK   10  A    between atoms: C_10  and  C_15
REMARK   11  A    between atoms: C_11  and  C_16
REMARK   12  A    between atoms: C_11  and  C_17
REMARK   13  A    between atoms: C_12  and  C_18
REMARK   14  A    between atoms: C_15  and  C_19
REMARK   15  A    between atoms: C_20  and  C_22
REMARK   16  A    between atoms: C_23  and  C_24
REMARK                            x       y       z     vdW  Elec       q    Type
REMARK                         _______ _______ _______ _____ _____    ______ ____
ROOT
ATOM      7  C   UNL     1      -3.078   2.765  23.755  0.00  0.00    +0.000 C 
ATOM      8  C   UNL     1      -3.583   3.739  24.844  0.00  0.00    +0.029 C 
ATOM      9  C   UNL     1      -3.147   1.315  24.256  0.00  0.00    +0.012 C 
ATOM     10  C   UNL     1      -4.562   0.892  24.708  0.00  0.00    +0.024 C 
ATOM     12  C   UNL     1      -5.299   1.989  25.461  0.00  0.00    -0.073 C 
ATOM     13  C   UNL     1      -4.839   3.253  25.520  0.00  0.00    -0.023 C 
ATOM     18  C   UNL     1      -6.612   1.629  26.102  0.00  0.00    +0.039 C 
ENDROOT
BRANCH   7  11
ATOM     11  C   UNL     1      -3.859   2.937  22.444  0.00  0.00    -0.013 C 
ATOM     16  C   UNL     1      -3.038   2.425  21.265  0.00  0.00    +0.007 C 
ATOM     17  C   UNL     1      -4.243   4.399  22.242  0.00  0.00    +0.007 C 
ENDBRANCH   7  11
BRANCH   8  14
ATOM     14  C   UNL     1      -2.512   4.006  25.905  0.00  0.00    +0.092 C 
BRANCH  14   3
ATOM      3  N   UNL     1      -1.195   4.087  25.296  0.00  0.00    -0.303 NA
ATOM     21  C   UNL     1      -0.844   5.479  24.998  0.00  0.00    +0.105 C 
BRANCH   3  20
ATOM     20  C   UNL     1      -0.180   3.488  26.168  0.00  0.00    +0.112 C 
BRANCH  20  22
ATOM     22  C   UNL     1       0.272   2.144  25.621  0.00  0.00    +0.171 C 
BRANCH  22   2
ATOM      2  O   UNL     1      -0.404   1.112  26.328  0.00  0.00    -0.394 OA
ATOM     32  H   UNL     1      -0.304   0.296  25.808  0.00  0.00    +0.209 HD
ENDBRANCH  22   2
ENDBRANCH  20  22
ENDBRANCH   3  20
ENDBRANCH  14   3
ENDBRANCH   8  14
BRANCH  10  15
ATOM     15  C   UNL     1      -4.449  -0.410  25.510  0.00  0.00    +0.105 C 
BRANCH  15  19
ATOM      1  O   UNL     1      -2.122  -0.566  24.793  0.00  0.00    -0.420 OA
ATOM      4  N   UNL     1      -3.191  -2.530  24.870  0.00  0.00    -0.112 NA
ATOM      5  N   UNL     1      -1.894  -2.766  24.453  0.00  0.00    -0.107 NA
ATOM     19  C   UNL     1      -3.278  -1.234  25.058  0.00  0.00    +0.218 A 
ATOM     23  C   UNL     1      -1.308  -1.592  24.422  0.00  0.00    +0.248 A 
BRANCH  23  24
ATOM     24  C   UNL     1       0.033  -1.230  24.065  0.00  0.00    +0.039 A 
ATOM     25  C   UNL     1       0.259  -0.196  23.157  0.00  0.00    +0.015 A 
ATOM     26  C   UNL     1       1.112  -1.910  24.630  0.00  0.00    +0.015 A 
ATOM     27  C   UNL     1       1.564   0.156  22.810  0.00  0.00    +0.024 A 
ATOM     28  C   UNL     1       2.417  -1.558  24.284  0.00  0.00    +0.024 A 
ATOM     29  C   UNL     1       2.643  -0.525  23.374  0.00  0.00    +0.029 A 
BRANCH  29   6
ATOM      6  N   UNL     1       3.962  -0.169  23.023  0.00  0.00    -0.336 N 
ATOM     30  C   UNL     1       5.090  -0.763  23.713  0.00  0.00    +0.129 C 
ATOM     31  C   UNL     1       4.206   0.801  21.974  0.00  0.00    +0.129 C 
ENDBRANCH  29   6
ENDBRANCH  23  24
ENDBRANCH  15  19
ENDBRANCH  10  15
TORSDOF 10
ENDMDL
MODEL 2
REMARK VINA RESULT:       1.1     15.049     16.630
REMARK  Name = 45783974
REMARK  16 active torsions:
REMARK  status: ('A' for Active; 'I' for Inactive)
REMARK    1  A    between atoms: O_2  and  C_22
REMARK    2  A    between atoms: N_3  and  C_14
REMARK    3  A    between atoms: N_3  and  C_20
REMARK    4  A    between atoms: N_3  and  C_21
REMARK    5  A    between atoms: N_6  and  C_29
REMARK    6  A    between atoms: N_6  and  C_30
REMARK    7  A    between atoms: N_6  and  C_31
REMARK    8  A    between atoms: C_7  and  C_11
REMARK    9  A    between atoms: C_8  and  C_14
REMARK   10  A    between atoms: C_10  and  C_15
REMARK   11  A    between atoms: C_11  and  C_16
REMARK   12  A    between atoms: C_11  and  C_17
REMARK   13  A    between atoms: C_12  and  C_18
REMARK   14  A    between atoms: C_15  and  C_19
REMARK   15  A    between atoms: C_20  and  C_22
REMARK   16  A    between atoms: C_23  and  C_24
REMARK                            x       y       z     vdW  Elec       q    Type
REMARK                         _______ _______ _______ _____ _____    ______ ____
ROOT
ATOM      7  C   UNL     1      -8.750  -8.644  14.697  0.00  0.00    +0.000 C 
ATOM      8  C   UNL     1      -8.776 -10.190  14.728  0.00  0.00    +0.029 C 
ATOM      9  C   UNL     1      -8.460  -8.138  13.277  0.00  0.00    +0.012 C 
ATOM     10  C   UNL     1      -9.466  -8.657  12.227  0.00  0.00    +0.024 C 
ATOM     12  C   UNL     1      -9.862 -10.108  12.446  0.00  0.00    -0.073 C 
ATOM     13  C   UNL     1      -9.534 -10.780  13.566  0.00  0.00    -0.023 C 
ATOM     18  C   UNL     1     -10.697 -10.769  11.383  0.00  0.00    +0.039 C 
ENDROOT
BRANCH   7  11
ATOM     11  C   UNL     1     -10.059  -8.052  15.241  0.00  0.00    -0.013 C 
ATOM     16  C   UNL     1     -10.092  -6.544  15.019  0.00  0.00    +0.007 C 
ATOM     17  C   UNL     1     -10.219  -8.385  16.720  0.00  0.00    +0.007 C 
ENDBRANCH   7  11
BRANCH   8  14
ATOM     14  C   UNL     1      -7.363 -10.779  14.758  0.00  0.00    +0.092 C 
BRANCH  14   3
ATOM      3  N   UNL     1      -6.470  -9.931  15.529  0.00  0.00    -0.303 NA
ATOM     21  C   UNL     1      -6.491 -10.305  16.946  0.00  0.00    +0.105 C 
BRANCH   3  20
ATOM     20  C   UNL     1      -5.101 -10.008  15.010  0.00  0.00    +0.112 C 
BRANCH  20  22
ATOM     22  C   UNL     1      -4.207 -10.781  15.966  0.00  0.00    +0.171 C 
BRANCH  22   2
ATOM      2  O   UNL     1      -3.122  -9.947  16.352  0.00  0.00    -0.394 OA
ATOM     32  H   UNL     1      -2.343 -10.521  16.452  0.00  0.00    +0.209 HD
ENDBRANCH  22   2
ENDBRANCH  20  22
ENDBRANCH   3  20
ENDBRANCH  14   3
ENDBRANCH   8  14
BRANCH  10  15
ATOM     15  C   UNL     1      -8.888  -8.401  10.829  0.00  0.00    +0.105 C 
BRANCH  15  19
ATOM      1  O   UNL     1      -6.469  -8.717  10.885  0.00  0.00    -0.420 OA
ATOM      4  N   UNL     1      -7.603 -10.467  10.075  0.00  0.00    -0.112 NA
ATOM      5  N   UNL     1      -6.257 -10.781  10.049  0.00  0.00    -0.107 NA
ATOM     19  C   UNL     1      -7.680  -9.254  10.570  0.00  0.00    +0.218 A 
ATOM     23  C   UNL     1      -5.633  -9.731  10.531  0.00  0.00    +0.248 A 
BRANCH  23  24
ATOM     24  C   UNL     1      -4.235  -9.493  10.738  0.00  0.00    +0.039 A 
ATOM     25  C   UNL     1      -3.524  -8.688   9.847  0.00  0.00    +0.015 A 
ATOM     26  C   UNL     1      -3.585 -10.064  11.832  0.00  0.00    +0.015 A 
ATOM     27  C   UNL     1      -2.164  -8.456  10.050  0.00  0.00    +0.024 A 
ATOM     28  C   UNL     1      -2.224  -9.832  12.035  0.00  0.00    +0.024 A 
ATOM     29  C   UNL     1      -1.513  -9.028  11.143  0.00  0.00    +0.029 A 
BRANCH  29   6
ATOM      6  N   UNL     1      -0.138  -8.794  11.347  0.00  0.00    -0.336 N 
ATOM     30  C   UNL     1       0.304  -7.816  12.321  0.00  0.00    +0.129 C 
ATOM     31  C   UNL     1       0.852  -9.523  10.579  0.00  0.00    +0.129 C 
ENDBRANCH  29   6
ENDBRANCH  23  24
ENDBRANCH  15  19
ENDBRANCH  10  15
TORSDOF 10
ENDMDL
MODEL 3
REMARK VINA RESULT:       2.7      1.279      2.064
REMARK  Name = 45783974
REMARK  16 active torsions:
REMARK  status: ('A' for Active; 'I' for Inactive)
REMARK    1  A    between atoms: O_2  and  C_22
REMARK    2  A    between atoms: N_3  and  C_14
REMARK    3  A    between atoms: N_3  and  C_20
REMARK    4  A    between atoms: N_3  and  C_21
REMARK    5  A    between atoms: N_6  and  C_29
REMARK    6  A    between atoms: N_6  and  C_30
REMARK    7  A    between atoms: N_6  and  C_31
REMARK    8  A    between atoms: C_7  and  C_11
REMARK    9  A    between atoms: C_8  and  C_14
REMARK   10  A    between atoms: C_10  and  C_15
REMARK   11  A    between atoms: C_11  and  C_16
REMARK   12  A    between atoms: C_11  and  C_17
REMARK   13  A    between atoms: C_12  and  C_18
REMARK   14  A    between atoms: C_15  and  C_19
REMARK   15  A    between atoms: C_20  and  C_22
REMARK   16  A    between atoms: C_23  and  C_24
REMARK                            x       y       z     vdW  Elec       q    Type
REMARK                         _______ _______ _______ _____ _____    ______ ____
ROOT
ATOM      7  C   UNL     1      -4.341   2.572  24.498  0.00  0.00    +0.000 C 
ATOM      8  C   UNL     1      -2.962   2.579  25.197  0.00  0.00    +0.029 C 
ATOM      9  C   UNL     1      -4.593   1.218  23.820  0.00  0.00    +0.012 C 
ATOM     10  C   UNL     1      -4.503   0.022  24.792  0.00  0.00    +0.024 C 
ATOM     12  C   UNL     1      -3.379   0.161  25.807  0.00  0.00    -0.073 C 
ATOM     13  C   UNL     1      -2.694   1.309  25.964  0.00  0.00    -0.023 C 
ATOM     18  C   UNL     1      -3.086  -1.023  26.686  0.00  0.00    +0.039 C 
ENDROOT
BRANCH   7  11
ATOM     11  C   UNL     1      -5.468   2.919  25.481  0.00  0.00    -0.013 C 
ATOM     16  C   UNL     1      -6.708   2.082  25.184  0.00  0.00    +0.007 C 
ATOM     17  C   UNL     1      -5.792   4.408  25.414  0.00  0.00    +0.007 C 
ENDBRANCH   7  11
BRANCH   8  14
ATOM     14  C   UNL     1      -1.823   2.814  24.200  0.00  0.00    +0.092 C 
BRANCH  14   3
ATOM      3  N   UNL     1      -1.134   4.059  24.492  0.00  0.00    -0.303 NA
ATOM     21  C   UNL     1      -1.964   4.929  25.331  0.00  0.00    +0.105 C 
BRANCH   3  20
ATOM     20  C   UNL     1       0.150   3.803  25.151  0.00  0.00    +0.112 C 
BRANCH  20  22
ATOM     22  C   UNL     1       0.192   2.390  25.711  0.00  0.00    +0.171 C 
BRANCH  22   2
ATOM      2  O   UNL     1       0.963   2.396  26.905  0.00  0.00    -0.394 OA
ATOM     32  H   UNL     1       1.596   3.131  26.834  0.00  0.00    +0.209 HD
ENDBRANCH  22   2
ENDBRANCH  20  22
ENDBRANCH   3  20
ENDBRANCH  14   3
ENDBRANCH   8  14
BRANCH  10  15
ATOM     15  C   UNL     1      -4.408  -1.270  23.970  0.00  0.00    +0.105 C 
BRANCH  15  19
ATOM      1  O   UNL     1      -1.994  -0.987  23.752  0.00  0.00    -0.420 OA
ATOM      4  N   UNL     1      -2.630  -3.072  24.255  0.00  0.00    -0.112 NA
ATOM      5  N   UNL     1      -1.251  -3.057  24.163  0.00  0.00    -0.107 NA
ATOM     19  C   UNL     1      -3.020  -1.843  24.008  0.00  0.00    +0.218 A 
ATOM     23  C   UNL     1      -0.924  -1.820  23.867  0.00  0.00    +0.248 A 
BRANCH  23  24
ATOM     24  C   UNL     1       0.362  -1.223  23.653  0.00  0.00    +0.039 A 
ATOM     25  C   UNL     1       0.460   0.007  23.002  0.00  0.00    +0.015 A 
ATOM     26  C   UNL     1       1.514  -1.870  24.098  0.00  0.00    +0.015 A 
ATOM     27  C   UNL     1       1.712   0.588  22.794  0.00  0.00    +0.024 A 
ATOM     28  C   UNL     1       2.766  -1.289  23.890  0.00  0.00    +0.024 A 
ATOM     29  C   UNL     1       2.864  -0.060  23.238  0.00  0.00    +0.029 A 
BRANCH  29   6
ATOM      6  N   UNL     1       4.129   0.528  23.027  0.00  0.00    -0.336 N 
ATOM     30  C   UNL     1       4.247   1.774  22.297  0.00  0.00    +0.129 C 
ATOM     31  C   UNL     1       5.328  -0.113  23.531  0.00  0.00    +0.129 C 
ENDBRANCH  29   6
ENDBRANCH  23  24
ENDBRANCH  15  19
ENDBRANCH  10  15
TORSDOF 10
ENDMDL
MODEL 4
REMARK VINA RESULT:       3.8      1.944      4.310
REMARK  Name = 45783974
REMARK  16 active torsions:
REMARK  status: ('A' for Active; 'I' for Inactive)
REMARK    1  A    between atoms: O_2  and  C_22
REMARK    2  A    between atoms: N_3  and  C_14
REMARK    3  A    between atoms: N_3  and  C_20
REMARK    4  A    between atoms: N_3  and  C_21
REMARK    5  A    between atoms: N_6  and  C_29
REMARK    6  A    between atoms: N_6  and  C_30
REMARK    7  A    between atoms: N_6  and  C_31
REMARK    8  A    between atoms: C_7  and  C_11
REMARK    9  A    between atoms: C_8  and  C_14
REMARK   10  A    between atoms: C_10  and  C_15
REMARK   11  A    between atoms: C_11  and  C_16
REMARK   12  A    between atoms: C_11  and  C_17
REMARK   13  A    between atoms: C_12  and  C_18
REMARK   14  A    between atoms: C_15  and  C_19
REMARK   15  A    between atoms: C_20  and  C_22
REMARK   16  A    between atoms: C_23  and  C_24
REMARK                            x       y       z     vdW  Elec       q    Type
REMARK                         _______ _______ _______ _____ _____    ______ ____
ROOT
ATOM      7  C   UNL     1      -4.240   1.703  25.762  0.00  0.00    +0.000 C 
ATOM      8  C   UNL     1      -4.342   0.424  24.899  0.00  0.00    +0.029 C 
ATOM      9  C   UNL     1      -2.844   2.329  25.635  0.00  0.00    +0.012 C 
ATOM     10  C   UNL     1      -2.454   2.659  24.178  0.00  0.00    +0.024 C 
ATOM     12  C   UNL     1      -2.900   1.596  23.186  0.00  0.00    -0.073 C 
ATOM     13  C   UNL     1      -3.734   0.598  23.531  0.00  0.00    -0.023 C 
ATOM     18  C   UNL     1      -2.419   1.725  21.766  0.00  0.00    +0.039 C 
ENDROOT
BRANCH   7  11
ATOM     11  C   UNL     1      -5.337   2.713  25.396  0.00  0.00    -0.013 C 
ATOM     16  C   UNL     1      -4.896   4.129  25.752  0.00  0.00    +0.007 C 
ATOM     17  C   UNL     1      -6.643   2.359  26.101  0.00  0.00    +0.007 C 
ENDBRANCH   7  11
BRANCH   8  14
ATOM     14  C   UNL     1      -3.689  -0.778  25.590  0.00  0.00    +0.092 C 
BRANCH  14   3
ATOM      3  N   UNL     1      -2.357  -1.012  25.061  0.00  0.00    -0.303 NA
ATOM     21  C   UNL     1      -1.348  -0.891  26.117  0.00  0.00    +0.105 C 
BRANCH   3  20
ATOM     20  C   UNL     1      -2.271  -2.335  24.434  0.00  0.00    +0.112 C 
BRANCH  20  22
ATOM     22  C   UNL     1      -3.572  -3.100  24.617  0.00  0.00    +0.171 C 
BRANCH  22   2
ATOM      2  O   UNL     1      -4.395  -2.880  23.478  0.00  0.00    -0.394 OA
ATOM     32  H   UNL     1      -5.195  -2.421  23.787  0.00  0.00    +0.209 HD
ENDBRANCH  22   2
ENDBRANCH  20  22
ENDBRANCH   3  20
ENDBRANCH  14   3
ENDBRANCH   8  14
BRANCH  10  15
ATOM     15  C   UNL     1      -0.945   2.929  24.125  0.00  0.00    +0.105 C 
BRANCH  15  19
ATOM      1  O   UNL     1       1.180   1.782  23.770  0.00  0.00    -0.420 OA
ATOM      4  N   UNL     1      -0.622   0.501  23.427  0.00  0.00    -0.112 NA
ATOM      5  N   UNL     1       0.501  -0.270  23.193  0.00  0.00    -0.107 NA
ATOM     19  C   UNL     1      -0.178   1.690  23.761  0.00  0.00    +0.218 A 
ATOM     23  C   UNL     1       1.529   0.518  23.404  0.00  0.00    +0.248 A 
BRANCH  23  24
ATOM     24  C   UNL     1       2.936   0.258  23.312  0.00  0.00    +0.039 A 
ATOM     25  C   UNL     1       3.798   1.243  22.828  0.00  0.00    +0.015 A 
ATOM     26  C   UNL     1       3.444  -0.978  23.710  0.00  0.00    +0.015 A 
ATOM     27  C   UNL     1       5.167   0.990  22.740  0.00  0.00    +0.024 A 
ATOM     28  C   UNL     1       4.814  -1.231  23.622  0.00  0.00    +0.024 A 
ATOM     29  C   UNL     1       5.675  -0.246  23.137  0.00  0.00    +0.029 A 
BRANCH  29   6
ATOM      6  N   UNL     1       7.059  -0.502  23.046  0.00  0.00    -0.336 N 
ATOM     30  C   UNL     1       8.010   0.357  23.722  0.00  0.00    +0.129 C 
ATOM     31  C   UNL     1       7.549  -1.624  22.269  0.00  0.00    +0.129 C 
ENDBRANCH  29   6
ENDBRANCH  23  24
ENDBRANCH  15  19
ENDBRANCH  10  15
TORSDOF 10
ENDMDL
MODEL 5
REMARK VINA RESULT:       3.9      1.884      4.387
REMARK  Name = 45783974
REMARK  16 active torsions:
REMARK  status: ('A' for Active; 'I' for Inactive)
REMARK    1  A    between atoms: O_2  and  C_22
REMARK    2  A    between atoms: N_3  and  C_14
REMARK    3  A    between atoms: N_3  and  C_20
REMARK    4  A    between atoms: N_3  and  C_21
REMARK    5  A    between atoms: N_6  and  C_29
REMARK    6  A    between atoms: N_6  and  C_30
REMARK    7  A    between atoms: N_6  and  C_31
REMARK    8  A    between atoms: C_7  and  C_11
REMARK    9  A    between atoms: C_8  and  C_14
REMARK   10  A    between atoms: C_10  and  C_15
REMARK   11  A    between atoms: C_11  and  C_16
REMARK   12  A    between atoms: C_11  and  C_17
REMARK   13  A    between atoms: C_12  and  C_18
REMARK   14  A    between atoms: C_15  and  C_19
REMARK   15  A    between atoms: C_20  and  C_22
REMARK   16  A    between atoms: C_23  and  C_24
REMARK                            x       y       z     vdW  Elec       q    Type
REMARK                         _______ _______ _______ _____ _____    ______ ____
ROOT
ATOM      7  C   UNL     1      -4.133   1.714  25.694  0.00  0.00    +0.000 C 
ATOM      8  C   UNL     1      -4.267   0.452  24.812  0.00  0.00    +0.029 C 
ATOM      9  C   UNL     1      -2.738   2.336  25.535  0.00  0.00    +0.012 C 
ATOM     10  C   UNL     1      -2.390   2.690  24.074  0.00  0.00    +0.024 C 
ATOM     12  C   UNL     1      -2.872   1.648  23.077  0.00  0.00    -0.073 C 
ATOM     13  C   UNL     1      -3.701   0.647  23.429  0.00  0.00    -0.023 C 
ATOM     18  C   UNL     1      -2.433   1.800  21.646  0.00  0.00    +0.039 C 
ENDROOT
BRANCH   7  11
ATOM     11  C   UNL     1      -5.235   2.736  25.379  0.00  0.00    -0.013 C 
ATOM     16  C   UNL     1      -4.796   4.136  25.796  0.00  0.00    +0.007 C 
ATOM     17  C   UNL     1      -6.536   2.347  26.075  0.00  0.00    +0.007 C 
ENDBRANCH   7  11
BRANCH   8  14
ATOM     14  C   UNL     1      -3.601  -0.765  25.461  0.00  0.00    +0.092 C 
BRANCH  14   3
ATOM      3  N   UNL     1      -4.115  -1.998  24.888  0.00  0.00    -0.303 NA
ATOM     21  C   UNL     1      -4.418  -1.823  23.464  0.00  0.00    +0.105 C 
BRANCH   3  20
ATOM     20  C   UNL     1      -3.157  -3.094  25.066  0.00  0.00    +0.112 C 
BRANCH  20  22
ATOM     22  C   UNL     1      -1.897  -2.843  24.253  0.00  0.00    +0.171 C 
BRANCH  22   2
ATOM      2  O   UNL     1      -0.951  -2.170  25.074  0.00  0.00    -0.394 OA
ATOM     32  H   UNL     1      -1.391  -1.980  25.921  0.00  0.00    +0.209 HD
ENDBRANCH  22   2
ENDBRANCH  20  22
ENDBRANCH   3  20
ENDBRANCH  14   3
ENDBRANCH   8  14
BRANCH  10  15
ATOM     15  C   UNL     1      -0.882   2.954  23.980  0.00  0.00    +0.105 C 
BRANCH  15  19
ATOM      1  O   UNL     1       1.240   1.785  23.686  0.00  0.00    -0.420 OA
ATOM      4  N   UNL     1      -0.555   0.450  23.643  0.00  0.00    -0.112 NA
ATOM      5  N   UNL     1       0.566  -0.338  23.466  0.00  0.00    -0.107 NA
ATOM     19  C   UNL     1      -0.115   1.680  23.767  0.00  0.00    +0.218 A 
ATOM     23  C   UNL     1       1.591   0.483  23.498  0.00  0.00    +0.248 A 
BRANCH  23  24
ATOM     24  C   UNL     1       2.996   0.225  23.369  0.00  0.00    +0.039 A 
ATOM     25  C   UNL     1       3.832   1.185  22.800  0.00  0.00    +0.015 A 
ATOM     26  C   UNL     1       3.525  -0.986  23.814  0.00  0.00    +0.015 A 
ATOM     27  C   UNL     1       5.199   0.934  22.675  0.00  0.00    +0.024 A 
ATOM     28  C   UNL     1       4.892  -1.238  23.690  0.00  0.00    +0.024 A 
ATOM     29  C   UNL     1       5.729  -0.277  23.120  0.00  0.00    +0.029 A 
BRANCH  29   6
ATOM      6  N   UNL     1       7.110  -0.532  22.993  0.00  0.00    -0.336 N 
ATOM     30  C   UNL     1       8.078   0.320  23.656  0.00  0.00    +0.129 C 
ATOM     31  C   UNL     1       7.581  -1.643  22.189  0.00  0.00    +0.129 C 
ENDBRANCH  29   6
ENDBRANCH  23  24
ENDBRANCH  15  19
ENDBRANCH  10  15
TORSDOF 10
ENDMDL
