MODEL 1
REMARK VINA RESULT:      -6.5      0.000      0.000
REMARK  Name = 75536512
REMARK  11 active torsions:
REMARK  status: ('A' for Active; 'I' for Inactive)
REMARK    1  A    between atoms: O_2  and  C_7
REMARK    2  A    between atoms: N_4  and  C_6
REMARK    3  A    between atoms: N_4  and  C_13
REMARK    4  A    between atoms: N_4  and  C_14
REMARK    5  A    between atoms: N_5  and  C_10
REMARK    6  A    between atoms: C_8  and  C_10
REMARK    7  A    between atoms: C_11  and  C_12
REMARK    8  A    between atoms: C_11  and  C_16
REMARK    9  A    between atoms: C_11  and  C_17
REMARK   10  A    between atoms: C_11  and  C_18
REMARK   11  A    between atoms: C_12  and  C_15
REMARK                            x       y       z     vdW  Elec       q    Type
REMARK                         _______ _______ _______ _____ _____    ______ ____
ROOT
ATOM      1  O   UNL     1      -1.655   2.263  23.212  0.00  0.00    -0.371 OA
ATOM      6  C   UNL     1      -3.550   3.247  24.252  0.00  0.00    +0.113 C 
ATOM      7  C   UNL     1      -2.557   2.835  25.323  0.00  0.00    +0.164 C 
ATOM      8  C   UNL     1      -1.272   2.745  24.511  0.00  0.00    +0.165 C 
ATOM      9  C   UNL     1      -3.077   2.420  23.068  0.00  0.00    +0.181 C 
ENDROOT
BRANCH   6   4
ATOM      4  N   UNL     1      -4.935   2.984  24.609  0.00  0.00    -0.301 NA
ATOM     13  C   UNL     1      -5.072   1.661  25.226  0.00  0.00    +0.105 C 
ATOM     14  C   UNL     1      -5.443   4.017  25.517  0.00  0.00    +0.105 C 
ENDBRANCH   6   4
BRANCH   7   2
ATOM      2  O   UNL     1      -2.456   3.782  26.368  0.00  0.00    -0.388 OA
ATOM     20  H   UNL     1      -3.091   4.498  26.193  0.00  0.00    +0.210 HD
ENDBRANCH   7   2
BRANCH   8  10
ATOM     10  C   UNL     1      -0.240   1.813  25.121  0.00  0.00    +0.138 C 
BRANCH  10   5
ATOM      3  O   UNL     1       0.123  -0.573  23.518  0.00  0.00    -0.276 OA
ATOM      5  N   UNL     1      -0.792   0.500  25.366  0.00  0.00    -0.313 N 
ATOM     15  C   UNL     1      -0.561  -0.587  24.539  0.00  0.00    +0.214 C 
ATOM     19  H   UNL     1      -1.367   0.380  26.194  0.00  0.00    +0.149 HD
BRANCH  15  12
ATOM     12  C   UNL     1      -1.261  -1.851  25.011  0.00  0.00    +0.102 C 
BRANCH  12  11
ATOM     11  C   UNL     1      -2.804  -1.811  24.914  0.00  0.00    -0.029 C 
ATOM     16  C   UNL     1      -3.264  -0.910  23.756  0.00  0.00    +0.011 C 
ATOM     17  C   UNL     1      -3.304  -3.244  24.644  0.00  0.00    +0.011 C 
ATOM     18  C   UNL     1      -3.437  -1.316  26.225  0.00  0.00    +0.011 C 
ENDBRANCH  12  11
ENDBRANCH  15  12
ENDBRANCH  10   5
ENDBRANCH   8  10
TORSDOF 6
ENDMDL
MODEL 2
REMARK VINA RESULT:      -5.6      1.562      4.913
REMARK  Name = 75536512
REMARK  11 active torsions:
REMARK  status: ('A' for Active; 'I' for Inactive)
REMARK    1  A    between atoms: O_2  and  C_7
REMARK    2  A    between atoms: N_4  and  C_6
REMARK    3  A    between atoms: N_4  and  C_13
REMARK    4  A    between atoms: N_4  and  C_14
REMARK    5  A    between atoms: N_5  and  C_10
REMARK    6  A    between atoms: C_8  and  C_10
REMARK    7  A    between atoms: C_11  and  C_12
REMARK    8  A    between atoms: C_11  and  C_16
REMARK    9  A    between atoms: C_11  and  C_17
REMARK   10  A    between atoms: C_11  and  C_18
REMARK   11  A    between atoms: C_12  and  C_15
REMARK                            x       y       z     vdW  Elec       q    Type
REMARK                         _______ _______ _______ _____ _____    ______ ____
ROOT
ATOM      1  O   UNL     1       0.118  -0.224  24.687  0.00  0.00    -0.371 OA
ATOM      6  C   UNL     1      -1.926  -1.360  24.272  0.00  0.00    +0.113 C 
ATOM      7  C   UNL     1      -2.201   0.128  24.388  0.00  0.00    +0.164 C 
ATOM      8  C   UNL     1      -0.819   0.704  24.115  0.00  0.00    +0.165 C 
ATOM      9  C   UNL     1      -0.563  -1.466  24.935  0.00  0.00    +0.181 C 
ENDROOT
BRANCH   6   4
ATOM      4  N   UNL     1      -2.934  -2.190  24.911  0.00  0.00    -0.301 NA
ATOM     13  C   UNL     1      -3.539  -1.492  26.050  0.00  0.00    +0.105 C 
ATOM     14  C   UNL     1      -3.971  -2.581  23.952  0.00  0.00    +0.105 C 
ENDBRANCH   6   4
BRANCH   7   2
ATOM      2  O   UNL     1      -3.156   0.581  23.448  0.00  0.00    -0.388 OA
ATOM     20  H   UNL     1      -3.071   1.547  23.367  0.00  0.00    +0.210 HD
ENDBRANCH   7   2
BRANCH   8  10
ATOM     10  C   UNL     1      -0.612   2.081  24.720  0.00  0.00    +0.138 C 
BRANCH  10   5
ATOM      3  O   UNL     1      -1.395   4.846  25.085  0.00  0.00    -0.276 OA
ATOM      5  N   UNL     1      -1.821   2.575  25.338  0.00  0.00    -0.313 N 
ATOM     15  C   UNL     1      -2.111   3.923  25.468  0.00  0.00    +0.214 C 
ATOM     19  H   UNL     1      -2.486   1.888  25.680  0.00  0.00    +0.149 HD
BRANCH  15  12
ATOM     12  C   UNL     1      -3.439   4.180  26.161  0.00  0.00    +0.102 C 
BRANCH  12  11
ATOM     11  C   UNL     1      -4.686   3.765  25.343  0.00  0.00    -0.029 C 
ATOM     16  C   UNL     1      -5.838   4.762  25.546  0.00  0.00    +0.011 C 
ATOM     17  C   UNL     1      -4.300   3.765  23.851  0.00  0.00    +0.011 C 
ATOM     18  C   UNL     1      -5.162   2.354  25.722  0.00  0.00    +0.011 C 
ENDBRANCH  12  11
ENDBRANCH  15  12
ENDBRANCH  10   5
ENDBRANCH   8  10
TORSDOF 6
ENDMDL
MODEL 3
REMARK VINA RESULT:      -5.6      2.013      3.568
REMARK  Name = 75536512
REMARK  11 active torsions:
REMARK  status: ('A' for Active; 'I' for Inactive)
REMARK    1  A    between atoms: O_2  and  C_7
REMARK    2  A    between atoms: N_4  and  C_6
REMARK    3  A    between atoms: N_4  and  C_13
REMARK    4  A    between atoms: N_4  and  C_14
REMARK    5  A    between atoms: N_5  and  C_10
REMARK    6  A    between atoms: C_8  and  C_10
REMARK    7  A    between atoms: C_11  and  C_12
REMARK    8  A    between atoms: C_11  and  C_16
REMARK    9  A    between atoms: C_11  and  C_17
REMARK   10  A    between atoms: C_11  and  C_18
REMARK   11  A    between atoms: C_12  and  C_15
REMARK                            x       y       z     vdW  Elec       q    Type
REMARK                         _______ _______ _______ _____ _____    ______ ____
ROOT
ATOM      1  O   UNL     1      -4.761   2.977  25.767  0.00  0.00    -0.371 OA
ATOM      6  C   UNL     1      -2.776   3.568  24.605  0.00  0.00    +0.113 C 
ATOM      7  C   UNL     1      -3.150   2.140  24.252  0.00  0.00    +0.164 C 
ATOM      8  C   UNL     1      -4.627   2.126  24.616  0.00  0.00    +0.165 C 
ATOM      9  C   UNL     1      -3.575   3.781  25.880  0.00  0.00    +0.181 C 
ENDROOT
BRANCH   6   4
ATOM      4  N   UNL     1      -1.348   3.768  24.792  0.00  0.00    -0.301 NA
ATOM     13  C   UNL     1      -1.042   5.188  24.986  0.00  0.00    +0.105 C 
ATOM     14  C   UNL     1      -0.858   2.987  25.932  0.00  0.00    +0.105 C 
ENDBRANCH   6   4
BRANCH   7   2
ATOM      2  O   UNL     1      -2.941   1.844  22.885  0.00  0.00    -0.388 OA
ATOM     20  H   UNL     1      -2.007   2.018  22.674  0.00  0.00    +0.210 HD
ENDBRANCH   7   2
BRANCH   8  10
ATOM     10  C   UNL     1      -5.152   0.738  24.941  0.00  0.00    +0.138 C 
BRANCH  10   5
ATOM      3  O   UNL     1      -4.279  -1.612  23.489  0.00  0.00    -0.276 OA
ATOM      5  N   UNL     1      -4.080  -0.164  25.295  0.00  0.00    -0.313 N 
ATOM     15  C   UNL     1      -3.734  -1.268  24.535  0.00  0.00    +0.214 C 
ATOM     19  H   UNL     1      -3.558   0.040  26.143  0.00  0.00    +0.149 HD
BRANCH  15  12
ATOM     12  C   UNL     1      -2.579  -2.059  25.128  0.00  0.00    +0.102 C 
BRANCH  12  11
ATOM     11  C   UNL     1      -1.215  -1.329  25.103  0.00  0.00    -0.029 C 
ATOM     16  C   UNL     1      -1.134  -0.269  26.213  0.00  0.00    +0.011 C 
ATOM     17  C   UNL     1      -0.109  -2.374  25.347  0.00  0.00    +0.011 C 
ATOM     18  C   UNL     1      -0.959  -0.660  23.743  0.00  0.00    +0.011 C 
ENDBRANCH  12  11
ENDBRANCH  15  12
ENDBRANCH  10   5
ENDBRANCH   8  10
TORSDOF 6
ENDMDL
MODEL 4
REMARK VINA RESULT:      -5.3      1.518      2.137
REMARK  Name = 75536512
REMARK  11 active torsions:
REMARK  status: ('A' for Active; 'I' for Inactive)
REMARK    1  A    between atoms: O_2  and  C_7
REMARK    2  A    between atoms: N_4  and  C_6
REMARK    3  A    between atoms: N_4  and  C_13
REMARK    4  A    between atoms: N_4  and  C_14
REMARK    5  A    between atoms: N_5  and  C_10
REMARK    6  A    between atoms: C_8  and  C_10
REMARK    7  A    between atoms: C_11  and  C_12
REMARK    8  A    between atoms: C_11  and  C_16
REMARK    9  A    between atoms: C_11  and  C_17
REMARK   10  A    between atoms: C_11  and  C_18
REMARK   11  A    between atoms: C_12  and  C_15
REMARK                            x       y       z     vdW  Elec       q    Type
REMARK                         _______ _______ _______ _____ _____    ______ ____
ROOT
ATOM      1  O   UNL     1      -0.898   2.096  23.051  0.00  0.00    -0.371 OA
ATOM      6  C   UNL     1      -1.741   3.091  25.036  0.00  0.00    +0.113 C 
ATOM      7  C   UNL     1      -0.776   1.981  25.410  0.00  0.00    +0.164 C 
ATOM      8  C   UNL     1       0.026   1.844  24.123  0.00  0.00    +0.165 C 
ATOM      9  C   UNL     1      -2.066   2.733  23.595  0.00  0.00    +0.181 C 
ENDROOT
BRANCH   6   4
ATOM      4  N   UNL     1      -2.919   3.149  25.885  0.00  0.00    -0.301 NA
ATOM     13  C   UNL     1      -3.140   4.512  26.377  0.00  0.00    +0.105 C 
ATOM     14  C   UNL     1      -4.105   2.678  25.163  0.00  0.00    +0.105 C 
ENDBRANCH   6   4
BRANCH   7   2
ATOM      2  O   UNL     1       0.046   2.321  26.510  0.00  0.00    -0.388 OA
ATOM     20  H   UNL     1       0.048   1.573  27.132  0.00  0.00    +0.210 HD
ENDBRANCH   7   2
BRANCH   8  10
ATOM     10  C   UNL     1       0.652   0.472  23.949  0.00  0.00    +0.138 C 
BRANCH  10   5
ATOM      3  O   UNL     1      -0.430  -1.365  25.911  0.00  0.00    -0.276 OA
ATOM      5  N   UNL     1      -0.352  -0.546  23.738  0.00  0.00    -0.313 N 
ATOM     15  C   UNL     1      -0.809  -1.382  24.743  0.00  0.00    +0.214 C 
ATOM     19  H   UNL     1      -0.739  -0.635  22.803  0.00  0.00    +0.149 HD
BRANCH  15  12
ATOM     12  C   UNL     1      -1.859  -2.370  24.261  0.00  0.00    +0.102 C 
BRANCH  12  11
ATOM     11  C   UNL     1      -3.322  -1.915  24.475  0.00  0.00    -0.029 C 
ATOM     16  C   UNL     1      -3.589  -1.586  25.953  0.00  0.00    +0.011 C 
ATOM     17  C   UNL     1      -3.552  -0.638  23.643  0.00  0.00    +0.011 C 
ATOM     18  C   UNL     1      -4.319  -2.986  24.005  0.00  0.00    +0.011 C 
ENDBRANCH  12  11
ENDBRANCH  15  12
ENDBRANCH  10   5
ENDBRANCH   8  10
TORSDOF 6
ENDMDL
MODEL 5
REMARK VINA RESULT:      -4.9      2.036      5.660
REMARK  Name = 75536512
REMARK  11 active torsions:
REMARK  status: ('A' for Active; 'I' for Inactive)
REMARK    1  A    between atoms: O_2  and  C_7
REMARK    2  A    between atoms: N_4  and  C_6
REMARK    3  A    between atoms: N_4  and  C_13
REMARK    4  A    between atoms: N_4  and  C_14
REMARK    5  A    between atoms: N_5  and  C_10
REMARK    6  A    between atoms: C_8  and  C_10
REMARK    7  A    between atoms: C_11  and  C_12
REMARK    8  A    between atoms: C_11  and  C_16
REMARK    9  A    between atoms: C_11  and  C_17
REMARK   10  A    between atoms: C_11  and  C_18
REMARK   11  A    between atoms: C_12  and  C_15
REMARK                            x       y       z     vdW  Elec       q    Type
REMARK                         _______ _______ _______ _____ _____    ______ ____
ROOT
ATOM      1  O   UNL     1      -4.317  -1.721  24.472  0.00  0.00    -0.371 OA
ATOM      6  C   UNL     1      -2.000  -1.733  24.990  0.00  0.00    +0.113 C 
ATOM      7  C   UNL     1      -2.498  -0.300  24.984  0.00  0.00    +0.164 C 
ATOM      8  C   UNL     1      -3.994  -0.509  25.173  0.00  0.00    +0.165 C 
ATOM      9  C   UNL     1      -3.098  -2.437  24.210  0.00  0.00    +0.181 C 
ENDROOT
BRANCH   6   4
ATOM      4  N   UNL     1      -0.686  -1.896  24.390  0.00  0.00    -0.301 NA
ATOM     13  C   UNL     1      -0.207  -0.627  23.832  0.00  0.00    +0.105 C 
ATOM     14  C   UNL     1       0.275  -2.408  25.372  0.00  0.00    +0.105 C 
ENDBRANCH   6   4
BRANCH   7   2
ATOM      2  O   UNL     1      -1.938   0.477  26.025  0.00  0.00    -0.388 OA
ATOM     20  H   UNL     1      -2.662   0.925  26.495  0.00  0.00    +0.210 HD
ENDBRANCH   7   2
BRANCH   8  10
ATOM     10  C   UNL     1      -4.833   0.636  24.634  0.00  0.00    +0.138 C 
BRANCH  10   5
ATOM      3  O   UNL     1      -5.083   3.343  25.635  0.00  0.00    -0.276 OA
ATOM      5  N   UNL     1      -4.015   1.777  24.291  0.00  0.00    -0.313 N 
ATOM     15  C   UNL     1      -4.211   3.039  24.823  0.00  0.00    +0.214 C 
ATOM     19  H   UNL     1      -3.257   1.627  23.631  0.00  0.00    +0.149 HD
BRANCH  15  12
ATOM     12  C   UNL     1      -3.223   4.067  24.294  0.00  0.00    +0.102 C 
BRANCH  12  11
ATOM     11  C   UNL     1      -1.838   4.046  24.983  0.00  0.00    -0.029 C 
ATOM     16  C   UNL     1      -0.856   3.138  24.225  0.00  0.00    +0.011 C 
ATOM     17  C   UNL     1      -1.278   5.482  24.974  0.00  0.00    +0.011 C 
ATOM     18  C   UNL     1      -1.942   3.575  26.443  0.00  0.00    +0.011 C 
ENDBRANCH  12  11
ENDBRANCH  15  12
ENDBRANCH  10   5
ENDBRANCH   8  10
TORSDOF 6
ENDMDL
MODEL 6
REMARK VINA RESULT:      -4.5      1.570      4.774
REMARK  Name = 75536512
REMARK  11 active torsions:
REMARK  status: ('A' for Active; 'I' for Inactive)
REMARK    1  A    between atoms: O_2  and  C_7
REMARK    2  A    between atoms: N_4  and  C_6
REMARK    3  A    between atoms: N_4  and  C_13
REMARK    4  A    between atoms: N_4  and  C_14
REMARK    5  A    between atoms: N_5  and  C_10
REMARK    6  A    between atoms: C_8  and  C_10
REMARK    7  A    between atoms: C_11  and  C_12
REMARK    8  A    between atoms: C_11  and  C_16
REMARK    9  A    between atoms: C_11  and  C_17
REMARK   10  A    between atoms: C_11  and  C_18
REMARK   11  A    between atoms: C_12  and  C_15
REMARK                            x       y       z     vdW  Elec       q    Type
REMARK                         _______ _______ _______ _____ _____    ______ ____
ROOT
ATOM      1  O   UNL     1      -1.313   0.859  25.977  0.00  0.00    -0.371 OA
ATOM      6  C   UNL     1      -1.577  -1.251  24.920  0.00  0.00    +0.113 C 
ATOM      7  C   UNL     1      -0.966  -0.275  23.931  0.00  0.00    +0.164 C 
ATOM      8  C   UNL     1      -0.398   0.778  24.871  0.00  0.00    +0.165 C 
ATOM      9  C   UNL     1      -2.158  -0.304  25.957  0.00  0.00    +0.181 C 
ENDROOT
BRANCH   6   4
ATOM      4  N   UNL     1      -2.575  -2.128  24.332  0.00  0.00    -0.301 NA
ATOM     13  C   UNL     1      -3.131  -3.035  25.341  0.00  0.00    +0.105 C 
ATOM     14  C   UNL     1      -3.651  -1.350  23.709  0.00  0.00    +0.105 C 
ENDBRANCH   6   4
BRANCH   7   2
ATOM      2  O   UNL     1       0.039  -0.866  23.131  0.00  0.00    -0.388 OA
ATOM     20  H   UNL     1       0.813  -0.277  23.128  0.00  0.00    +0.210 HD
ENDBRANCH   7   2
BRANCH   8  10
ATOM     10  C   UNL     1      -0.251   2.144  24.225  0.00  0.00    +0.138 C 
BRANCH  10   5
ATOM      3  O   UNL     1      -2.670   2.048  22.634  0.00  0.00    -0.276 OA
ATOM      5  N   UNL     1      -1.444   2.941  24.394  0.00  0.00    -0.313 N 
ATOM     15  C   UNL     1      -2.558   2.824  23.579  0.00  0.00    +0.214 C 
ATOM     19  H   UNL     1      -1.456   3.611  25.159  0.00  0.00    +0.149 HD
BRANCH  15  12
ATOM     12  C   UNL     1      -3.676   3.781  23.961  0.00  0.00    +0.102 C 
BRANCH  12  11
ATOM     11  C   UNL     1      -4.442   3.399  25.250  0.00  0.00    -0.029 C 
ATOM     16  C   UNL     1      -4.824   1.910  25.246  0.00  0.00    +0.011 C 
ATOM     17  C   UNL     1      -3.514   3.660  26.452  0.00  0.00    +0.011 C 
ATOM     18  C   UNL     1      -5.711   4.249  25.423  0.00  0.00    +0.011 C 
ENDBRANCH  12  11
ENDBRANCH  15  12
ENDBRANCH  10   5
ENDBRANCH   8  10
TORSDOF 6
ENDMDL
MODEL 7
REMARK VINA RESULT:      -4.3      1.838      4.565
REMARK  Name = 75536512
REMARK  11 active torsions:
REMARK  status: ('A' for Active; 'I' for Inactive)
REMARK    1  A    between atoms: O_2  and  C_7
REMARK    2  A    between atoms: N_4  and  C_6
REMARK    3  A    between atoms: N_4  and  C_13
REMARK    4  A    between atoms: N_4  and  C_14
REMARK    5  A    between atoms: N_5  and  C_10
REMARK    6  A    between atoms: C_8  and  C_10
REMARK    7  A    between atoms: C_11  and  C_12
REMARK    8  A    between atoms: C_11  and  C_16
REMARK    9  A    between atoms: C_11  and  C_17
REMARK   10  A    between atoms: C_11  and  C_18
REMARK   11  A    between atoms: C_12  and  C_15
REMARK                            x       y       z     vdW  Elec       q    Type
REMARK                         _______ _______ _______ _____ _____    ______ ____
ROOT
ATOM      1  O   UNL     1      -0.586  -1.108  23.427  0.00  0.00    -0.371 OA
ATOM      6  C   UNL     1       0.265   0.640  24.791  0.00  0.00    +0.113 C 
ATOM      7  C   UNL     1      -1.032   0.131  25.391  0.00  0.00    +0.164 C 
ATOM      8  C   UNL     1      -1.132  -1.245  24.750  0.00  0.00    +0.165 C 
ATOM      9  C   UNL     1       0.163   0.118  23.367  0.00  0.00    +0.181 C 
ENDROOT
BRANCH   6   4
ATOM      4  N   UNL     1       0.410   2.085  24.855  0.00  0.00    -0.301 NA
ATOM     13  C   UNL     1      -0.532   2.744  23.944  0.00  0.00    +0.105 C 
ATOM     14  C   UNL     1       0.207   2.569  26.224  0.00  0.00    +0.105 C 
ENDBRANCH   6   4
BRANCH   7   2
ATOM      2  O   UNL     1      -0.987   0.054  26.803  0.00  0.00    -0.388 OA
ATOM     20  H   UNL     1      -0.162  -0.395  27.058  0.00  0.00    +0.210 HD
ENDBRANCH   7   2
BRANCH   8  10
ATOM     10  C   UNL     1      -2.555  -1.768  24.667  0.00  0.00    +0.138 C 
BRANCH  10   5
ATOM      3  O   UNL     1      -3.528   0.506  23.157  0.00  0.00    -0.276 OA
ATOM      5  N   UNL     1      -3.510  -0.773  25.098  0.00  0.00    -0.313 N 
ATOM     15  C   UNL     1      -3.917   0.285  24.301  0.00  0.00    +0.214 C 
ATOM     19  H   UNL     1      -3.901  -0.872  26.030  0.00  0.00    +0.149 HD
BRANCH  15  12
ATOM     12  C   UNL     1      -4.922   1.194  24.990  0.00  0.00    +0.102 C 
BRANCH  12  11
ATOM     11  C   UNL     1      -4.536   2.692  25.001  0.00  0.00    -0.029 C 
ATOM     16  C   UNL     1      -5.680   3.555  25.561  0.00  0.00    +0.011 C 
ATOM     17  C   UNL     1      -3.307   2.863  25.915  0.00  0.00    +0.011 C 
ATOM     18  C   UNL     1      -4.168   3.189  23.594  0.00  0.00    +0.011 C 
ENDBRANCH  12  11
ENDBRANCH  15  12
ENDBRANCH  10   5
ENDBRANCH   8  10
TORSDOF 6
ENDMDL
MODEL 8
REMARK VINA RESULT:      -3.8      2.072      5.106
REMARK  Name = 75536512
REMARK  11 active torsions:
REMARK  status: ('A' for Active; 'I' for Inactive)
REMARK    1  A    between atoms: O_2  and  C_7
REMARK    2  A    between atoms: N_4  and  C_6
REMARK    3  A    between atoms: N_4  and  C_13
REMARK    4  A    between atoms: N_4  and  C_14
REMARK    5  A    between atoms: N_5  and  C_10
REMARK    6  A    between atoms: C_8  and  C_10
REMARK    7  A    between atoms: C_11  and  C_12
REMARK    8  A    between atoms: C_11  and  C_16
REMARK    9  A    between atoms: C_11  and  C_17
REMARK   10  A    between atoms: C_11  and  C_18
REMARK   11  A    between atoms: C_12  and  C_15
REMARK                            x       y       z     vdW  Elec       q    Type
REMARK                         _______ _______ _______ _____ _____    ______ ____
ROOT
ATOM      1  O   UNL     1      -1.734  -2.404  24.064  0.00  0.00    -0.371 OA
ATOM      6  C   UNL     1      -0.056  -0.755  24.393  0.00  0.00    +0.113 C 
ATOM      7  C   UNL     1      -1.251  -0.428  25.270  0.00  0.00    +0.164 C 
ATOM      8  C   UNL     1      -1.941  -1.782  25.344  0.00  0.00    +0.165 C 
ATOM      9  C   UNL     1      -0.676  -1.707  23.384  0.00  0.00    +0.181 C 
ENDROOT
BRANCH   6   4
ATOM      4  N   UNL     1       0.550   0.411  23.774  0.00  0.00    -0.301 NA
ATOM     13  C   UNL     1       1.364   0.024  22.618  0.00  0.00    +0.105 C 
ATOM     14  C   UNL     1      -0.475   1.376  23.365  0.00  0.00    +0.105 C 
ENDBRANCH   6   4
BRANCH   7   2
ATOM      2  O   UNL     1      -0.876   0.044  26.549  0.00  0.00    -0.388 OA
ATOM     20  H   UNL     1      -0.468  -0.691  27.039  0.00  0.00    +0.210 HD
ENDBRANCH   7   2
BRANCH   8  10
ATOM     10  C   UNL     1      -3.428  -1.684  25.632  0.00  0.00    +0.138 C 
BRANCH  10   5
ATOM      3  O   UNL     1      -5.170  -0.032  24.011  0.00  0.00    -0.276 OA
ATOM      5  N   UNL     1      -3.829  -0.319  25.887  0.00  0.00    -0.313 N 
ATOM     15  C   UNL     1      -4.670   0.394  25.049  0.00  0.00    +0.214 C 
ATOM     19  H   UNL     1      -3.476   0.123  26.730  0.00  0.00    +0.149 HD
BRANCH  15  12
ATOM     12  C   UNL     1      -4.931   1.810  25.536  0.00  0.00    +0.102 C 
BRANCH  12  11
ATOM     11  C   UNL     1      -4.016   2.888  24.908  0.00  0.00    -0.029 C 
ATOM     16  C   UNL     1      -3.777   2.611  23.414  0.00  0.00    +0.011 C 
ATOM     17  C   UNL     1      -4.721   4.252  25.043  0.00  0.00    +0.011 C 
ATOM     18  C   UNL     1      -2.662   2.968  25.632  0.00  0.00    +0.011 C 
ENDBRANCH  12  11
ENDBRANCH  15  12
ENDBRANCH  10   5
ENDBRANCH   8  10
TORSDOF 6
ENDMDL
MODEL 9
REMARK VINA RESULT:      -3.6      1.894      4.241
REMARK  Name = 75536512
REMARK  11 active torsions:
REMARK  status: ('A' for Active; 'I' for Inactive)
REMARK    1  A    between atoms: O_2  and  C_7
REMARK    2  A    between atoms: N_4  and  C_6
REMARK    3  A    between atoms: N_4  and  C_13
REMARK    4  A    between atoms: N_4  and  C_14
REMARK    5  A    between atoms: N_5  and  C_10
REMARK    6  A    between atoms: C_8  and  C_10
REMARK    7  A    between atoms: C_11  and  C_12
REMARK    8  A    between atoms: C_11  and  C_16
REMARK    9  A    between atoms: C_11  and  C_17
REMARK   10  A    between atoms: C_11  and  C_18
REMARK   11  A    between atoms: C_12  and  C_15
REMARK                            x       y       z     vdW  Elec       q    Type
REMARK                         _______ _______ _______ _____ _____    ______ ____
ROOT
ATOM      1  O   UNL     1      -3.018  -1.257  25.926  0.00  0.00    -0.371 OA
ATOM      6  C   UNL     1      -4.447   0.064  24.565  0.00  0.00    +0.113 C 
ATOM      7  C   UNL     1      -3.011   0.501  24.344  0.00  0.00    +0.164 C 
ATOM      8  C   UNL     1      -2.253  -0.726  24.831  0.00  0.00    +0.165 C 
ATOM      9  C   UNL     1      -4.335  -0.683  25.884  0.00  0.00    +0.181 C 
ENDROOT
BRANCH   6   4
ATOM      4  N   UNL     1      -5.391   1.167  24.617  0.00  0.00    -0.301 NA
ATOM     13  C   UNL     1      -5.989   1.279  25.950  0.00  0.00    +0.105 C 
ATOM     14  C   UNL     1      -4.738   2.428  24.251  0.00  0.00    +0.105 C 
ENDBRANCH   6   4
BRANCH   7   2
ATOM      2  O   UNL     1      -2.730   0.791  22.989  0.00  0.00    -0.388 OA
ATOM     20  H   UNL     1      -3.556   0.709  22.482  0.00  0.00    +0.210 HD
ENDBRANCH   7   2
BRANCH   8  10
ATOM     10  C   UNL     1      -0.841  -0.415  25.295  0.00  0.00    +0.138 C 
BRANCH  10   5
ATOM      3  O   UNL     1       0.774   1.579  23.949  0.00  0.00    -0.276 OA
ATOM      5  N   UNL     1      -0.694   0.978  25.648  0.00  0.00    -0.313 N 
ATOM     15  C   UNL     1       0.105   1.861  24.941  0.00  0.00    +0.214 C 
ATOM     19  H   UNL     1      -1.217   1.315  26.452  0.00  0.00    +0.149 HD
BRANCH  15  12
ATOM     12  C   UNL     1       0.094   3.266  25.520  0.00  0.00    +0.102 C 
BRANCH  12  11
ATOM     11  C   UNL     1      -1.080   4.153  25.043  0.00  0.00    -0.029 C 
ATOM     16  C   UNL     1      -1.627   3.669  23.691  0.00  0.00    +0.011 C 
ATOM     17  C   UNL     1      -2.209   4.053  26.088  0.00  0.00    +0.011 C 
ATOM     18  C   UNL     1      -0.660   5.627  24.923  0.00  0.00    +0.011 C 
ENDBRANCH  12  11
ENDBRANCH  15  12
ENDBRANCH  10   5
ENDBRANCH   8  10
TORSDOF 6
ENDMDL
MODEL 10
REMARK VINA RESULT:      -3.4      1.857      3.528
REMARK  Name = 75536512
REMARK  11 active torsions:
REMARK  status: ('A' for Active; 'I' for Inactive)
REMARK    1  A    between atoms: O_2  and  C_7
REMARK    2  A    between atoms: N_4  and  C_6
REMARK    3  A    between atoms: N_4  and  C_13
REMARK    4  A    between atoms: N_4  and  C_14
REMARK    5  A    between atoms: N_5  and  C_10
REMARK    6  A    between atoms: C_8  and  C_10
REMARK    7  A    between atoms: C_11  and  C_12
REMARK    8  A    between atoms: C_11  and  C_16
REMARK    9  A    between atoms: C_11  and  C_17
REMARK   10  A    between atoms: C_11  and  C_18
REMARK   11  A    between atoms: C_12  and  C_15
REMARK                            x       y       z     vdW  Elec       q    Type
REMARK                         _______ _______ _______ _____ _____    ______ ____
ROOT
ATOM      1  O   UNL     1      -5.612   0.743  25.882  0.00  0.00    -0.371 OA
ATOM      6  C   UNL     1      -4.837   2.667  24.725  0.00  0.00    +0.113 C 
ATOM      7  C   UNL     1      -3.798   1.567  24.608  0.00  0.00    +0.164 C 
ATOM      8  C   UNL     1      -4.641   0.335  24.904  0.00  0.00    +0.165 C 
ATOM      9  C   UNL     1      -5.658   2.180  25.907  0.00  0.00    +0.181 C 
ENDROOT
BRANCH   6   4
ATOM      4  N   UNL     1      -4.267   3.987  24.937  0.00  0.00    -0.301 NA
ATOM     13  C   UNL     1      -3.156   3.929  25.891  0.00  0.00    +0.105 C 
ATOM     14  C   UNL     1      -3.812   4.567  23.670  0.00  0.00    +0.105 C 
ENDBRANCH   6   4
BRANCH   7   2
ATOM      2  O   UNL     1      -3.209   1.508  23.323  0.00  0.00    -0.388 OA
ATOM     20  H   UNL     1      -3.921   1.481  22.662  0.00  0.00    +0.210 HD
ENDBRANCH   7   2
BRANCH   8  10
ATOM     10  C   UNL     1      -3.831  -0.832  25.440  0.00  0.00    +0.138 C 
BRANCH  10   5
ATOM      3  O   UNL     1      -1.858  -2.496  24.124  0.00  0.00    -0.276 OA
ATOM      5  N   UNL     1      -2.411  -0.587  25.328  0.00  0.00    -0.313 N 
ATOM     15  C   UNL     1      -1.541  -1.445  24.675  0.00  0.00    +0.214 C 
ATOM     19  H   UNL     1      -2.048   0.266  25.745  0.00  0.00    +0.149 HD
BRANCH  15  12
ATOM     12  C   UNL     1      -0.099  -0.965  24.705  0.00  0.00    +0.102 C 
BRANCH  12  11
ATOM     11  C   UNL     1       0.208   0.217  23.756  0.00  0.00    -0.029 C 
ATOM     16  C   UNL     1       0.140   1.560  24.502  0.00  0.00    +0.011 C 
ATOM     17  C   UNL     1       1.639   0.035  23.213  0.00  0.00    +0.011 C 
ATOM     18  C   UNL     1      -0.762   0.249  22.564  0.00  0.00    +0.011 C 
ENDBRANCH  12  11
ENDBRANCH  15  12
ENDBRANCH  10   5
ENDBRANCH   8  10
TORSDOF 6
ENDMDL
