MODEL 1
REMARK VINA RESULT:      -3.0      0.000      0.000
REMARK  Name = 25338279
REMARK  5 active torsions:
REMARK  status: ('A' for Active; 'I' for Inactive)
REMARK    1  A    between atoms: N_3  and  C_14
REMARK    2  A    between atoms: N_4  and  C_9
REMARK    3  A    between atoms: C_10  and  C_13
REMARK    4  A    between atoms: C_15  and  C_17
REMARK    5  A    between atoms: C_16  and  C_18
REMARK                            x       y       z     vdW  Elec       q    Type
REMARK                         _______ _______ _______ _____ _____    ______ ____
ROOT
ATOM      3  N   UNL     1      16.112  -9.496  29.912  0.00  0.00    -0.293 NA
ATOM      9  C   UNL     1      14.404  -8.278  30.927  0.00  0.00    +0.089 C 
ATOM     10  C   UNL     1      15.217  -9.146  28.793  0.00  0.00    +0.147 C 
ATOM     11  C   UNL     1      14.162  -8.212  29.419  0.00  0.00    +0.052 C 
ATOM     12  C   UNL     1      15.267  -9.517  31.110  0.00  0.00    +0.107 C 
ATOM     14  C   UNL     1      16.808 -10.762  29.715  0.00  0.00    +0.105 C 
ENDROOT
BRANCH  10  13
ATOM      1  O   UNL     1      16.817  -9.297  26.953  0.00  0.00    -0.336 OA
ATOM      5  N   UNL     1      15.835  -7.293  27.148  0.00  0.00    -0.189 NA
ATOM      6  N   UNL     1      17.349  -8.501  25.930  0.00  0.00    -0.054 NA
ATOM     13  C   UNL     1      15.935  -8.509  27.622  0.00  0.00    +0.245 A 
ATOM     16  C   UNL     1      16.722  -7.336  26.111  0.00  0.00    +0.222 A 
BRANCH  16  18
ATOM      7  N   UNL     1      17.137  -6.436  23.959  0.00  0.00    -0.249 NA
ATOM      8  N   UNL     1      17.209  -3.839  25.016  0.00  0.00    -0.260 NA
ATOM     18  C   UNL     1      16.955  -6.195  25.274  0.00  0.00    +0.129 A 
ATOM     23  C   UNL     1      16.991  -4.919  25.792  0.00  0.00    +0.142 A 
ATOM     25  C   UNL     1      17.355  -5.356  23.183  0.00  0.00    +0.131 A 
ATOM     26  C   UNL     1      17.392  -4.081  23.703  0.00  0.00    +0.130 A 
ENDBRANCH  16  18
ENDBRANCH  10  13
BRANCH   9   4
ATOM      2  O   UNL     1      13.781  -5.559  30.250  0.00  0.00    -0.270 OA
ATOM      4  N   UNL     1      15.073  -7.094  31.411  0.00  0.00    -0.307 N 
ATOM     15  C   UNL     1      14.697  -5.817  31.025  0.00  0.00    +0.244 C 
ATOM     27  H   UNL     1      15.910  -7.235  31.967  0.00  0.00    +0.149 HD
BRANCH  15  17
ATOM     17  C   UNL     1      15.504  -4.705  31.590  0.00  0.00    +0.037 A 
ATOM     19  C   UNL     1      16.649  -4.982  32.337  0.00  0.00    +0.013 A 
ATOM     20  C   UNL     1      15.115  -3.383  31.375  0.00  0.00    +0.013 A 
ATOM     21  C   UNL     1      17.405  -3.935  32.868  0.00  0.00    +0.001 A 
ATOM     22  C   UNL     1      15.871  -2.337  31.905  0.00  0.00    +0.001 A 
ATOM     24  C   UNL     1      17.016  -2.614  32.651  0.00  0.00    +0.000 A 
ENDBRANCH  15  17
ENDBRANCH   9   4
TORSDOF 4
ENDMDL
MODEL 2
REMARK VINA RESULT:      -2.7      2.658      3.229
REMARK  Name = 25338279
REMARK  5 active torsions:
REMARK  status: ('A' for Active; 'I' for Inactive)
REMARK    1  A    between atoms: N_3  and  C_14
REMARK    2  A    between atoms: N_4  and  C_9
REMARK    3  A    between atoms: C_10  and  C_13
REMARK    4  A    between atoms: C_15  and  C_17
REMARK    5  A    between atoms: C_16  and  C_18
REMARK                            x       y       z     vdW  Elec       q    Type
REMARK                         _______ _______ _______ _____ _____    ______ ____
ROOT
ATOM      3  N   UNL     1      15.398 -10.155  31.154  0.00  0.00    -0.293 NA
ATOM      9  C   UNL     1      13.070 -10.050  31.122  0.00  0.00    +0.089 C 
ATOM     10  C   UNL     1      15.046 -10.572  29.784  0.00  0.00    +0.147 C 
ATOM     11  C   UNL     1      13.521 -10.363  29.696  0.00  0.00    +0.052 C 
ATOM     12  C   UNL     1      14.239 -10.494  31.987  0.00  0.00    +0.107 C 
ATOM     14  C   UNL     1      16.621 -10.777  31.647  0.00  0.00    +0.105 C 
ENDROOT
BRANCH  10  13
ATOM      1  O   UNL     1      16.720 -10.524  28.005  0.00  0.00    -0.336 OA
ATOM      5  N   UNL     1      15.697  -8.561  28.353  0.00  0.00    -0.189 NA
ATOM      6  N   UNL     1      17.278  -9.626  27.086  0.00  0.00    -0.054 NA
ATOM     13  C   UNL     1      15.799  -9.816  28.711  0.00  0.00    +0.245 A 
ATOM     16  C   UNL     1      16.625  -8.491  27.354  0.00  0.00    +0.222 A 
BRANCH  16  18
ATOM      7  N   UNL     1      16.847  -7.342  25.294  0.00  0.00    -0.249 NA
ATOM      8  N   UNL     1      17.357  -4.938  26.646  0.00  0.00    -0.260 NA
ATOM     18  C   UNL     1      16.872  -7.271  26.641  0.00  0.00    +0.129 A 
ATOM     23  C   UNL     1      17.123  -6.090  27.304  0.00  0.00    +0.142 A 
ATOM     25  C   UNL     1      17.081  -6.189  24.636  0.00  0.00    +0.131 A 
ATOM     26  C   UNL     1      17.332  -5.009  25.301  0.00  0.00    +0.130 A 
ENDBRANCH  16  18
ENDBRANCH  10  13
BRANCH   9   4
ATOM      2  O   UNL     1      11.092  -8.895  32.853  0.00  0.00    -0.270 OA
ATOM      4  N   UNL     1      12.791  -8.644  31.296  0.00  0.00    -0.307 N 
ATOM     15  C   UNL     1      11.812  -8.181  32.160  0.00  0.00    +0.244 C 
ATOM     27  H   UNL     1      13.270  -8.002  30.673  0.00  0.00    +0.149 HD
BRANCH  15  17
ATOM     17  C   UNL     1      11.630  -6.707  32.204  0.00  0.00    +0.037 A 
ATOM     19  C   UNL     1      12.587  -5.867  31.634  0.00  0.00    +0.013 A 
ATOM     20  C   UNL     1      10.501  -6.162  32.816  0.00  0.00    +0.013 A 
ATOM     21  C   UNL     1      12.414  -4.483  31.676  0.00  0.00    +0.001 A 
ATOM     22  C   UNL     1      10.328  -4.779  32.858  0.00  0.00    +0.001 A 
ATOM     24  C   UNL     1      11.285  -3.940  32.287  0.00  0.00    +0.000 A 
ENDBRANCH  15  17
ENDBRANCH   9   4
TORSDOF 4
ENDMDL
MODEL 3
REMARK VINA RESULT:      -1.3     26.314     28.343
REMARK  Name = 25338279
REMARK  5 active torsions:
REMARK  status: ('A' for Active; 'I' for Inactive)
REMARK    1  A    between atoms: N_3  and  C_14
REMARK    2  A    between atoms: N_4  and  C_9
REMARK    3  A    between atoms: C_10  and  C_13
REMARK    4  A    between atoms: C_15  and  C_17
REMARK    5  A    between atoms: C_16  and  C_18
REMARK                            x       y       z     vdW  Elec       q    Type
REMARK                         _______ _______ _______ _____ _____    ______ ____
ROOT
ATOM      3  N   UNL     1      -5.821 -10.048  12.490  0.00  0.00    -0.293 NA
ATOM      9  C   UNL     1      -7.375 -10.426  10.794  0.00  0.00    +0.089 C 
ATOM     10  C   UNL     1      -5.023 -10.664  11.413  0.00  0.00    +0.147 C 
ATOM     11  C   UNL     1      -6.001 -10.781  10.226  0.00  0.00    +0.052 C 
ATOM     12  C   UNL     1      -7.192 -10.532  12.301  0.00  0.00    +0.107 C 
ATOM     14  C   UNL     1      -5.316 -10.353  13.823  0.00  0.00    +0.105 C 
ENDROOT
BRANCH  10  13
ATOM      1  O   UNL     1      -3.790  -9.222   9.873  0.00  0.00    -0.336 OA
ATOM      5  N   UNL     1      -2.667  -9.737  11.742  0.00  0.00    -0.189 NA
ATOM      6  N   UNL     1      -2.549  -8.580   9.771  0.00  0.00    -0.054 NA
ATOM     13  C   UNL     1      -3.776  -9.880  11.062  0.00  0.00    +0.245 A 
ATOM     16  C   UNL     1      -1.944  -8.932  10.909  0.00  0.00    +0.222 A 
BRANCH  16  18
ATOM      7  N   UNL     1       0.380  -8.926  10.451  0.00  0.00    -0.249 NA
ATOM      8  N   UNL     1       0.850  -7.262  12.659  0.00  0.00    -0.260 NA
ATOM     18  C   UNL     1      -0.620  -8.496  11.246  0.00  0.00    +0.129 A 
ATOM     23  C   UNL     1      -0.389  -7.679  12.331  0.00  0.00    +0.142 A 
ATOM     25  C   UNL     1       1.619  -8.509  10.779  0.00  0.00    +0.131 A 
ATOM     26  C   UNL     1       1.849  -7.692  11.865  0.00  0.00    +0.130 A 
ENDBRANCH  16  18
ENDBRANCH  10  13
BRANCH   9   4
ATOM      2  O   UNL     1      -8.984  -9.722   8.524  0.00  0.00    -0.270 OA
ATOM      4  N   UNL     1      -7.783  -9.097  10.406  0.00  0.00    -0.307 N 
ATOM     15  C   UNL     1      -8.565  -8.856   9.288  0.00  0.00    +0.244 C 
ATOM     27  H   UNL     1      -7.382  -8.324  10.927  0.00  0.00    +0.149 HD
BRANCH  15  17
ATOM     17  C   UNL     1      -8.877  -7.431   9.009  0.00  0.00    +0.037 A 
ATOM     19  C   UNL     1      -7.888  -6.584   8.507  0.00  0.00    +0.013 A 
ATOM     20  C   UNL     1     -10.160  -6.938   9.249  0.00  0.00    +0.013 A 
ATOM     21  C   UNL     1      -8.183  -5.245   8.246  0.00  0.00    +0.001 A 
ATOM     22  C   UNL     1     -10.455  -5.600   8.988  0.00  0.00    +0.001 A 
ATOM     24  C   UNL     1      -9.466  -4.754   8.486  0.00  0.00    +0.000 A 
ENDBRANCH  15  17
ENDBRANCH   9   4
TORSDOF 4
ENDMDL
