MODEL 1
REMARK VINA RESULT:      17.5      0.000      0.000
REMARK  Name = 11882863
REMARK  11 active torsions:
REMARK  status: ('A' for Active; 'I' for Inactive)
REMARK    1  A    between atoms: O_3  and  C_15
REMARK    2  A    between atoms: O_4  and  C_20
REMARK    3  A    between atoms: N_8  and  C_26
REMARK    4  A    between atoms: N_8  and  C_27
REMARK    5  A    between atoms: C_10  and  C_18
REMARK    6  A    between atoms: C_12  and  C_20
REMARK    7  A    between atoms: C_12  and  C_21
REMARK    8  A    between atoms: C_13  and  C_23
REMARK    9  A    between atoms: C_23  and  C_24
REMARK   10  A    between atoms: C_26  and  C_29
REMARK   11  A    between atoms: C_28  and  C_30
REMARK                            x       y       z     vdW  Elec       q    Type
REMARK                         _______ _______ _______ _____ _____    ______ ____
ROOT
ATOM      1  S   UNL     1       0.185   2.261  25.876  0.00  0.00    -0.057 S 
ATOM      6  O   UNL     1       1.659   0.099  22.026  0.00  0.00    -0.270 OA
ATOM      7  N   UNL     1      -0.519   1.412  23.537  0.00  0.00    -0.229 NA
ATOM      9  N   UNL     1       1.772   1.036  24.185  0.00  0.00    -0.261 N 
ATOM     10  C   UNL     1      -4.141   2.404  24.409  0.00  0.00    -0.019 C 
ATOM     11  C   UNL     1      -3.670   3.604  25.344  0.00  0.00    +0.011 C 
ATOM     12  C   UNL     1      -4.794   4.375  26.139  0.00  0.00    +0.021 C 
ATOM     13  C   UNL     1      -2.949   2.071  23.398  0.00  0.00    +0.054 C 
ATOM     14  C   UNL     1      -5.376   2.848  23.582  0.00  0.00    +0.010 C 
ATOM     15  C   UNL     1      -5.971   4.702  25.174  0.00  0.00    +0.123 C 
ATOM     16  C   UNL     1      -2.450   3.198  26.221  0.00  0.00    +0.049 C 
ATOM     17  C   UNL     1      -6.480   3.483  24.414  0.00  0.00    +0.032 C 
ATOM     18  C   UNL     1      -4.511   1.130  25.207  0.00  0.00    +0.012 C 
ATOM     19  C   UNL     1      -1.631   1.988  24.122  0.00  0.00    +0.058 A 
ATOM     21  C   UNL     1      -4.219   5.731  26.642  0.00  0.00    +0.016 C 
ATOM     22  C   UNL     1      -1.424   2.516  25.381  0.00  0.00    +0.015 A 
ATOM     25  C   UNL     1       0.493   1.492  24.372  0.00  0.00    +0.165 A 
ATOM     28  C   UNL     1       2.272   0.381  23.050  0.00  0.00    +0.250 C 
ATOM     43  H   UNL     1       2.395   1.250  24.958  0.00  0.00    +0.157 HD
ENDROOT
BRANCH  28  30
ATOM      2  F   UNL     1       7.718  -0.974  23.266  0.00  0.00    -0.205 F 
ATOM     30  C   UNL     1       3.714   0.021  23.106  0.00  0.00    +0.037 A 
ATOM     33  C   UNL     1       4.676   0.923  22.648  0.00  0.00    +0.016 A 
ATOM     34  C   UNL     1       4.106  -1.215  23.618  0.00  0.00    +0.016 A 
ATOM     38  C   UNL     1       6.029   0.586  22.703  0.00  0.00    +0.039 A 
ATOM     39  C   UNL     1       5.459  -1.552  23.672  0.00  0.00    +0.039 A 
ATOM     40  C   UNL     1       6.420  -0.651  23.214  0.00  0.00    +0.123 A 
ENDBRANCH  28  30
BRANCH  15   3
ATOM      3  O   UNL     1      -7.058   5.286  25.890  0.00  0.00    -0.391 OA
ATOM     41  H   UNL     1      -7.879   4.878  25.563  0.00  0.00    +0.210 HD
ENDBRANCH  15   3
BRANCH  12  20
ATOM     20  C   UNL     1      -5.303   3.645  27.401  0.00  0.00    +0.165 C 
BRANCH  20   4
ATOM      4  O   UNL     1      -6.247   2.681  26.991  0.00  0.00    -0.394 OA
ATOM     42  H   UNL     1      -6.218   2.644  26.019  0.00  0.00    +0.209 HD
ENDBRANCH  20   4
ENDBRANCH  12  20
BRANCH  13  23
ATOM     23  C   UNL     1      -3.187   0.836  22.519  0.00  0.00    +0.106 C 
BRANCH  23  24
ATOM      5  O   UNL     1      -1.416  -0.664  23.120  0.00  0.00    -0.276 OA
ATOM      8  N   UNL     1      -3.566  -1.282  23.732  0.00  0.00    -0.300 N 
ATOM     24  C   UNL     1      -2.627  -0.428  23.144  0.00  0.00    +0.216 C 
ATOM     27  C   UNL     1      -4.994  -0.982  23.746  0.00  0.00    +0.132 C 
BRANCH   8  26
ATOM     26  C   UNL     1      -3.189  -2.537  24.376  0.00  0.00    +0.142 C 
BRANCH  26  29
ATOM     29  C   UNL     1      -1.900  -2.413  25.136  0.00  0.00    -0.030 A 
ATOM     31  C   UNL     1      -1.773  -1.458  26.145  0.00  0.00    +0.005 A 
ATOM     32  C   UNL     1      -0.829  -3.253  24.833  0.00  0.00    +0.005 A 
ATOM     35  C   UNL     1      -0.576  -1.342  26.850  0.00  0.00    +0.000 A 
ATOM     36  C   UNL     1       0.369  -3.138  25.539  0.00  0.00    +0.000 A 
ATOM     37  C   UNL     1       0.495  -2.183  26.547  0.00  0.00    +0.000 A 
ENDBRANCH  26  29
ENDBRANCH   8  26
ENDBRANCH  23  24
ENDBRANCH  13  23
TORSDOF 8
ENDMDL
MODEL 2
REMARK VINA RESULT:      17.6      2.447      5.311
REMARK  Name = 11882863
REMARK  11 active torsions:
REMARK  status: ('A' for Active; 'I' for Inactive)
REMARK    1  A    between atoms: O_3  and  C_15
REMARK    2  A    between atoms: O_4  and  C_20
REMARK    3  A    between atoms: N_8  and  C_26
REMARK    4  A    between atoms: N_8  and  C_27
REMARK    5  A    between atoms: C_10  and  C_18
REMARK    6  A    between atoms: C_12  and  C_20
REMARK    7  A    between atoms: C_12  and  C_21
REMARK    8  A    between atoms: C_13  and  C_23
REMARK    9  A    between atoms: C_23  and  C_24
REMARK   10  A    between atoms: C_26  and  C_29
REMARK   11  A    between atoms: C_28  and  C_30
REMARK                            x       y       z     vdW  Elec       q    Type
REMARK                         _______ _______ _______ _____ _____    ______ ____
ROOT
ATOM      1  S   UNL     1       2.033  -1.794  23.370  0.00  0.00    -0.057 S 
ATOM      6  O   UNL     1       4.973   1.803  23.661  0.00  0.00    -0.270 OA
ATOM      7  N   UNL     1       2.211   0.753  23.781  0.00  0.00    -0.229 NA
ATOM      9  N   UNL     1       4.271  -0.425  23.359  0.00  0.00    -0.261 N 
ATOM     10  C   UNL     1      -1.642   0.887  23.808  0.00  0.00    -0.019 C 
ATOM     11  C   UNL     1      -1.767  -0.588  24.396  0.00  0.00    +0.011 C 
ATOM     12  C   UNL     1      -3.221  -1.184  24.531  0.00  0.00    +0.021 C 
ATOM     13  C   UNL     1      -0.186   1.438  24.166  0.00  0.00    +0.054 C 
ATOM     14  C   UNL     1      -2.693   1.803  24.487  0.00  0.00    +0.010 C 
ATOM     15  C   UNL     1      -4.152  -0.123  25.186  0.00  0.00    +0.123 C 
ATOM     16  C   UNL     1      -0.752  -1.557  23.723  0.00  0.00    +0.049 C 
ATOM     17  C   UNL     1      -4.103   1.231  24.487  0.00  0.00    +0.032 C 
ATOM     18  C   UNL     1      -1.852   0.942  22.276  0.00  0.00    +0.012 C 
ATOM     19  C   UNL     1       0.873   0.412  23.856  0.00  0.00    +0.058 A 
ATOM     21  C   UNL     1      -3.180  -2.413  25.483  0.00  0.00    +0.016 C 
ATOM     22  C   UNL     1       0.600  -0.929  23.679  0.00  0.00    +0.015 A 
ATOM     25  C   UNL     1       2.913  -0.327  23.521  0.00  0.00    +0.165 A 
ATOM     28  C   UNL     1       5.204   0.620  23.436  0.00  0.00    +0.250 C 
ATOM     43  H   UNL     1       4.592  -1.376  23.206  0.00  0.00    +0.157 HD
ENDROOT
BRANCH  28  30
ATOM      2  F   UNL     1      10.566  -0.888  22.727  0.00  0.00    -0.205 F 
ATOM     30  C   UNL     1       6.624   0.221  23.247  0.00  0.00    +0.037 A 
ATOM     33  C   UNL     1       7.645   0.995  23.800  0.00  0.00    +0.016 A 
ATOM     34  C   UNL     1       6.935  -0.927  22.520  0.00  0.00    +0.016 A 
ATOM     38  C   UNL     1       8.977   0.619  23.624  0.00  0.00    +0.039 A 
ATOM     39  C   UNL     1       8.267  -1.302  22.344  0.00  0.00    +0.039 A 
ATOM     40  C   UNL     1       9.288  -0.529  22.895  0.00  0.00    +0.123 A 
ENDBRANCH  28  30
BRANCH  15   3
ATOM      3  O   UNL     1      -5.503  -0.583  25.205  0.00  0.00    -0.391 OA
ATOM     41  H   UNL     1      -5.990  -0.039  25.846  0.00  0.00    +0.210 HD
ENDBRANCH  15   3
BRANCH  12  20
ATOM     20  C   UNL     1      -3.825  -1.705  23.208  0.00  0.00    +0.165 C 
BRANCH  20   4
ATOM      4  O   UNL     1      -4.713  -2.754  23.522  0.00  0.00    -0.394 OA
ATOM     42  H   UNL     1      -4.212  -3.585  23.458  0.00  0.00    +0.209 HD
ENDBRANCH  20   4
ENDBRANCH  12  20
BRANCH  13  23
ATOM     23  C   UNL     1       0.151   2.799  23.543  0.00  0.00    +0.106 C 
BRANCH  23  24
ATOM      5  O   UNL     1      -1.347   4.636  23.187  0.00  0.00    -0.276 OA
ATOM      8  N   UNL     1      -0.996   3.980  25.384  0.00  0.00    -0.300 N 
ATOM     24  C   UNL     1      -0.798   3.890  24.002  0.00  0.00    +0.216 C 
ATOM     27  C   UNL     1      -0.335   3.087  26.328  0.00  0.00    +0.132 C 
BRANCH   8  26
ATOM     26  C   UNL     1      -1.880   4.975  25.985  0.00  0.00    +0.142 C 
BRANCH  26  29
ATOM     29  C   UNL     1      -3.325   4.576  25.887  0.00  0.00    -0.030 A 
ATOM     31  C   UNL     1      -3.897   3.780  26.879  0.00  0.00    +0.005 A 
ATOM     32  C   UNL     1      -4.093   5.001  24.804  0.00  0.00    +0.005 A 
ATOM     35  C   UNL     1      -5.238   3.408  26.788  0.00  0.00    +0.000 A 
ATOM     36  C   UNL     1      -5.435   4.630  24.713  0.00  0.00    +0.000 A 
ATOM     37  C   UNL     1      -6.007   3.834  25.704  0.00  0.00    +0.000 A 
ENDBRANCH  26  29
ENDBRANCH   8  26
ENDBRANCH  23  24
ENDBRANCH  13  23
TORSDOF 8
ENDMDL
MODEL 3
REMARK VINA RESULT:      21.5      2.866      4.895
REMARK  Name = 11882863
REMARK  11 active torsions:
REMARK  status: ('A' for Active; 'I' for Inactive)
REMARK    1  A    between atoms: O_3  and  C_15
REMARK    2  A    between atoms: O_4  and  C_20
REMARK    3  A    between atoms: N_8  and  C_26
REMARK    4  A    between atoms: N_8  and  C_27
REMARK    5  A    between atoms: C_10  and  C_18
REMARK    6  A    between atoms: C_12  and  C_20
REMARK    7  A    between atoms: C_12  and  C_21
REMARK    8  A    between atoms: C_13  and  C_23
REMARK    9  A    between atoms: C_23  and  C_24
REMARK   10  A    between atoms: C_26  and  C_29
REMARK   11  A    between atoms: C_28  and  C_30
REMARK                            x       y       z     vdW  Elec       q    Type
REMARK                         _______ _______ _______ _____ _____    ______ ____
ROOT
ATOM      1  S   UNL     1       1.366  -1.652  23.225  0.00  0.00    -0.057 S 
ATOM      6  O   UNL     1       4.449   1.802  23.713  0.00  0.00    -0.270 OA
ATOM      7  N   UNL     1       1.648   0.855  23.796  0.00  0.00    -0.229 NA
ATOM      9  N   UNL     1       3.656  -0.373  23.276  0.00  0.00    -0.261 N 
ATOM     10  C   UNL     1      -2.196   1.136  23.876  0.00  0.00    -0.019 C 
ATOM     11  C   UNL     1      -2.374  -0.368  24.369  0.00  0.00    +0.011 C 
ATOM     12  C   UNL     1      -3.850  -0.915  24.481  0.00  0.00    +0.021 C 
ATOM     13  C   UNL     1      -0.716   1.605  24.252  0.00  0.00    +0.054 C 
ATOM     14  C   UNL     1      -3.205   2.046  24.624  0.00  0.00    +0.010 C 
ATOM     15  C   UNL     1      -4.732   0.137  25.214  0.00  0.00    +0.123 C 
ATOM     16  C   UNL     1      -1.404  -1.330  23.624  0.00  0.00    +0.049 C 
ATOM     17  C   UNL     1      -4.636   1.530  24.603  0.00  0.00    +0.032 C 
ATOM     18  C   UNL     1      -2.417   1.298  22.352  0.00  0.00    +0.012 C 
ATOM     19  C   UNL     1       0.299   0.562  23.864  0.00  0.00    +0.058 A 
ATOM     21  C   UNL     1      -3.848  -2.204  25.353  0.00  0.00    +0.016 C 
ATOM     22  C   UNL     1      -0.029  -0.754  23.605  0.00  0.00    +0.015 A 
ATOM     25  C   UNL     1       2.305  -0.233  23.460  0.00  0.00    +0.165 A 
ATOM     28  C   UNL     1       4.630   0.628  23.410  0.00  0.00    +0.250 C 
ATOM     43  H   UNL     1       3.938  -1.324  23.059  0.00  0.00    +0.157 HD
ENDROOT
BRANCH  28  30
ATOM      2  F   UNL     1       9.922  -1.035  22.536  0.00  0.00    -0.205 F 
ATOM     30  C   UNL     1       6.031   0.187  23.179  0.00  0.00    +0.037 A 
ATOM     33  C   UNL     1       6.290  -0.923  22.374  0.00  0.00    +0.016 A 
ATOM     34  C   UNL     1       7.087   0.884  23.766  0.00  0.00    +0.016 A 
ATOM     38  C   UNL     1       7.605  -1.335  22.157  0.00  0.00    +0.039 A 
ATOM     39  C   UNL     1       8.402   0.471  23.549  0.00  0.00    +0.039 A 
ATOM     40  C   UNL     1       8.661  -0.639  22.745  0.00  0.00    +0.123 A 
ENDBRANCH  28  30
BRANCH  15   3
ATOM      3  O   UNL     1      -6.099  -0.270  25.218  0.00  0.00    -0.391 OA
ATOM     41  H   UNL     1      -6.453  -0.125  24.324  0.00  0.00    +0.210 HD
ENDBRANCH  15   3
BRANCH  12  20
ATOM     20  C   UNL     1      -4.485  -1.325  23.135  0.00  0.00    +0.165 C 
BRANCH  20   4
ATOM      4  O   UNL     1      -4.650  -2.725  23.144  0.00  0.00    -0.394 OA
ATOM     42  H   UNL     1      -3.984  -3.091  23.751  0.00  0.00    +0.209 HD
ENDBRANCH  20   4
ENDBRANCH  12  20
BRANCH  13  23
ATOM     23  C   UNL     1      -0.332   2.990  23.714  0.00  0.00    +0.106 C 
BRANCH  23  24
ATOM      5  O   UNL     1       0.165   5.160  24.604  0.00  0.00    -0.276 OA
ATOM      8  N   UNL     1       0.248   3.376  26.083  0.00  0.00    -0.300 N 
ATOM     24  C   UNL     1       0.048   3.952  24.824  0.00  0.00    +0.216 C 
ATOM     27  C   UNL     1       0.104   1.944  26.319  0.00  0.00    +0.132 C 
BRANCH   8  26
ATOM     26  C   UNL     1       0.616   4.164  27.256  0.00  0.00    +0.142 C 
BRANCH  26  29
ATOM     29  C   UNL     1       1.283   3.327  28.309  0.00  0.00    -0.030 A 
ATOM     31  C   UNL     1       0.537   2.817  29.371  0.00  0.00    +0.005 A 
ATOM     32  C   UNL     1       2.650   3.061  28.225  0.00  0.00    +0.005 A 
ATOM     35  C   UNL     1       1.156   2.040  30.350  0.00  0.00    +0.000 A 
ATOM     36  C   UNL     1       3.269   2.284  29.204  0.00  0.00    +0.000 A 
ATOM     37  C   UNL     1       2.523   1.773  30.266  0.00  0.00    +0.000 A 
ENDBRANCH  26  29
ENDBRANCH   8  26
ENDBRANCH  23  24
ENDBRANCH  13  23
TORSDOF 8
ENDMDL
