MODEL 1
REMARK VINA RESULT:      -0.7      0.000      0.000
REMARK  Name = 45360674
REMARK  11 active torsions:
REMARK  status: ('A' for Active; 'I' for Inactive)
REMARK    1  A    between atoms: N_5  and  C_9
REMARK    2  A    between atoms: N_5  and  C_17
REMARK    3  A    between atoms: N_6  and  C_22
REMARK    4  A    between atoms: N_7  and  C_25
REMARK    5  A    between atoms: N_7  and  C_29
REMARK    6  A    between atoms: N_7  and  C_30
REMARK    7  A    between atoms: C_11  and  C_15
REMARK    8  A    between atoms: C_15  and  C_16
REMARK    9  A    between atoms: C_16  and  C_18
REMARK   10  A    between atoms: C_17  and  C_19
REMARK   11  A    between atoms: C_22  and  C_26
REMARK                            x       y       z     vdW  Elec       q    Type
REMARK                         _______ _______ _______ _____ _____    ______ ____
ROOT
ATOM      1  O   UNL     1       0.942   2.488  27.079  0.00  0.00    -0.274 OA
ATOM      3  N   UNL     1      -1.906   2.015  24.843  0.00  0.00    -0.286 NA
ATOM      4  N   UNL     1       0.056   3.900  25.532  0.00  0.00    -0.313 N 
ATOM      8  C   UNL     1      -1.089   1.747  26.035  0.00  0.00    +0.145 C 
ATOM      9  C   UNL     1      -1.102  -0.101  24.461  0.00  0.00    +0.070 C 
ATOM     10  C   UNL     1      -0.560   0.320  25.827  0.00  0.00    +0.048 C 
ATOM     11  C   UNL     1      -2.162   3.429  24.597  0.00  0.00    +0.075 C 
ATOM     12  C   UNL     1      -1.344   1.224  23.750  0.00  0.00    +0.104 C 
ATOM     13  C   UNL     1      -0.859   4.199  24.455  0.00  0.00    +0.123 C 
ATOM     14  C   UNL     1       0.063   2.724  26.244  0.00  0.00    +0.230 C 
ATOM     34  H   UNL     1       0.818   4.552  25.696  0.00  0.00    +0.149 HD
ENDROOT
BRANCH   9   5
ATOM      5  N   UNL     1      -0.206  -0.990  23.740  0.00  0.00    -0.308 NA
ATOM     35  H   UNL     1       0.502  -1.343  24.385  0.00  0.00    +0.123 HD
BRANCH   5  17
ATOM     17  C   UNL     1       0.455  -0.291  22.645  0.00  0.00    +0.116 C 
BRANCH  17  19
ATOM     19  C   UNL     1       1.937  -0.181  22.860  0.00  0.00    -0.033 A 
ATOM     20  C   UNL     1       2.602   1.005  22.548  0.00  0.00    +0.007 A 
ATOM     21  C   UNL     1       2.650  -1.265  23.373  0.00  0.00    +0.007 A 
ATOM     23  C   UNL     1       3.978   1.107  22.747  0.00  0.00    +0.023 A 
ATOM     24  C   UNL     1       4.026  -1.163  23.572  0.00  0.00    +0.023 A 
ATOM     25  C   UNL     1       4.690   0.022  23.260  0.00  0.00    +0.029 A 
BRANCH  25   7
ATOM      7  N   UNL     1       6.083   0.125  23.462  0.00  0.00    -0.336 N 
ATOM     29  C   UNL     1       6.627   1.181  24.292  0.00  0.00    +0.129 C 
ATOM     30  C   UNL     1       6.986  -0.828  22.849  0.00  0.00    +0.129 C 
ENDBRANCH  25   7
ENDBRANCH  17  19
ENDBRANCH   5  17
ENDBRANCH   9   5
BRANCH  11  15
ATOM     15  C   UNL     1      -3.073   3.665  23.391  0.00  0.00    +0.029 C 
BRANCH  15  16
ATOM     16  C   UNL     1      -4.492   3.999  23.830  0.00  0.00    +0.097 C 
BRANCH  16  18
ATOM      2  O   UNL     1      -5.463   3.510  25.993  0.00  0.00    -0.276 OA
ATOM      6  N   UNL     1      -4.788   1.753  24.634  0.00  0.00    -0.311 N 
ATOM     18  C   UNL     1      -4.973   3.092  24.948  0.00  0.00    +0.213 C 
ATOM     36  H   UNL     1      -4.349   1.492  23.757  0.00  0.00    +0.149 HD
BRANCH   6  22
ATOM     22  C   UNL     1      -5.165   0.691  25.536  0.00  0.00    +0.139 C 
BRANCH  22  26
ATOM     26  C   UNL     1      -4.500  -0.609  25.184  0.00  0.00    -0.030 A 
ATOM     27  C   UNL     1      -3.764  -1.299  26.147  0.00  0.00    +0.005 A 
ATOM     28  C   UNL     1      -4.618  -1.125  23.893  0.00  0.00    +0.005 A 
ATOM     31  C   UNL     1      -3.146  -2.506  25.821  0.00  0.00    +0.000 A 
ATOM     32  C   UNL     1      -4.000  -2.333  23.567  0.00  0.00    +0.000 A 
ATOM     33  C   UNL     1      -3.265  -3.023  24.530  0.00  0.00    +0.000 A 
ENDBRANCH  22  26
ENDBRANCH   6  22
ENDBRANCH  16  18
ENDBRANCH  15  16
ENDBRANCH  11  15
TORSDOF 9
ENDMDL
MODEL 2
REMARK VINA RESULT:      -0.6      0.042      1.340
REMARK  Name = 45360674
REMARK  11 active torsions:
REMARK  status: ('A' for Active; 'I' for Inactive)
REMARK    1  A    between atoms: N_5  and  C_9
REMARK    2  A    between atoms: N_5  and  C_17
REMARK    3  A    between atoms: N_6  and  C_22
REMARK    4  A    between atoms: N_7  and  C_25
REMARK    5  A    between atoms: N_7  and  C_29
REMARK    6  A    between atoms: N_7  and  C_30
REMARK    7  A    between atoms: C_11  and  C_15
REMARK    8  A    between atoms: C_15  and  C_16
REMARK    9  A    between atoms: C_16  and  C_18
REMARK   10  A    between atoms: C_17  and  C_19
REMARK   11  A    between atoms: C_22  and  C_26
REMARK                            x       y       z     vdW  Elec       q    Type
REMARK                         _______ _______ _______ _____ _____    ______ ____
ROOT
ATOM      1  O   UNL     1       0.974   2.504  27.043  0.00  0.00    -0.274 OA
ATOM      3  N   UNL     1      -1.894   2.026  24.835  0.00  0.00    -0.286 NA
ATOM      4  N   UNL     1       0.072   3.914  25.503  0.00  0.00    -0.313 N 
ATOM      8  C   UNL     1      -1.066   1.761  26.019  0.00  0.00    +0.145 C 
ATOM      9  C   UNL     1      -1.091  -0.089  24.447  0.00  0.00    +0.070 C 
ATOM     10  C   UNL     1      -0.537   0.334  25.808  0.00  0.00    +0.048 C 
ATOM     11  C   UNL     1      -2.154   3.440  24.589  0.00  0.00    +0.075 C 
ATOM     12  C   UNL     1      -1.341   1.235  23.738  0.00  0.00    +0.104 C 
ATOM     13  C   UNL     1      -0.853   4.211  24.434  0.00  0.00    +0.123 C 
ATOM     14  C   UNL     1       0.088   2.739  26.216  0.00  0.00    +0.230 C 
ATOM     34  H   UNL     1       0.835   4.567  25.659  0.00  0.00    +0.149 HD
ENDROOT
BRANCH   9   5
ATOM      5  N   UNL     1      -0.201  -0.978  23.719  0.00  0.00    -0.308 NA
ATOM     35  H   UNL     1       0.507  -1.337  24.359  0.00  0.00    +0.123 HD
BRANCH   5  17
ATOM     17  C   UNL     1       0.460  -0.276  22.626  0.00  0.00    +0.116 C 
BRANCH  17  19
ATOM     19  C   UNL     1       1.940  -0.158  22.846  0.00  0.00    -0.033 A 
ATOM     20  C   UNL     1       2.661  -1.244  23.344  0.00  0.00    +0.007 A 
ATOM     21  C   UNL     1       2.596   1.038  22.554  0.00  0.00    +0.007 A 
ATOM     23  C   UNL     1       4.035  -1.134  23.550  0.00  0.00    +0.023 A 
ATOM     24  C   UNL     1       3.971   1.148  22.760  0.00  0.00    +0.023 A 
ATOM     25  C   UNL     1       4.690   0.063  23.257  0.00  0.00    +0.029 A 
BRANCH  25   7
ATOM      7  N   UNL     1       6.081   0.173  23.465  0.00  0.00    -0.336 N 
ATOM     29  C   UNL     1       6.991  -0.780  22.863  0.00  0.00    +0.129 C 
ATOM     30  C   UNL     1       6.619   1.248  24.275  0.00  0.00    +0.129 C 
ENDBRANCH  25   7
ENDBRANCH  17  19
ENDBRANCH   5  17
ENDBRANCH   9   5
BRANCH  11  15
ATOM     15  C   UNL     1      -3.076   3.674  23.391  0.00  0.00    +0.029 C 
BRANCH  15  16
ATOM     16  C   UNL     1      -4.480   4.049  23.844  0.00  0.00    +0.097 C 
BRANCH  16  18
ATOM      2  O   UNL     1      -5.525   3.550  25.971  0.00  0.00    -0.276 OA
ATOM      6  N   UNL     1      -4.770   1.800  24.645  0.00  0.00    -0.311 N 
ATOM     18  C   UNL     1      -4.989   3.137  24.946  0.00  0.00    +0.213 C 
ATOM     36  H   UNL     1      -4.294   1.544  23.786  0.00  0.00    +0.149 HD
BRANCH   6  22
ATOM     22  C   UNL     1      -5.163   0.735  25.536  0.00  0.00    +0.139 C 
BRANCH  22  26
ATOM     26  C   UNL     1      -4.496  -0.564  25.188  0.00  0.00    -0.030 A 
ATOM     27  C   UNL     1      -4.600  -1.077  23.895  0.00  0.00    +0.005 A 
ATOM     28  C   UNL     1      -3.773  -1.259  26.158  0.00  0.00    +0.005 A 
ATOM     31  C   UNL     1      -3.981  -2.283  23.571  0.00  0.00    +0.000 A 
ATOM     32  C   UNL     1      -3.152  -2.465  25.833  0.00  0.00    +0.000 A 
ATOM     33  C   UNL     1      -3.256  -2.978  24.540  0.00  0.00    +0.000 A 
ENDBRANCH  22  26
ENDBRANCH   6  22
ENDBRANCH  16  18
ENDBRANCH  15  16
ENDBRANCH  11  15
TORSDOF 9
ENDMDL
MODEL 3
REMARK VINA RESULT:       0.9      1.869      7.056
REMARK  Name = 45360674
REMARK  11 active torsions:
REMARK  status: ('A' for Active; 'I' for Inactive)
REMARK    1  A    between atoms: N_5  and  C_9
REMARK    2  A    between atoms: N_5  and  C_17
REMARK    3  A    between atoms: N_6  and  C_22
REMARK    4  A    between atoms: N_7  and  C_25
REMARK    5  A    between atoms: N_7  and  C_29
REMARK    6  A    between atoms: N_7  and  C_30
REMARK    7  A    between atoms: C_11  and  C_15
REMARK    8  A    between atoms: C_15  and  C_16
REMARK    9  A    between atoms: C_16  and  C_18
REMARK   10  A    between atoms: C_17  and  C_19
REMARK   11  A    between atoms: C_22  and  C_26
REMARK                            x       y       z     vdW  Elec       q    Type
REMARK                         _______ _______ _______ _____ _____    ______ ____
ROOT
ATOM      1  O   UNL     1      -1.713   6.123  25.082  0.00  0.00    -0.274 OA
ATOM      3  N   UNL     1      -1.923   2.582  24.220  0.00  0.00    -0.286 NA
ATOM      4  N   UNL     1      -0.386   4.390  25.718  0.00  0.00    -0.313 N 
ATOM      8  C   UNL     1      -2.176   4.017  24.029  0.00  0.00    +0.145 C 
ATOM      9  C   UNL     1      -4.189   2.760  24.544  0.00  0.00    +0.070 C 
ATOM     10  C   UNL     1      -3.695   4.167  24.207  0.00  0.00    +0.048 C 
ATOM     11  C   UNL     1      -0.536   2.252  24.524  0.00  0.00    +0.075 C 
ATOM     12  C   UNL     1      -2.956   2.080  25.124  0.00  0.00    +0.104 C 
ATOM     13  C   UNL     1      -0.067   2.982  25.773  0.00  0.00    +0.123 C 
ATOM     14  C   UNL     1      -1.427   4.925  24.999  0.00  0.00    +0.230 C 
ATOM     34  H   UNL     1       0.118   5.010  26.345  0.00  0.00    +0.149 HD
ENDROOT
BRANCH   9   5
ATOM      5  N   UNL     1      -5.330   2.756  25.444  0.00  0.00    -0.308 NA
ATOM     35  H   UNL     1      -5.015   3.006  26.382  0.00  0.00    +0.123 HD
BRANCH   5  17
ATOM     17  C   UNL     1      -5.956   1.441  25.489  0.00  0.00    +0.116 C 
BRANCH  17  19
ATOM     19  C   UNL     1      -4.972   0.339  25.219  0.00  0.00    -0.033 A 
ATOM     20  C   UNL     1      -4.170  -0.148  26.251  0.00  0.00    +0.007 A 
ATOM     21  C   UNL     1      -4.860  -0.197  23.936  0.00  0.00    +0.007 A 
ATOM     23  C   UNL     1      -3.255  -1.171  26.001  0.00  0.00    +0.023 A 
ATOM     24  C   UNL     1      -3.945  -1.220  23.686  0.00  0.00    +0.023 A 
ATOM     25  C   UNL     1      -3.144  -1.706  24.717  0.00  0.00    +0.029 A 
BRANCH  25   7
ATOM      7  N   UNL     1      -2.219  -2.741  24.464  0.00  0.00    -0.336 N 
ATOM     29  C   UNL     1      -0.944  -2.771  25.152  0.00  0.00    +0.129 C 
ATOM     30  C   UNL     1      -2.537  -3.793  23.519  0.00  0.00    +0.129 C 
ENDBRANCH  25   7
ENDBRANCH  17  19
ENDBRANCH   5  17
ENDBRANCH   9   5
BRANCH  11  15
ATOM     15  C   UNL     1      -0.297   0.747  24.646  0.00  0.00    +0.029 C 
BRANCH  15  16
ATOM     16  C   UNL     1      -0.409   0.061  23.291  0.00  0.00    +0.097 C 
BRANCH  16  18
ATOM      2  O   UNL     1       1.096  -0.536  21.491  0.00  0.00    -0.276 OA
ATOM      6  N   UNL     1       1.810   0.968  23.108  0.00  0.00    -0.311 N 
ATOM     18  C   UNL     1       0.895   0.111  22.515  0.00  0.00    +0.213 C 
ATOM     36  H   UNL     1       1.573   1.446  23.972  0.00  0.00    +0.149 HD
BRANCH   6  22
ATOM     22  C   UNL     1       3.127   1.188  22.561  0.00  0.00    +0.139 C 
BRANCH  22  26
ATOM     26  C   UNL     1       4.154   0.291  23.190  0.00  0.00    -0.030 A 
ATOM     27  C   UNL     1       3.860  -1.053  23.418  0.00  0.00    +0.005 A 
ATOM     28  C   UNL     1       5.402   0.802  23.546  0.00  0.00    +0.005 A 
ATOM     31  C   UNL     1       4.813  -1.887  24.002  0.00  0.00    +0.000 A 
ATOM     32  C   UNL     1       6.356  -0.032  24.130  0.00  0.00    +0.000 A 
ATOM     33  C   UNL     1       6.062  -1.376  24.358  0.00  0.00    +0.000 A 
ENDBRANCH  22  26
ENDBRANCH   6  22
ENDBRANCH  16  18
ENDBRANCH  15  16
ENDBRANCH  11  15
TORSDOF 9
ENDMDL
MODEL 4
REMARK VINA RESULT:       1.5      2.135      7.318
REMARK  Name = 45360674
REMARK  11 active torsions:
REMARK  status: ('A' for Active; 'I' for Inactive)
REMARK    1  A    between atoms: N_5  and  C_9
REMARK    2  A    between atoms: N_5  and  C_17
REMARK    3  A    between atoms: N_6  and  C_22
REMARK    4  A    between atoms: N_7  and  C_25
REMARK    5  A    between atoms: N_7  and  C_29
REMARK    6  A    between atoms: N_7  and  C_30
REMARK    7  A    between atoms: C_11  and  C_15
REMARK    8  A    between atoms: C_15  and  C_16
REMARK    9  A    between atoms: C_16  and  C_18
REMARK   10  A    between atoms: C_17  and  C_19
REMARK   11  A    between atoms: C_22  and  C_26
REMARK                            x       y       z     vdW  Elec       q    Type
REMARK                         _______ _______ _______ _____ _____    ______ ____
ROOT
ATOM      1  O   UNL     1      -3.464  -3.910  24.147  0.00  0.00    -0.274 OA
ATOM      3  N   UNL     1      -2.534  -0.755  25.730  0.00  0.00    -0.286 NA
ATOM      4  N   UNL     1      -1.570  -2.671  23.921  0.00  0.00    -0.313 N 
ATOM      8  C   UNL     1      -3.279  -2.016  25.609  0.00  0.00    +0.145 C 
ATOM      9  C   UNL     1      -4.683  -0.055  25.324  0.00  0.00    +0.070 C 
ATOM     10  C   UNL     1      -4.733  -1.583  25.368  0.00  0.00    +0.048 C 
ATOM     11  C   UNL     1      -1.096  -0.886  25.536  0.00  0.00    +0.075 C 
ATOM     12  C   UNL     1      -3.242   0.242  24.929  0.00  0.00    +0.104 C 
ATOM     13  C   UNL     1      -0.786  -1.484  24.172  0.00  0.00    +0.123 C 
ATOM     14  C   UNL     1      -2.796  -2.929  24.487  0.00  0.00    +0.230 C 
ATOM     34  H   UNL     1      -1.250  -3.299  23.190  0.00  0.00    +0.149 HD
ENDROOT
BRANCH   9   5
ATOM      5  N   UNL     1      -5.662   0.523  24.419  0.00  0.00    -0.308 NA
ATOM     35  H   UNL     1      -5.270   0.548  23.477  0.00  0.00    +0.123 HD
BRANCH   5  17
ATOM     17  C   UNL     1      -6.013   1.878  24.823  0.00  0.00    +0.116 C 
BRANCH  17  19
ATOM     19  C   UNL     1      -4.815   2.782  24.861  0.00  0.00    -0.033 A 
ATOM     20  C   UNL     1      -4.107   3.053  23.690  0.00  0.00    +0.007 A 
ATOM     21  C   UNL     1      -4.408   3.351  26.068  0.00  0.00    +0.007 A 
ATOM     23  C   UNL     1      -2.994   3.892  23.725  0.00  0.00    +0.023 A 
ATOM     24  C   UNL     1      -3.295   4.190  26.103  0.00  0.00    +0.023 A 
ATOM     25  C   UNL     1      -2.588   4.461  24.933  0.00  0.00    +0.029 A 
BRANCH  25   7
ATOM      7  N   UNL     1      -1.462   5.310  24.968  0.00  0.00    -0.336 N 
ATOM     29  C   UNL     1      -0.124   4.756  24.959  0.00  0.00    +0.129 C 
ATOM     30  C   UNL     1      -1.631   6.749  25.005  0.00  0.00    +0.129 C 
ENDBRANCH  25   7
ENDBRANCH  17  19
ENDBRANCH   5  17
ENDBRANCH   9   5
BRANCH  11  15
ATOM     15  C   UNL     1      -0.347   0.431  25.739  0.00  0.00    +0.029 C 
BRANCH  15  16
ATOM     16  C   UNL     1      -0.456   1.322  24.510  0.00  0.00    +0.097 C 
BRANCH  16  18
ATOM      2  O   UNL     1       1.671   2.258  23.831  0.00  0.00    -0.276 OA
ATOM      6  N   UNL     1       0.947   0.277  22.860  0.00  0.00    -0.311 N 
ATOM     18  C   UNL     1       0.837   1.364  23.716  0.00  0.00    +0.213 C 
ATOM     36  H   UNL     1       0.197  -0.405  22.806  0.00  0.00    +0.149 HD
BRANCH   6  22
ATOM     22  C   UNL     1       2.088   0.089  21.996  0.00  0.00    +0.139 C 
BRANCH  22  26
ATOM     26  C   UNL     1       3.351  -0.139  22.775  0.00  0.00    -0.030 A 
ATOM     27  C   UNL     1       3.563  -1.357  23.419  0.00  0.00    +0.005 A 
ATOM     28  C   UNL     1       4.313   0.868  22.854  0.00  0.00    +0.005 A 
ATOM     31  C   UNL     1       4.736  -1.570  24.142  0.00  0.00    +0.000 A 
ATOM     32  C   UNL     1       5.487   0.656  23.577  0.00  0.00    +0.000 A 
ATOM     33  C   UNL     1       5.699  -0.563  24.221  0.00  0.00    +0.000 A 
ENDBRANCH  22  26
ENDBRANCH   6  22
ENDBRANCH  16  18
ENDBRANCH  15  16
ENDBRANCH  11  15
TORSDOF 9
ENDMDL
