MODEL 1
REMARK VINA RESULT:      -6.5      0.000      0.000
REMARK  Name = 75367094
REMARK  7 active torsions:
REMARK  status: ('A' for Active; 'I' for Inactive)
REMARK    1  A    between atoms: S_1  and  N_7
REMARK    2  A    between atoms: S_1  and  C_17
REMARK    3  A    between atoms: O_3  and  C_12
REMARK    4  A    between atoms: N_6  and  C_8
REMARK    5  A    between atoms: N_6  and  C_9
REMARK    6  A    between atoms: N_7  and  C_16
REMARK    7  A    between atoms: C_14  and  C_16
REMARK                            x       y       z     vdW  Elec       q    Type
REMARK                         _______ _______ _______ _____ _____    ______ ____
ROOT
ATOM      2  O   UNL     1      -1.132   1.965  23.125  0.00  0.00    -0.371 OA
ATOM      9  C   UNL     1      -2.882   3.436  23.770  0.00  0.00    +0.111 C 
ATOM     12  C   UNL     1      -2.012   3.141  24.978  0.00  0.00    +0.164 C 
ATOM     14  C   UNL     1      -0.727   2.674  24.307  0.00  0.00    +0.164 C 
ATOM     15  C   UNL     1      -2.504   2.293  22.841  0.00  0.00    +0.181 C 
ENDROOT
BRANCH  12   3
ATOM      3  O   UNL     1      -1.799   4.281  25.789  0.00  0.00    -0.388 OA
ATOM     24  H   UNL     1      -1.117   4.831  25.370  0.00  0.00    +0.210 HD
ENDBRANCH  12   3
BRANCH   9   6
ATOM      6  N   UNL     1      -4.304   3.474  24.070  0.00  0.00    -0.306 NA
ATOM     23  H   UNL     1      -4.818   3.308  23.204  0.00  0.00    +0.123 HD
BRANCH   6   8
ATOM      8  C   UNL     1      -4.610   2.500  25.107  0.00  0.00    +0.054 C 
ATOM     10  C   UNL     1      -5.945   1.801  24.770  0.00  0.00    +0.019 C 
ATOM     11  C   UNL     1      -5.354   3.203  26.264  0.00  0.00    +0.019 C 
ATOM     13  C   UNL     1      -6.321   1.998  26.257  0.00  0.00    +0.003 C 
ENDBRANCH   6   8
ENDBRANCH   9   6
BRANCH  14  16
ATOM     16  C   UNL     1       0.113   1.765  25.187  0.00  0.00    +0.140 C 
BRANCH  16   7
ATOM      7  N   UNL     1      -0.685   0.590  25.589  0.00  0.00    -0.187 NA
ATOM     25  H   UNL     1      -1.063   0.613  26.544  0.00  0.00    +0.148 HD
BRANCH   7   1
ATOM      1  S   UNL     1      -0.391  -0.924  24.871  0.00  0.00    +0.058 S 
ATOM      4  O   UNL     1       0.173  -1.823  25.859  0.00  0.00    -0.153 OA
ATOM      5  O   UNL     1       0.279  -0.721  23.601  0.00  0.00    -0.153 OA
BRANCH   1  17
ATOM     17  C   UNL     1      -2.031  -1.476  24.506  0.00  0.00    +0.105 A 
ATOM     18  C   UNL     1      -3.050  -0.545  24.301  0.00  0.00    +0.028 A 
ATOM     19  C   UNL     1      -2.305  -2.841  24.425  0.00  0.00    +0.028 A 
ATOM     20  C   UNL     1      -4.345  -0.981  24.017  0.00  0.00    +0.002 A 
ATOM     21  C   UNL     1      -3.599  -3.276  24.141  0.00  0.00    +0.002 A 
ATOM     22  C   UNL     1      -4.619  -2.347  23.936  0.00  0.00    +0.000 A 
ENDBRANCH   1  17
ENDBRANCH   7   1
ENDBRANCH  16   7
ENDBRANCH  14  16
TORSDOF 7
ENDMDL
MODEL 2
REMARK VINA RESULT:      -6.5      1.964      4.984
REMARK  Name = 75367094
REMARK  7 active torsions:
REMARK  status: ('A' for Active; 'I' for Inactive)
REMARK    1  A    between atoms: S_1  and  N_7
REMARK    2  A    between atoms: S_1  and  C_17
REMARK    3  A    between atoms: O_3  and  C_12
REMARK    4  A    between atoms: N_6  and  C_8
REMARK    5  A    between atoms: N_6  and  C_9
REMARK    6  A    between atoms: N_7  and  C_16
REMARK    7  A    between atoms: C_14  and  C_16
REMARK                            x       y       z     vdW  Elec       q    Type
REMARK                         _______ _______ _______ _____ _____    ______ ____
ROOT
ATOM      2  O   UNL     1      -0.577   1.080  25.974  0.00  0.00    -0.371 OA
ATOM      9  C   UNL     1      -0.479  -0.992  24.817  0.00  0.00    +0.111 C 
ATOM     12  C   UNL     1      -0.106   0.127  23.862  0.00  0.00    +0.164 C 
ATOM     14  C   UNL     1       0.292   1.226  24.838  0.00  0.00    +0.164 C 
ATOM     15  C   UNL     1      -1.186  -0.222  25.920  0.00  0.00    +0.181 C 
ENDROOT
BRANCH  12   3
ATOM      3  O   UNL     1       0.960  -0.224  23.000  0.00  0.00    -0.388 OA
ATOM     24  H   UNL     1       1.253  -1.123  23.226  0.00  0.00    +0.210 HD
ENDBRANCH  12   3
BRANCH   9   6
ATOM      6  N   UNL     1      -1.317  -2.017  24.215  0.00  0.00    -0.306 NA
ATOM     23  H   UNL     1      -0.937  -2.930  24.470  0.00  0.00    +0.123 HD
BRANCH   6   8
ATOM      8  C   UNL     1      -2.694  -1.836  24.647  0.00  0.00    +0.054 C 
ATOM     10  C   UNL     1      -3.437  -3.187  24.559  0.00  0.00    +0.019 C 
ATOM     11  C   UNL     1      -3.548  -1.372  23.447  0.00  0.00    +0.019 C 
ATOM     13  C   UNL     1      -4.601  -2.405  23.908  0.00  0.00    +0.003 C 
ENDBRANCH   6   8
ENDBRANCH   9   6
BRANCH  14  16
ATOM     16  C   UNL     1       0.150   2.622  24.260  0.00  0.00    +0.140 C 
BRANCH  16   7
ATOM      7  N   UNL     1      -1.279   2.925  24.043  0.00  0.00    -0.187 NA
ATOM     25  H   UNL     1      -1.594   2.911  23.066  0.00  0.00    +0.148 HD
BRANCH   7   1
ATOM      1  S   UNL     1      -2.119   3.905  25.151  0.00  0.00    +0.058 S 
ATOM      4  O   UNL     1      -2.285   5.232  24.590  0.00  0.00    -0.153 OA
ATOM      5  O   UNL     1      -1.534   3.737  26.467  0.00  0.00    -0.153 OA
BRANCH   1  17
ATOM     17  C   UNL     1      -3.707   3.128  25.190  0.00  0.00    +0.105 A 
ATOM     18  C   UNL     1      -3.852   1.816  24.738  0.00  0.00    +0.028 A 
ATOM     19  C   UNL     1      -4.814   3.828  25.670  0.00  0.00    +0.028 A 
ATOM     20  C   UNL     1      -5.106   1.205  24.766  0.00  0.00    +0.002 A 
ATOM     21  C   UNL     1      -6.066   3.216  25.697  0.00  0.00    +0.002 A 
ATOM     22  C   UNL     1      -6.213   1.905  25.246  0.00  0.00    +0.000 A 
ENDBRANCH   1  17
ENDBRANCH   7   1
ENDBRANCH  16   7
ENDBRANCH  14  16
TORSDOF 7
ENDMDL
MODEL 3
REMARK VINA RESULT:      -6.4      2.305      3.887
REMARK  Name = 75367094
REMARK  7 active torsions:
REMARK  status: ('A' for Active; 'I' for Inactive)
REMARK    1  A    between atoms: S_1  and  N_7
REMARK    2  A    between atoms: S_1  and  C_17
REMARK    3  A    between atoms: O_3  and  C_12
REMARK    4  A    between atoms: N_6  and  C_8
REMARK    5  A    between atoms: N_6  and  C_9
REMARK    6  A    between atoms: N_7  and  C_16
REMARK    7  A    between atoms: C_14  and  C_16
REMARK                            x       y       z     vdW  Elec       q    Type
REMARK                         _______ _______ _______ _____ _____    ______ ____
ROOT
ATOM      2  O   UNL     1      -2.970   2.942  23.701  0.00  0.00    -0.371 OA
ATOM      9  C   UNL     1      -4.797   1.553  24.311  0.00  0.00    +0.111 C 
ATOM     12  C   UNL     1      -4.404   2.406  25.503  0.00  0.00    +0.164 C 
ATOM     14  C   UNL     1      -3.651   3.538  24.818  0.00  0.00    +0.164 C 
ATOM     15  C   UNL     1      -3.550   1.651  23.447  0.00  0.00    +0.181 C 
ENDROOT
BRANCH  12   3
ATOM      3  O   UNL     1      -5.523   2.880  26.227  0.00  0.00    -0.388 OA
ATOM     24  H   UNL     1      -6.263   2.267  26.083  0.00  0.00    +0.210 HD
ENDBRANCH  12   3
BRANCH   9   6
ATOM      6  N   UNL     1      -5.137   0.183  24.661  0.00  0.00    -0.306 NA
ATOM     23  H   UNL     1      -5.952  -0.094  24.111  0.00  0.00    +0.123 HD
BRANCH   6   8
ATOM      8  C   UNL     1      -3.985  -0.678  24.438  0.00  0.00    +0.054 C 
ATOM     10  C   UNL     1      -4.443  -1.966  23.721  0.00  0.00    +0.019 C 
ATOM     11  C   UNL     1      -3.748  -1.547  25.692  0.00  0.00    +0.019 C 
ATOM     13  C   UNL     1      -3.553  -2.735  24.723  0.00  0.00    +0.003 C 
ENDBRANCH   6   8
ENDBRANCH   9   6
BRANCH  14  16
ATOM     16  C   UNL     1      -2.645   4.225  25.724  0.00  0.00    +0.140 C 
BRANCH  16   7
ATOM      7  N   UNL     1      -1.735   3.218  26.306  0.00  0.00    -0.187 NA
ATOM     25  H   UNL     1      -1.899   2.986  27.292  0.00  0.00    +0.148 HD
BRANCH   7   1
ATOM      1  S   UNL     1      -0.165   3.026  25.678  0.00  0.00    +0.058 S 
ATOM      4  O   UNL     1       0.795   3.066  26.764  0.00  0.00    -0.153 OA
ATOM      5  O   UNL     1      -0.006   3.901  24.532  0.00  0.00    -0.153 OA
BRANCH   1  17
ATOM     17  C   UNL     1      -0.221   1.371  25.060  0.00  0.00    +0.105 A 
ATOM     18  C   UNL     1      -0.696   0.340  25.871  0.00  0.00    +0.028 A 
ATOM     19  C   UNL     1       0.211   1.097  23.762  0.00  0.00    +0.028 A 
ATOM     20  C   UNL     1      -0.737  -0.967  25.384  0.00  0.00    +0.002 A 
ATOM     21  C   UNL     1       0.169  -0.210  23.276  0.00  0.00    +0.002 A 
ATOM     22  C   UNL     1      -0.305  -1.241  24.086  0.00  0.00    +0.000 A 
ENDBRANCH   1  17
ENDBRANCH   7   1
ENDBRANCH  16   7
ENDBRANCH  14  16
TORSDOF 7
ENDMDL
MODEL 4
REMARK VINA RESULT:      -5.5      1.322      1.489
REMARK  Name = 75367094
REMARK  7 active torsions:
REMARK  status: ('A' for Active; 'I' for Inactive)
REMARK    1  A    between atoms: S_1  and  N_7
REMARK    2  A    between atoms: S_1  and  C_17
REMARK    3  A    between atoms: O_3  and  C_12
REMARK    4  A    between atoms: N_6  and  C_8
REMARK    5  A    between atoms: N_6  and  C_9
REMARK    6  A    between atoms: N_7  and  C_16
REMARK    7  A    between atoms: C_14  and  C_16
REMARK                            x       y       z     vdW  Elec       q    Type
REMARK                         _______ _______ _______ _____ _____    ______ ____
ROOT
ATOM      2  O   UNL     1      -0.422   4.115  23.856  0.00  0.00    -0.371 OA
ATOM      9  C   UNL     1      -1.943   4.286  25.672  0.00  0.00    +0.111 C 
ATOM     12  C   UNL     1      -1.296   2.912  25.695  0.00  0.00    +0.164 C 
ATOM     14  C   UNL     1      -0.044   3.164  24.866  0.00  0.00    +0.164 C 
ATOM     15  C   UNL     1      -1.665   4.725  24.244  0.00  0.00    +0.181 C 
ENDROOT
BRANCH  12   3
ATOM      3  O   UNL     1      -0.983   2.478  27.004  0.00  0.00    -0.388 OA
ATOM     24  H   UNL     1      -0.080   2.118  27.000  0.00  0.00    +0.210 HD
ENDBRANCH  12   3
BRANCH   9   6
ATOM      6  N   UNL     1      -3.360   4.269  25.995  0.00  0.00    -0.306 NA
ATOM     23  H   UNL     1      -3.808   5.047  25.508  0.00  0.00    +0.123 HD
BRANCH   6   8
ATOM      8  C   UNL     1      -3.926   2.976  25.637  0.00  0.00    +0.054 C 
ATOM     10  C   UNL     1      -4.505   3.052  24.208  0.00  0.00    +0.019 C 
ATOM     11  C   UNL     1      -5.383   2.899  26.145  0.00  0.00    +0.019 C 
ATOM     13  C   UNL     1      -5.740   2.305  24.763  0.00  0.00    +0.003 C 
ENDBRANCH   6   8
ENDBRANCH   9   6
BRANCH  14  16
ATOM     16  C   UNL     1       0.503   1.909  24.209  0.00  0.00    +0.140 C 
BRANCH  16   7
ATOM      7  N   UNL     1      -0.585   0.924  24.043  0.00  0.00    -0.187 NA
ATOM     25  H   UNL     1      -1.487   1.304  23.734  0.00  0.00    +0.148 HD
BRANCH   7   1
ATOM      1  S   UNL     1      -0.581  -0.511  24.958  0.00  0.00    +0.058 S 
ATOM      4  O   UNL     1      -0.605  -0.181  26.369  0.00  0.00    -0.153 OA
ATOM      5  O   UNL     1       0.438  -1.401  24.434  0.00  0.00    -0.153 OA
BRANCH   1  17
ATOM     17  C   UNL     1      -2.147  -1.214  24.535  0.00  0.00    +0.105 A 
ATOM     18  C   UNL     1      -3.222  -0.382  24.221  0.00  0.00    +0.028 A 
ATOM     19  C   UNL     1      -2.307  -2.599  24.517  0.00  0.00    +0.028 A 
ATOM     20  C   UNL     1      -4.459  -0.937  23.891  0.00  0.00    +0.002 A 
ATOM     21  C   UNL     1      -3.543  -3.153  24.187  0.00  0.00    +0.002 A 
ATOM     22  C   UNL     1      -4.619  -2.323  23.873  0.00  0.00    +0.000 A 
ENDBRANCH   1  17
ENDBRANCH   7   1
ENDBRANCH  16   7
ENDBRANCH  14  16
TORSDOF 7
ENDMDL
MODEL 5
REMARK VINA RESULT:      -4.7      3.099      5.907
REMARK  Name = 75367094
REMARK  7 active torsions:
REMARK  status: ('A' for Active; 'I' for Inactive)
REMARK    1  A    between atoms: S_1  and  N_7
REMARK    2  A    between atoms: S_1  and  C_17
REMARK    3  A    between atoms: O_3  and  C_12
REMARK    4  A    between atoms: N_6  and  C_8
REMARK    5  A    between atoms: N_6  and  C_9
REMARK    6  A    between atoms: N_7  and  C_16
REMARK    7  A    between atoms: C_14  and  C_16
REMARK                            x       y       z     vdW  Elec       q    Type
REMARK                         _______ _______ _______ _____ _____    ______ ____
ROOT
ATOM      2  O   UNL     1       0.399   2.155  24.068  0.00  0.00    -0.371 OA
ATOM      9  C   UNL     1       1.269   0.233  22.978  0.00  0.00    +0.111 C 
ATOM     12  C   UNL     1       0.269  -0.205  24.033  0.00  0.00    +0.164 C 
ATOM     14  C   UNL     1      -0.535   1.074  24.224  0.00  0.00    +0.164 C 
ATOM     15  C   UNL     1       1.586   1.648  23.434  0.00  0.00    +0.181 C 
ENDROOT
BRANCH  12   3
ATOM      3  O   UNL     1      -0.545  -1.279  23.600  0.00  0.00    -0.388 OA
ATOM     24  H   UNL     1      -1.406  -1.209  24.044  0.00  0.00    +0.210 HD
ENDBRANCH  12   3
BRANCH   9   6
ATOM      6  N   UNL     1       2.448  -0.616  22.904  0.00  0.00    -0.306 NA
ATOM     23  H   UNL     1       2.636  -0.814  21.920  0.00  0.00    +0.123 HD
BRANCH   6   8
ATOM      8  C   UNL     1       3.562   0.037  23.574  0.00  0.00    +0.054 C 
ATOM     10  C   UNL     1       4.534   0.598  22.514  0.00  0.00    +0.019 C 
ATOM     11  C   UNL     1       4.645  -1.013  23.905  0.00  0.00    +0.019 C 
ATOM     13  C   UNL     1       5.675   0.011  23.377  0.00  0.00    +0.003 C 
ENDBRANCH   6   8
ENDBRANCH   9   6
BRANCH  14  16
ATOM     16  C   UNL     1      -1.202   1.165  25.584  0.00  0.00    +0.140 C 
BRANCH  16   7
ATOM      7  N   UNL     1      -2.308   2.141  25.528  0.00  0.00    -0.187 NA
ATOM     25  H   UNL     1      -2.351   2.812  26.304  0.00  0.00    +0.148 HD
BRANCH   7   1
ATOM      1  S   UNL     1      -3.753   1.744  24.720  0.00  0.00    +0.058 S 
ATOM      4  O   UNL     1      -3.662   2.167  23.336  0.00  0.00    -0.153 OA
ATOM      5  O   UNL     1      -4.878   2.159  25.537  0.00  0.00    -0.153 OA
BRANCH   1  17
ATOM     17  C   UNL     1      -3.714  -0.023  24.755  0.00  0.00    +0.105 A 
ATOM     18  C   UNL     1      -3.285  -0.688  25.904  0.00  0.00    +0.028 A 
ATOM     19  C   UNL     1      -4.109  -0.751  23.633  0.00  0.00    +0.028 A 
ATOM     20  C   UNL     1      -3.250  -2.083  25.930  0.00  0.00    +0.002 A 
ATOM     21  C   UNL     1      -4.074  -2.144  23.659  0.00  0.00    +0.002 A 
ATOM     22  C   UNL     1      -3.646  -2.811  24.807  0.00  0.00    +0.000 A 
ENDBRANCH   1  17
ENDBRANCH   7   1
ENDBRANCH  16   7
ENDBRANCH  14  16
TORSDOF 7
ENDMDL
MODEL 6
REMARK VINA RESULT:      -4.5      3.081      5.653
REMARK  Name = 75367094
REMARK  7 active torsions:
REMARK  status: ('A' for Active; 'I' for Inactive)
REMARK    1  A    between atoms: S_1  and  N_7
REMARK    2  A    between atoms: S_1  and  C_17
REMARK    3  A    between atoms: O_3  and  C_12
REMARK    4  A    between atoms: N_6  and  C_8
REMARK    5  A    between atoms: N_6  and  C_9
REMARK    6  A    between atoms: N_7  and  C_16
REMARK    7  A    between atoms: C_14  and  C_16
REMARK                            x       y       z     vdW  Elec       q    Type
REMARK                         _______ _______ _______ _____ _____    ______ ____
ROOT
ATOM      2  O   UNL     1      -1.293   1.056  23.432  0.00  0.00    -0.371 OA
ATOM      9  C   UNL     1       1.010   1.112  24.009  0.00  0.00    +0.111 C 
ATOM     12  C   UNL     1       0.285   2.220  24.752  0.00  0.00    +0.164 C 
ATOM     14  C   UNL     1      -1.151   1.717  24.700  0.00  0.00    +0.164 C 
ATOM     15  C   UNL     1       0.018   0.794  22.902  0.00  0.00    +0.181 C 
ENDROOT
BRANCH  12   3
ATOM      3  O   UNL     1       0.742   2.373  26.083  0.00  0.00    -0.388 OA
ATOM     24  H   UNL     1       0.888   1.490  26.460  0.00  0.00    +0.210 HD
ENDBRANCH  12   3
BRANCH   9   6
ATOM      6  N   UNL     1       2.316   1.505  23.505  0.00  0.00    -0.306 NA
ATOM     23  H   UNL     1       2.738   2.146  24.178  0.00  0.00    +0.123 HD
BRANCH   6   8
ATOM      8  C   UNL     1       3.124   0.318  23.268  0.00  0.00    +0.054 C 
ATOM     10  C   UNL     1       4.506   0.503  23.931  0.00  0.00    +0.019 C 
ATOM     11  C   UNL     1       3.840   0.452  21.907  0.00  0.00    +0.019 C 
ATOM     13  C   UNL     1       5.110  -0.059  22.623  0.00  0.00    +0.003 C 
ENDBRANCH   6   8
ENDBRANCH   9   6
BRANCH  14  16
ATOM     16  C   UNL     1      -2.179   2.828  24.816  0.00  0.00    +0.140 C 
BRANCH  16   7
ATOM      7  N   UNL     1      -3.409   2.441  24.097  0.00  0.00    -0.187 NA
ATOM     25  H   UNL     1      -3.625   2.989  23.256  0.00  0.00    +0.148 HD
BRANCH   7   1
ATOM      1  S   UNL     1      -4.695   1.711  24.940  0.00  0.00    +0.058 S 
ATOM      4  O   UNL     1      -5.915   1.850  24.170  0.00  0.00    -0.153 OA
ATOM      5  O   UNL     1      -4.653   2.141  26.325  0.00  0.00    -0.153 OA
BRANCH   1  17
ATOM     17  C   UNL     1      -4.224   0.008  24.915  0.00  0.00    +0.105 A 
ATOM     18  C   UNL     1      -3.580  -0.554  26.017  0.00  0.00    +0.028 A 
ATOM     19  C   UNL     1      -4.495  -0.773  23.791  0.00  0.00    +0.028 A 
ATOM     20  C   UNL     1      -3.205  -1.898  25.995  0.00  0.00    +0.002 A 
ATOM     21  C   UNL     1      -4.120  -2.116  23.770  0.00  0.00    +0.002 A 
ATOM     22  C   UNL     1      -3.476  -2.679  24.872  0.00  0.00    +0.000 A 
ENDBRANCH   1  17
ENDBRANCH   7   1
ENDBRANCH  16   7
ENDBRANCH  14  16
TORSDOF 7
ENDMDL
MODEL 7
REMARK VINA RESULT:      -4.5      3.116      6.269
REMARK  Name = 75367094
REMARK  7 active torsions:
REMARK  status: ('A' for Active; 'I' for Inactive)
REMARK    1  A    between atoms: S_1  and  N_7
REMARK    2  A    between atoms: S_1  and  C_17
REMARK    3  A    between atoms: O_3  and  C_12
REMARK    4  A    between atoms: N_6  and  C_8
REMARK    5  A    between atoms: N_6  and  C_9
REMARK    6  A    between atoms: N_7  and  C_16
REMARK    7  A    between atoms: C_14  and  C_16
REMARK                            x       y       z     vdW  Elec       q    Type
REMARK                         _______ _______ _______ _____ _____    ______ ____
ROOT
ATOM      2  O   UNL     1       0.112   1.737  24.440  0.00  0.00    -0.371 OA
ATOM      9  C   UNL     1       1.151   0.195  22.963  0.00  0.00    +0.111 C 
ATOM     12  C   UNL     1       0.193  -0.556  23.869  0.00  0.00    +0.164 C 
ATOM     14  C   UNL     1      -0.722   0.571  24.328  0.00  0.00    +0.164 C 
ATOM     15  C   UNL     1       1.340   1.491  23.733  0.00  0.00    +0.181 C 
ENDROOT
BRANCH  12   3
ATOM      3  O   UNL     1      -0.521  -1.570  23.188  0.00  0.00    -0.388 OA
ATOM     24  H   UNL     1      -0.455  -1.403  22.233  0.00  0.00    +0.210 HD
ENDBRANCH  12   3
BRANCH   9   6
ATOM      6  N   UNL     1       2.400  -0.509  22.722  0.00  0.00    -0.306 NA
ATOM     23  H   UNL     1       2.589  -0.491  21.719  0.00  0.00    +0.123 HD
BRANCH   6   8
ATOM      8  C   UNL     1       3.462   0.100  23.510  0.00  0.00    +0.054 C 
ATOM     10  C   UNL     1       4.505   0.726  22.560  0.00  0.00    +0.019 C 
ATOM     11  C   UNL     1       4.522  -0.970  23.851  0.00  0.00    +0.019 C 
ATOM     13  C   UNL     1       5.583   0.084  23.463  0.00  0.00    +0.003 C 
ENDBRANCH   6   8
ENDBRANCH   9   6
BRANCH  14  16
ATOM     16  C   UNL     1      -1.395   0.293  25.660  0.00  0.00    +0.140 C 
BRANCH  16   7
ATOM      7  N   UNL     1      -2.568  -0.579  25.448  0.00  0.00    -0.187 NA
ATOM     25  H   UNL     1      -2.453  -1.558  25.734  0.00  0.00    +0.148 HD
BRANCH   7   1
ATOM      1  S   UNL     1      -3.682  -0.222  24.212  0.00  0.00    +0.058 S 
ATOM      4  O   UNL     1      -4.762  -1.189  24.244  0.00  0.00    -0.153 OA
ATOM      5  O   UNL     1      -2.957   0.023  22.980  0.00  0.00    -0.153 OA
BRANCH   1  17
ATOM     17  C   UNL     1      -4.329   1.334  24.747  0.00  0.00    +0.105 A 
ATOM     18  C   UNL     1      -5.450   1.375  25.577  0.00  0.00    +0.028 A 
ATOM     19  C   UNL     1      -3.719   2.520  24.338  0.00  0.00    +0.028 A 
ATOM     20  C   UNL     1      -5.963   2.604  25.996  0.00  0.00    +0.002 A 
ATOM     21  C   UNL     1      -4.232   3.747  24.757  0.00  0.00    +0.002 A 
ATOM     22  C   UNL     1      -5.353   3.790  25.586  0.00  0.00    +0.000 A 
ENDBRANCH   1  17
ENDBRANCH   7   1
ENDBRANCH  16   7
ENDBRANCH  14  16
TORSDOF 7
ENDMDL
MODEL 8
REMARK VINA RESULT:      -4.3      1.866      4.771
REMARK  Name = 75367094
REMARK  7 active torsions:
REMARK  status: ('A' for Active; 'I' for Inactive)
REMARK    1  A    between atoms: S_1  and  N_7
REMARK    2  A    between atoms: S_1  and  C_17
REMARK    3  A    between atoms: O_3  and  C_12
REMARK    4  A    between atoms: N_6  and  C_8
REMARK    5  A    between atoms: N_6  and  C_9
REMARK    6  A    between atoms: N_7  and  C_16
REMARK    7  A    between atoms: C_14  and  C_16
REMARK                            x       y       z     vdW  Elec       q    Type
REMARK                         _______ _______ _______ _____ _____    ______ ____
ROOT
ATOM      2  O   UNL     1      -0.773   2.179  25.735  0.00  0.00    -0.371 OA
ATOM      9  C   UNL     1      -0.349  -0.154  25.613  0.00  0.00    +0.111 C 
ATOM     12  C   UNL     1      -0.235   0.443  24.222  0.00  0.00    +0.164 C 
ATOM     14  C   UNL     1      -0.001   1.911  24.552  0.00  0.00    +0.164 C 
ATOM     15  C   UNL     1      -1.133   0.925  26.341  0.00  0.00    +0.181 C 
ENDROOT
BRANCH  12   3
ATOM      3  O   UNL     1       0.835  -0.107  23.478  0.00  0.00    -0.388 OA
ATOM     24  H   UNL     1       1.609   0.471  23.582  0.00  0.00    +0.210 HD
ENDBRANCH  12   3
BRANCH   9   6
ATOM      6  N   UNL     1      -1.010  -1.449  25.639  0.00  0.00    -0.306 NA
ATOM     23  H   UNL     1      -1.266  -1.658  26.605  0.00  0.00    +0.123 HD
BRANCH   6   8
ATOM      8  C   UNL     1      -2.155  -1.430  24.740  0.00  0.00    +0.054 C 
ATOM     10  C   UNL     1      -3.417  -1.867  25.515  0.00  0.00    +0.019 C 
ATOM     11  C   UNL     1      -2.238  -2.778  23.991  0.00  0.00    +0.019 C 
ATOM     13  C   UNL     1      -3.753  -2.753  24.294  0.00  0.00    +0.003 C 
ENDBRANCH   6   8
ENDBRANCH   9   6
BRANCH  14  16
ATOM     16  C   UNL     1      -0.426   2.852  23.439  0.00  0.00    +0.140 C 
BRANCH  16   7
ATOM      7  N   UNL     1      -1.808   3.313  23.682  0.00  0.00    -0.187 NA
ATOM     25  H   UNL     1      -1.974   3.766  24.588  0.00  0.00    +0.148 HD
BRANCH   7   1
ATOM      1  S   UNL     1      -3.112   2.533  22.915  0.00  0.00    +0.058 S 
ATOM      4  O   UNL     1      -2.724   1.182  22.561  0.00  0.00    -0.153 OA
ATOM      5  O   UNL     1      -3.666   3.420  21.911  0.00  0.00    -0.153 OA
BRANCH   1  17
ATOM     17  C   UNL     1      -4.295   2.435  24.225  0.00  0.00    +0.105 A 
ATOM     18  C   UNL     1      -4.733   3.598  24.858  0.00  0.00    +0.028 A 
ATOM     19  C   UNL     1      -4.788   1.193  24.627  0.00  0.00    +0.028 A 
ATOM     20  C   UNL     1      -5.664   3.520  25.894  0.00  0.00    +0.002 A 
ATOM     21  C   UNL     1      -5.719   1.115  25.662  0.00  0.00    +0.002 A 
ATOM     22  C   UNL     1      -6.158   2.278  26.296  0.00  0.00    +0.000 A 
ENDBRANCH   1  17
ENDBRANCH   7   1
ENDBRANCH  16   7
ENDBRANCH  14  16
TORSDOF 7
ENDMDL
MODEL 9
REMARK VINA RESULT:      -4.0     14.930     16.994
REMARK  Name = 75367094
REMARK  7 active torsions:
REMARK  status: ('A' for Active; 'I' for Inactive)
REMARK    1  A    between atoms: S_1  and  N_7
REMARK    2  A    between atoms: S_1  and  C_17
REMARK    3  A    between atoms: O_3  and  C_12
REMARK    4  A    between atoms: N_6  and  C_8
REMARK    5  A    between atoms: N_6  and  C_9
REMARK    6  A    between atoms: N_7  and  C_16
REMARK    7  A    between atoms: C_14  and  C_16
REMARK                            x       y       z     vdW  Elec       q    Type
REMARK                         _______ _______ _______ _____ _____    ______ ____
ROOT
ATOM      2  O   UNL     1      -5.050 -10.375  15.076  0.00  0.00    -0.371 OA
ATOM      9  C   UNL     1      -7.395 -10.003  15.030  0.00  0.00    +0.111 C 
ATOM     12  C   UNL     1      -6.857  -9.950  13.612  0.00  0.00    +0.164 C 
ATOM     14  C   UNL     1      -5.544 -10.705  13.768  0.00  0.00    +0.164 C 
ATOM     15  C   UNL     1      -6.125  -9.803  15.841  0.00  0.00    +0.181 C 
ENDROOT
BRANCH  12   3
ATOM      3  O   UNL     1      -7.716 -10.575  12.678  0.00  0.00    -0.388 OA
ATOM     24  H   UNL     1      -7.192 -10.829  11.900  0.00  0.00    +0.210 HD
ENDBRANCH  12   3
BRANCH   9   6
ATOM      6  N   UNL     1      -8.409  -8.998  15.307  0.00  0.00    -0.306 NA
ATOM     23  H   UNL     1      -9.213  -9.181  14.705  0.00  0.00    +0.123 HD
BRANCH   6   8
ATOM      8  C   UNL     1      -8.744  -9.022  16.723  0.00  0.00    +0.054 C 
ATOM     10  C   UNL     1      -9.901 -10.017  16.955  0.00  0.00    +0.019 C 
ATOM     11  C   UNL     1      -9.752  -7.893  17.028  0.00  0.00    +0.019 C 
ATOM     13  C   UNL     1     -10.535  -8.934  17.858  0.00  0.00    +0.003 C 
ENDBRANCH   6   8
ENDBRANCH   9   6
BRANCH  14  16
ATOM     16  C   UNL     1      -4.510 -10.333  12.720  0.00  0.00    +0.140 C 
BRANCH  16   7
ATOM      7  N   UNL     1      -4.969 -10.781  11.391  0.00  0.00    -0.187 NA
ATOM     25  H   UNL     1      -5.079 -11.795  11.275  0.00  0.00    +0.148 HD
BRANCH   7   1
ATOM      1  S   UNL     1      -4.633  -9.840  10.013  0.00  0.00    +0.058 S 
ATOM      4  O   UNL     1      -3.970 -10.662   9.020  0.00  0.00    -0.153 OA
ATOM      5  O   UNL     1      -4.043  -8.584  10.433  0.00  0.00    -0.153 OA
BRANCH   1  17
ATOM     17  C   UNL     1      -6.258  -9.474   9.420  0.00  0.00    +0.105 A 
ATOM     18  C   UNL     1      -6.649  -8.148   9.230  0.00  0.00    +0.028 A 
ATOM     19  C   UNL     1      -7.150 -10.511   9.144  0.00  0.00    +0.028 A 
ATOM     20  C   UNL     1      -7.932  -7.859   8.765  0.00  0.00    +0.002 A 
ATOM     21  C   UNL     1      -8.432 -10.221   8.680  0.00  0.00    +0.002 A 
ATOM     22  C   UNL     1      -8.824  -8.896   8.490  0.00  0.00    +0.000 A 
ENDBRANCH   1  17
ENDBRANCH   7   1
ENDBRANCH  16   7
ENDBRANCH  14  16
TORSDOF 7
ENDMDL
MODEL 10
REMARK VINA RESULT:      -3.9      2.919      4.819
REMARK  Name = 75367094
REMARK  7 active torsions:
REMARK  status: ('A' for Active; 'I' for Inactive)
REMARK    1  A    between atoms: S_1  and  N_7
REMARK    2  A    between atoms: S_1  and  C_17
REMARK    3  A    between atoms: O_3  and  C_12
REMARK    4  A    between atoms: N_6  and  C_8
REMARK    5  A    between atoms: N_6  and  C_9
REMARK    6  A    between atoms: N_7  and  C_16
REMARK    7  A    between atoms: C_14  and  C_16
REMARK                            x       y       z     vdW  Elec       q    Type
REMARK                         _______ _______ _______ _____ _____    ______ ____
ROOT
ATOM      2  O   UNL     1      -1.839   2.413  22.554  0.00  0.00    -0.371 OA
ATOM      9  C   UNL     1      -3.322   1.719  24.274  0.00  0.00    +0.111 C 
ATOM     12  C   UNL     1      -1.918   1.823  24.842  0.00  0.00    +0.164 C 
ATOM     14  C   UNL     1      -1.259   2.745  23.826  0.00  0.00    +0.164 C 
ATOM     15  C   UNL     1      -3.039   1.653  22.782  0.00  0.00    +0.181 C 
ENDROOT
BRANCH  12   3
ATOM      3  O   UNL     1      -1.896   2.373  26.145  0.00  0.00    -0.388 OA
ATOM     24  H   UNL     1      -1.226   3.076  26.170  0.00  0.00    +0.210 HD
ENDBRANCH  12   3
BRANCH   9   6
ATOM      6  N   UNL     1      -4.065   0.567  24.761  0.00  0.00    -0.306 NA
ATOM     23  H   UNL     1      -4.966   0.543  24.282  0.00  0.00    +0.123 HD
BRANCH   6   8
ATOM      8  C   UNL     1      -3.281  -0.641  24.555  0.00  0.00    +0.054 C 
ATOM     10  C   UNL     1      -4.177  -1.728  23.924  0.00  0.00    +0.019 C 
ATOM     11  C   UNL     1      -3.294  -1.485  25.848  0.00  0.00    +0.019 C 
ATOM     13  C   UNL     1      -3.554  -2.710  24.942  0.00  0.00    +0.003 C 
ENDBRANCH   6   8
ENDBRANCH   9   6
BRANCH  14  16
ATOM     16  C   UNL     1       0.249   2.583  23.759  0.00  0.00    +0.140 C 
BRANCH  16   7
ATOM      7  N   UNL     1       0.636   1.296  24.370  0.00  0.00    -0.187 NA
ATOM     25  H   UNL     1       1.129   1.360  25.269  0.00  0.00    +0.148 HD
BRANCH   7   1
ATOM      1  S   UNL     1       0.917  -0.064  23.387  0.00  0.00    +0.058 S 
ATOM      4  O   UNL     1       0.475   0.220  22.036  0.00  0.00    -0.153 OA
ATOM      5  O   UNL     1       0.444  -1.249  24.075  0.00  0.00    -0.153 OA
BRANCH   1  17
ATOM     17  C   UNL     1       2.683  -0.144  23.377  0.00  0.00    +0.105 A 
ATOM     18  C   UNL     1       3.428   0.952  22.940  0.00  0.00    +0.028 A 
ATOM     19  C   UNL     1       3.331  -1.303  23.804  0.00  0.00    +0.028 A 
ATOM     20  C   UNL     1       4.822   0.887  22.928  0.00  0.00    +0.002 A 
ATOM     21  C   UNL     1       4.724  -1.368  23.792  0.00  0.00    +0.002 A 
ATOM     22  C   UNL     1       5.470  -0.273  23.356  0.00  0.00    +0.000 A 
ENDBRANCH   1  17
ENDBRANCH   7   1
ENDBRANCH  16   7
ENDBRANCH  14  16
TORSDOF 7
ENDMDL
