MODEL 1
REMARK VINA RESULT:      14.1      0.000      0.000
REMARK  Name = 7144200
REMARK  6 active torsions:
REMARK  status: ('A' for Active; 'I' for Inactive)
REMARK    1  A    between atoms: O_6  and  C_29
REMARK    2  A    between atoms: O_6  and  C_35
REMARK    3  A    between atoms: O_7  and  C_30
REMARK    4  A    between atoms: O_7  and  C_36
REMARK    5  A    between atoms: N_10  and  C_26
REMARK    6  A    between atoms: C_18  and  C_23
REMARK                            x       y       z     vdW  Elec       q    Type
REMARK                         _______ _______ _______ _____ _____    ______ ____
ROOT
ATOM      4  O   UNL     1      -4.646   0.713  22.404  0.00  0.00    -0.268 OA
ATOM      5  O   UNL     1      -3.230   1.583  27.019  0.00  0.00    -0.252 OA
ATOM      8  N   UNL     1      -2.731  -0.241  23.356  0.00  0.00    -0.311 N 
ATOM      9  N   UNL     1      -1.724  -0.034  26.329  0.00  0.00    -0.284 N 
ATOM     10  N   UNL     1      -1.206   2.258  26.115  0.00  0.00    -0.266 N 
ATOM     11  C   UNL     1      -2.892  -1.949  25.259  0.00  0.00    +0.027 C 
ATOM     12  C   UNL     1      -0.685  -1.240  24.431  0.00  0.00    +0.054 C 
ATOM     13  C   UNL     1      -1.563  -2.458  24.719  0.00  0.00    +0.018 C 
ATOM     14  C   UNL     1      -3.576  -1.138  24.157  0.00  0.00    +0.130 C 
ATOM     15  C   UNL     1      -2.681  -1.122  26.540  0.00  0.00    +0.114 C 
ATOM     16  C   UNL     1      -0.443  -0.469  25.749  0.00  0.00    +0.119 C 
ATOM     17  C   UNL     1      -1.323  -0.315  23.388  0.00  0.00    +0.034 A 
ATOM     18  C   UNL     1      -0.587   0.448  22.538  0.00  0.00    +0.002 A 
ATOM     19  C   UNL     1      -3.422   0.620  22.483  0.00  0.00    +0.252 A 
ATOM     20  C   UNL     1      -2.135   1.303  26.524  0.00  0.00    +0.307 C 
ATOM     21  C   UNL     1      -1.266   1.350  21.627  0.00  0.00    +0.015 A 
ATOM     22  C   UNL     1      -2.594   1.459  21.589  0.00  0.00    +0.071 A 
ATOM     37  H   UNL     1      -0.222   2.018  26.127  0.00  0.00    +0.156 HD
ENDROOT
BRANCH  18  23
ATOM     23  C   UNL     1       0.892   0.409  22.535  0.00  0.00    -0.016 A 
ATOM     24  C   UNL     1       1.559  -0.429  21.646  0.00  0.00    +0.012 A 
ATOM     25  C   UNL     1       1.606   1.210  23.421  0.00  0.00    +0.012 A 
ATOM     27  C   UNL     1       2.953  -0.466  21.645  0.00  0.00    +0.046 A 
ATOM     28  C   UNL     1       3.000   1.173  23.419  0.00  0.00    +0.046 A 
ATOM     29  C   UNL     1       3.673   0.335  22.531  0.00  0.00    +0.130 A 
BRANCH  29   6
ATOM      6  O   UNL     1       5.034   0.298  22.528  0.00  0.00    -0.406 OA
BRANCH   6  35
ATOM      1  F   UNL     1       6.999  -0.384  23.404  0.00  0.00    -0.133 F 
ATOM      2  F   UNL     1       5.643   0.756  24.684  0.00  0.00    -0.133 F 
ATOM      3  F   UNL     1       5.168  -1.330  24.129  0.00  0.00    -0.133 F 
ATOM     35  C   UNL     1       5.698  -0.166  23.699  0.00  0.00    +0.575 C 
ENDBRANCH   6  35
ENDBRANCH  29   6
ENDBRANCH  18  23
BRANCH  10  26
ATOM     26  C   UNL     1      -1.472   3.587  25.704  0.00  0.00    +0.077 A 
ATOM     30  C   UNL     1      -2.763   4.105  25.777  0.00  0.00    +0.141 A 
ATOM     31  C   UNL     1      -0.426   4.371  25.226  0.00  0.00    +0.027 A 
ATOM     32  C   UNL     1      -3.008   5.417  25.369  0.00  0.00    +0.047 A 
ATOM     33  C   UNL     1      -0.671   5.683  24.817  0.00  0.00    +0.002 A 
ATOM     34  C   UNL     1      -1.962   6.205  24.889  0.00  0.00    +0.004 A 
BRANCH  30   7
ATOM      7  O   UNL     1      -3.799   3.351  26.242  0.00  0.00    -0.493 OA
ATOM     36  C   UNL     1      -5.057   3.508  25.591  0.00  0.00    +0.277 C 
ENDBRANCH  30   7
ENDBRANCH  10  26
TORSDOF 5
ENDMDL
MODEL 2
REMARK VINA RESULT:      14.3      1.724      4.944
REMARK  Name = 7144200
REMARK  6 active torsions:
REMARK  status: ('A' for Active; 'I' for Inactive)
REMARK    1  A    between atoms: O_6  and  C_29
REMARK    2  A    between atoms: O_6  and  C_35
REMARK    3  A    between atoms: O_7  and  C_30
REMARK    4  A    between atoms: O_7  and  C_36
REMARK    5  A    between atoms: N_10  and  C_26
REMARK    6  A    between atoms: C_18  and  C_23
REMARK                            x       y       z     vdW  Elec       q    Type
REMARK                         _______ _______ _______ _____ _____    ______ ____
ROOT
ATOM      4  O   UNL     1      -3.194   3.698  27.326  0.00  0.00    -0.268 OA
ATOM      5  O   UNL     1      -5.180   0.621  24.064  0.00  0.00    -0.252 OA
ATOM      8  N   UNL     1      -2.304   3.351  25.188  0.00  0.00    -0.311 N 
ATOM      9  N   UNL     1      -3.489   1.624  22.842  0.00  0.00    -0.284 N 
ATOM     10  N   UNL     1      -3.103  -0.404  23.986  0.00  0.00    -0.266 N 
ATOM     11  C   UNL     1      -3.556   4.097  23.081  0.00  0.00    +0.027 C 
ATOM     12  C   UNL     1      -1.392   2.941  22.877  0.00  0.00    +0.054 C 
ATOM     13  C   UNL     1      -2.167   4.194  22.467  0.00  0.00    +0.018 C 
ATOM     14  C   UNL     1      -3.408   4.125  24.603  0.00  0.00    +0.130 C 
ATOM     15  C   UNL     1      -4.282   2.830  22.593  0.00  0.00    +0.114 C 
ATOM     16  C   UNL     1      -2.115   1.694  22.319  0.00  0.00    +0.119 C 
ATOM     17  C   UNL     1      -1.255   2.835  24.401  0.00  0.00    +0.034 A 
ATOM     18  C   UNL     1      -0.193   2.234  24.999  0.00  0.00    +0.002 A 
ATOM     19  C   UNL     1      -2.313   3.253  26.591  0.00  0.00    +0.252 A 
ATOM     20  C   UNL     1      -4.012   0.604  23.668  0.00  0.00    +0.307 C 
ATOM     21  C   UNL     1      -0.171   2.112  26.445  0.00  0.00    +0.015 A 
ATOM     22  C   UNL     1      -1.158   2.569  27.214  0.00  0.00    +0.071 A 
ATOM     37  H   UNL     1      -2.350  -0.604  23.337  0.00  0.00    +0.156 HD
ENDROOT
BRANCH  18  23
ATOM     23  C   UNL     1       0.931   1.674  24.217  0.00  0.00    -0.016 A 
ATOM     24  C   UNL     1       0.925   0.326  23.868  0.00  0.00    +0.012 A 
ATOM     25  C   UNL     1       1.986   2.498  23.836  0.00  0.00    +0.012 A 
ATOM     27  C   UNL     1       1.986  -0.202  23.131  0.00  0.00    +0.046 A 
ATOM     28  C   UNL     1       3.046   1.969  23.099  0.00  0.00    +0.046 A 
ATOM     29  C   UNL     1       3.045   0.620  22.747  0.00  0.00    +0.130 A 
BRANCH  29   6
ATOM      6  O   UNL     1       4.079   0.103  22.028  0.00  0.00    -0.406 OA
BRANCH   6  35
ATOM      1  F   UNL     1       5.616   0.846  23.504  0.00  0.00    -0.133 F 
ATOM      2  F   UNL     1       5.143  -1.288  23.500  0.00  0.00    -0.133 F 
ATOM      3  F   UNL     1       6.304  -0.397  21.844  0.00  0.00    -0.133 F 
ATOM     35  C   UNL     1       5.290  -0.201  22.712  0.00  0.00    +0.575 C 
ENDBRANCH   6  35
ENDBRANCH  29   6
ENDBRANCH  18  23
BRANCH  10  26
ATOM     26  C   UNL     1      -3.120  -1.240  25.127  0.00  0.00    +0.077 A 
ATOM     30  C   UNL     1      -3.318  -2.613  24.995  0.00  0.00    +0.141 A 
ATOM     31  C   UNL     1      -2.936  -0.675  26.387  0.00  0.00    +0.027 A 
ATOM     32  C   UNL     1      -3.331  -3.424  26.130  0.00  0.00    +0.047 A 
ATOM     33  C   UNL     1      -2.950  -1.487  27.522  0.00  0.00    +0.002 A 
ATOM     34  C   UNL     1      -3.148  -2.861  27.393  0.00  0.00    +0.004 A 
BRANCH  30   7
ATOM      7  O   UNL     1      -3.500  -3.183  23.770  0.00  0.00    -0.493 OA
ATOM     36  C   UNL     1      -4.775  -3.005  23.158  0.00  0.00    +0.277 C 
ENDBRANCH  30   7
ENDBRANCH  10  26
TORSDOF 5
ENDMDL
MODEL 3
REMARK VINA RESULT:      14.6      3.333      4.886
REMARK  Name = 7144200
REMARK  6 active torsions:
REMARK  status: ('A' for Active; 'I' for Inactive)
REMARK    1  A    between atoms: O_6  and  C_29
REMARK    2  A    between atoms: O_6  and  C_35
REMARK    3  A    between atoms: O_7  and  C_30
REMARK    4  A    between atoms: O_7  and  C_36
REMARK    5  A    between atoms: N_10  and  C_26
REMARK    6  A    between atoms: C_18  and  C_23
REMARK                            x       y       z     vdW  Elec       q    Type
REMARK                         _______ _______ _______ _____ _____    ______ ____
ROOT
ATOM      4  O   UNL     1      -1.941   1.708  21.218  0.00  0.00    -0.268 OA
ATOM      5  O   UNL     1      -4.782  -0.833  24.303  0.00  0.00    -0.252 OA
ATOM      8  N   UNL     1      -1.136   0.729  23.187  0.00  0.00    -0.311 N 
ATOM      9  N   UNL     1      -2.673  -1.124  25.211  0.00  0.00    -0.284 N 
ATOM     10  N   UNL     1      -4.063   0.636  25.944  0.00  0.00    -0.266 N 
ATOM     11  C   UNL     1      -1.037  -1.815  23.472  0.00  0.00    +0.027 C 
ATOM     12  C   UNL     1      -0.324  -0.346  25.314  0.00  0.00    +0.054 C 
ATOM     13  C   UNL     1       0.107  -1.517  24.431  0.00  0.00    +0.018 C 
ATOM     14  C   UNL     1      -1.228  -0.599  22.565  0.00  0.00    +0.130 C 
ATOM     15  C   UNL     1      -2.320  -2.168  24.246  0.00  0.00    +0.114 C 
ATOM     16  C   UNL     1      -1.577  -0.757  26.121  0.00  0.00    +0.119 C 
ATOM     17  C   UNL     1      -0.618   0.910  24.486  0.00  0.00    +0.034 A 
ATOM     18  C   UNL     1      -0.435   2.166  24.971  0.00  0.00    +0.002 A 
ATOM     19  C   UNL     1      -1.499   1.809  22.363  0.00  0.00    +0.252 A 
ATOM     20  C   UNL     1      -3.914  -0.459  25.096  0.00  0.00    +0.307 C 
ATOM     21  C   UNL     1      -0.802   3.304  24.150  0.00  0.00    +0.015 A 
ATOM     22  C   UNL     1      -1.315   3.164  22.927  0.00  0.00    +0.071 A 
ATOM     37  H   UNL     1      -3.556   0.646  26.821  0.00  0.00    +0.156 HD
ENDROOT
BRANCH  18  23
ATOM     23  C   UNL     1       0.102   2.409  26.328  0.00  0.00    -0.016 A 
ATOM     24  C   UNL     1      -0.733   2.281  27.435  0.00  0.00    +0.012 A 
ATOM     25  C   UNL     1       1.439   2.763  26.490  0.00  0.00    +0.012 A 
ATOM     27  C   UNL     1      -0.226   2.510  28.714  0.00  0.00    +0.046 A 
ATOM     28  C   UNL     1       1.944   2.992  27.769  0.00  0.00    +0.046 A 
ATOM     29  C   UNL     1       1.112   2.865  28.881  0.00  0.00    +0.130 A 
BRANCH  29   6
ATOM      6  O   UNL     1       1.605   3.089  30.130  0.00  0.00    -0.406 OA
BRANCH   6  35
ATOM      1  F   UNL     1       1.747   0.839  30.242  0.00  0.00    -0.133 F 
ATOM      2  F   UNL     1       3.027   2.017  31.565  0.00  0.00    -0.133 F 
ATOM      3  F   UNL     1       0.851   1.898  31.931  0.00  0.00    -0.133 F 
ATOM     35  C   UNL     1       1.810   1.968  30.984  0.00  0.00    +0.575 C 
ENDBRANCH   6  35
ENDBRANCH  29   6
ENDBRANCH  18  23
BRANCH  10  26
ATOM     26  C   UNL     1      -4.895   1.764  25.746  0.00  0.00    +0.077 A 
ATOM     30  C   UNL     1      -4.392   3.052  25.913  0.00  0.00    +0.141 A 
ATOM     31  C   UNL     1      -6.225   1.571  25.380  0.00  0.00    +0.027 A 
ATOM     32  C   UNL     1      -5.224   4.153  25.712  0.00  0.00    +0.047 A 
ATOM     33  C   UNL     1      -7.058   2.673  25.180  0.00  0.00    +0.002 A 
ATOM     34  C   UNL     1      -6.557   3.964  25.346  0.00  0.00    +0.004 A 
BRANCH  30   7
ATOM      7  O   UNL     1      -3.093   3.259  26.271  0.00  0.00    -0.493 OA
ATOM     36  C   UNL     1      -2.647   4.611  26.333  0.00  0.00    +0.277 C 
ENDBRANCH  30   7
ENDBRANCH  10  26
TORSDOF 5
ENDMDL
