MODEL 1
REMARK VINA RESULT:      -5.9      0.000      0.000
REMARK  Name = 75536820
REMARK  6 active torsions:
REMARK  status: ('A' for Active; 'I' for Inactive)
REMARK    1  A    between atoms: O_3  and  C_8
REMARK    2  A    between atoms: N_5  and  C_7
REMARK    3  A    between atoms: N_5  and  C_10
REMARK    4  A    between atoms: N_6  and  C_14
REMARK    5  A    between atoms: C_9  and  C_14
REMARK    6  A    between atoms: C_15  and  C_16
REMARK                            x       y       z     vdW  Elec       q    Type
REMARK                         _______ _______ _______ _____ _____    ______ ____
ROOT
ATOM      1  O   UNL     1      -0.392   4.084  23.965  0.00  0.00    -0.371 OA
ATOM      7  C   UNL     1      -1.729   4.118  25.928  0.00  0.00    +0.111 C 
ATOM      8  C   UNL     1      -1.013   2.783  25.840  0.00  0.00    +0.164 C 
ATOM      9  C   UNL     1       0.133   3.126  24.898  0.00  0.00    +0.165 C 
ATOM     11  C   UNL     1      -1.620   4.613  24.494  0.00  0.00    +0.181 C 
ENDROOT
BRANCH   8   3
ATOM      3  O   UNL     1      -0.548   2.330  27.095  0.00  0.00    -0.388 OA
ATOM     23  H   UNL     1      -0.270   1.403  27.002  0.00  0.00    +0.210 HD
ENDBRANCH   8   3
BRANCH   7   5
ATOM      5  N   UNL     1      -3.105   4.015  26.387  0.00  0.00    -0.302 NA
ATOM     22  H   UNL     1      -3.163   3.365  27.170  0.00  0.00    +0.123 HD
BRANCH   5  10
ATOM      2  O   UNL     1      -5.675   2.589  25.958  0.00  0.00    -0.377 OA
ATOM     10  C   UNL     1      -3.977   3.674  25.256  0.00  0.00    +0.106 C 
ATOM     12  C   UNL     1      -4.400   2.210  25.378  0.00  0.00    +0.180 C 
ATOM     13  C   UNL     1      -5.428   3.980  25.630  0.00  0.00    +0.180 C 
ENDBRANCH   5  10
ENDBRANCH   7   5
BRANCH   9  14
ATOM     14  C   UNL     1       0.676   1.923  24.150  0.00  0.00    +0.138 C 
BRANCH  14   6
ATOM      4  O   UNL     1      -1.884   1.504  22.919  0.00  0.00    -0.270 OA
ATOM      6  N   UNL     1      -0.175   0.780  24.312  0.00  0.00    -0.309 N 
ATOM     15  C   UNL     1      -1.406   0.660  23.673  0.00  0.00    +0.244 C 
ATOM     24  H   UNL     1       0.129   0.078  24.977  0.00  0.00    +0.149 HD
BRANCH  15  16
ATOM     16  C   UNL     1      -2.179  -0.574  23.966  0.00  0.00    +0.037 A 
ATOM     17  C   UNL     1      -1.534  -1.694  24.491  0.00  0.00    +0.013 A 
ATOM     18  C   UNL     1      -3.551  -0.612  23.719  0.00  0.00    +0.013 A 
ATOM     19  C   UNL     1      -2.261  -2.851  24.768  0.00  0.00    +0.001 A 
ATOM     20  C   UNL     1      -4.278  -1.769  23.996  0.00  0.00    +0.001 A 
ATOM     21  C   UNL     1      -3.633  -2.890  24.521  0.00  0.00    +0.000 A 
ENDBRANCH  15  16
ENDBRANCH  14   6
ENDBRANCH   9  14
TORSDOF 6
ENDMDL
MODEL 2
REMARK VINA RESULT:      -5.2      1.603      3.867
REMARK  Name = 75536820
REMARK  6 active torsions:
REMARK  status: ('A' for Active; 'I' for Inactive)
REMARK    1  A    between atoms: O_3  and  C_8
REMARK    2  A    between atoms: N_5  and  C_7
REMARK    3  A    between atoms: N_5  and  C_10
REMARK    4  A    between atoms: N_6  and  C_14
REMARK    5  A    between atoms: C_9  and  C_14
REMARK    6  A    between atoms: C_15  and  C_16
REMARK                            x       y       z     vdW  Elec       q    Type
REMARK                         _______ _______ _______ _____ _____    ______ ____
ROOT
ATOM      1  O   UNL     1      -4.620   3.496  26.750  0.00  0.00    -0.371 OA
ATOM      7  C   UNL     1      -2.805   4.454  25.553  0.00  0.00    +0.111 C 
ATOM      8  C   UNL     1      -3.666   3.655  24.592  0.00  0.00    +0.164 C 
ATOM      9  C   UNL     1      -4.978   3.585  25.361  0.00  0.00    +0.165 C 
ATOM     11  C   UNL     1      -3.242   3.883  26.894  0.00  0.00    +0.181 C 
ENDROOT
BRANCH   8   3
ATOM      3  O   UNL     1      -3.821   4.292  23.340  0.00  0.00    -0.388 OA
ATOM     23  H   UNL     1      -2.937   4.454  22.967  0.00  0.00    +0.210 HD
ENDBRANCH   8   3
BRANCH   7   5
ATOM      5  N   UNL     1      -1.378   4.311  25.317  0.00  0.00    -0.302 NA
ATOM     22  H   UNL     1      -1.071   4.987  24.619  0.00  0.00    +0.123 HD
BRANCH   5  10
ATOM      2  O   UNL     1       0.908   2.437  25.616  0.00  0.00    -0.377 OA
ATOM     10  C   UNL     1      -1.073   2.915  24.979  0.00  0.00    +0.106 C 
ATOM     12  C   UNL     1       0.321   2.849  24.354  0.00  0.00    +0.180 C 
ATOM     13  C   UNL     1      -0.413   2.239  26.182  0.00  0.00    +0.180 C 
ENDBRANCH   5  10
ENDBRANCH   7   5
BRANCH   9  14
ATOM     14  C   UNL     1      -5.838   2.395  24.975  0.00  0.00    +0.138 C 
BRANCH  14   6
ATOM      4  O   UNL     1      -3.821   1.495  23.140  0.00  0.00    -0.270 OA
ATOM      6  N   UNL     1      -5.097   1.169  25.051  0.00  0.00    -0.309 N 
ATOM     15  C   UNL     1      -4.133   0.812  24.113  0.00  0.00    +0.244 C 
ATOM     24  H   UNL     1      -5.356   0.527  25.791  0.00  0.00    +0.149 HD
BRANCH  15  16
ATOM     16  C   UNL     1      -3.474  -0.503  24.318  0.00  0.00    +0.037 A 
ATOM     17  C   UNL     1      -4.197  -1.682  24.133  0.00  0.00    +0.013 A 
ATOM     18  C   UNL     1      -2.132  -0.560  24.692  0.00  0.00    +0.013 A 
ATOM     19  C   UNL     1      -3.576  -2.917  24.325  0.00  0.00    +0.001 A 
ATOM     20  C   UNL     1      -1.512  -1.794  24.882  0.00  0.00    +0.001 A 
ATOM     21  C   UNL     1      -2.234  -2.973  24.699  0.00  0.00    +0.000 A 
ENDBRANCH  15  16
ENDBRANCH  14   6
ENDBRANCH   9  14
TORSDOF 6
ENDMDL
MODEL 3
REMARK VINA RESULT:      -4.9      2.033      4.956
REMARK  Name = 75536820
REMARK  6 active torsions:
REMARK  status: ('A' for Active; 'I' for Inactive)
REMARK    1  A    between atoms: O_3  and  C_8
REMARK    2  A    between atoms: N_5  and  C_7
REMARK    3  A    between atoms: N_5  and  C_10
REMARK    4  A    between atoms: N_6  and  C_14
REMARK    5  A    between atoms: C_9  and  C_14
REMARK    6  A    between atoms: C_15  and  C_16
REMARK                            x       y       z     vdW  Elec       q    Type
REMARK                         _______ _______ _______ _____ _____    ______ ____
ROOT
ATOM      1  O   UNL     1      -1.378  -2.059  23.531  0.00  0.00    -0.371 OA
ATOM      7  C   UNL     1       0.059  -0.536  24.653  0.00  0.00    +0.111 C 
ATOM      8  C   UNL     1      -1.208  -0.716  25.470  0.00  0.00    +0.164 C 
ATOM      9  C   UNL     1      -1.722  -2.042  24.926  0.00  0.00    +0.165 C 
ATOM     11  C   UNL     1      -0.387  -1.044  23.291  0.00  0.00    +0.181 C 
ENDROOT
BRANCH   8   3
ATOM      3  O   UNL     1      -0.956  -0.777  26.859  0.00  0.00    -0.388 OA
ATOM     23  H   UNL     1      -0.511   0.046  27.126  0.00  0.00    +0.210 HD
ENDBRANCH   8   3
BRANCH   7   5
ATOM      5  N   UNL     1       0.539   0.836  24.614  0.00  0.00    -0.302 NA
ATOM     22  H   UNL     1       1.344   0.941  25.231  0.00  0.00    +0.123 HD
BRANCH   5  10
ATOM      2  O   UNL     1       0.190   3.728  25.194  0.00  0.00    -0.377 OA
ATOM     10  C   UNL     1      -0.568   1.753  24.907  0.00  0.00    +0.106 C 
ATOM     12  C   UNL     1      -0.177   2.644  26.087  0.00  0.00    +0.180 C 
ATOM     13  C   UNL     1      -0.403   3.024  24.072  0.00  0.00    +0.180 C 
ENDBRANCH   5  10
ENDBRANCH   7   5
BRANCH   9  14
ATOM     14  C   UNL     1      -3.221  -2.216  25.087  0.00  0.00    +0.138 C 
BRANCH  14   6
ATOM      4  O   UNL     1      -3.704  -0.072  23.239  0.00  0.00    -0.270 OA
ATOM      6  N   UNL     1      -3.864  -0.967  25.375  0.00  0.00    -0.309 N 
ATOM     15  C   UNL     1      -4.057   0.020  24.412  0.00  0.00    +0.244 C 
ATOM     24  H   UNL     1      -4.116  -0.797  26.342  0.00  0.00    +0.149 HD
BRANCH  15  16
ATOM     16  C   UNL     1      -4.715   1.269  24.876  0.00  0.00    +0.037 A 
ATOM     17  C   UNL     1      -4.204   2.510  24.496  0.00  0.00    +0.013 A 
ATOM     18  C   UNL     1      -5.846   1.200  25.688  0.00  0.00    +0.013 A 
ATOM     19  C   UNL     1      -4.823   3.681  24.930  0.00  0.00    +0.001 A 
ATOM     20  C   UNL     1      -6.466   2.371  26.122  0.00  0.00    +0.001 A 
ATOM     21  C   UNL     1      -5.955   3.613  25.743  0.00  0.00    +0.000 A 
ENDBRANCH  15  16
ENDBRANCH  14   6
ENDBRANCH   9  14
TORSDOF 6
ENDMDL
MODEL 4
REMARK VINA RESULT:      -4.6      1.876      5.026
REMARK  Name = 75536820
REMARK  6 active torsions:
REMARK  status: ('A' for Active; 'I' for Inactive)
REMARK    1  A    between atoms: O_3  and  C_8
REMARK    2  A    between atoms: N_5  and  C_7
REMARK    3  A    between atoms: N_5  and  C_10
REMARK    4  A    between atoms: N_6  and  C_14
REMARK    5  A    between atoms: C_9  and  C_14
REMARK    6  A    between atoms: C_15  and  C_16
REMARK                            x       y       z     vdW  Elec       q    Type
REMARK                         _______ _______ _______ _____ _____    ______ ____
ROOT
ATOM      1  O   UNL     1      -0.407   0.786  26.060  0.00  0.00    -0.371 OA
ATOM      7  C   UNL     1      -0.452  -1.182  24.730  0.00  0.00    +0.111 C 
ATOM      8  C   UNL     1      -0.428   0.032  23.819  0.00  0.00    +0.164 C 
ATOM      9  C   UNL     1       0.122   1.095  24.760  0.00  0.00    +0.165 C 
ATOM     11  C   UNL     1      -0.906  -0.563  26.043  0.00  0.00    +0.181 C 
ENDROOT
BRANCH   8   3
ATOM      3  O   UNL     1       0.401  -0.152  22.688  0.00  0.00    -0.388 OA
ATOM     23  H   UNL     1       0.935   0.652  22.566  0.00  0.00    +0.210 HD
ENDBRANCH   8   3
BRANCH   7   5
ATOM      5  N   UNL     1      -1.335  -2.241  24.269  0.00  0.00    -0.302 NA
ATOM     22  H   UNL     1      -1.403  -2.220  23.252  0.00  0.00    +0.123 HD
BRANCH   5  10
ATOM      2  O   UNL     1      -4.211  -2.542  23.590  0.00  0.00    -0.377 OA
ATOM     10  C   UNL     1      -2.625  -2.142  24.962  0.00  0.00    +0.106 C 
ATOM     12  C   UNL     1      -3.592  -1.332  24.098  0.00  0.00    +0.180 C 
ATOM     13  C   UNL     1      -3.498  -3.336  24.572  0.00  0.00    +0.180 C 
ENDBRANCH   5  10
ENDBRANCH   7   5
BRANCH   9  14
ATOM     14  C   UNL     1      -0.273   2.506  24.367  0.00  0.00    +0.138 C 
BRANCH  14   6
ATOM      4  O   UNL     1      -2.701   1.942  22.942  0.00  0.00    -0.270 OA
ATOM      6  N   UNL     1      -1.607   2.813  24.794  0.00  0.00    -0.309 N 
ATOM     15  C   UNL     1      -2.732   2.501  24.035  0.00  0.00    +0.244 C 
ATOM     24  H   UNL     1      -1.699   3.340  25.655  0.00  0.00    +0.149 HD
BRANCH  15  16
ATOM     16  C   UNL     1      -4.041   2.910  24.604  0.00  0.00    +0.037 A 
ATOM     17  C   UNL     1      -5.045   1.960  24.798  0.00  0.00    +0.013 A 
ATOM     18  C   UNL     1      -4.267   4.242  24.948  0.00  0.00    +0.013 A 
ATOM     19  C   UNL     1      -6.274   2.345  25.334  0.00  0.00    +0.001 A 
ATOM     20  C   UNL     1      -5.496   4.626  25.484  0.00  0.00    +0.001 A 
ATOM     21  C   UNL     1      -6.500   3.677  25.677  0.00  0.00    +0.000 A 
ENDBRANCH  15  16
ENDBRANCH  14   6
ENDBRANCH   9  14
TORSDOF 6
ENDMDL
MODEL 5
REMARK VINA RESULT:      -4.6     14.701     17.299
REMARK  Name = 75536820
REMARK  6 active torsions:
REMARK  status: ('A' for Active; 'I' for Inactive)
REMARK    1  A    between atoms: O_3  and  C_8
REMARK    2  A    between atoms: N_5  and  C_7
REMARK    3  A    between atoms: N_5  and  C_10
REMARK    4  A    between atoms: N_6  and  C_14
REMARK    5  A    between atoms: C_9  and  C_14
REMARK    6  A    between atoms: C_15  and  C_16
REMARK                            x       y       z     vdW  Elec       q    Type
REMARK                         _______ _______ _______ _____ _____    ______ ____
ROOT
ATOM      1  O   UNL     1      -3.428 -10.193  11.192  0.00  0.00    -0.371 OA
ATOM      7  C   UNL     1      -5.635  -9.959  10.345  0.00  0.00    +0.111 C 
ATOM      8  C   UNL     1      -5.706 -10.348  11.811  0.00  0.00    +0.164 C 
ATOM      9  C   UNL     1      -4.320  -9.938  12.290  0.00  0.00    +0.165 C 
ATOM     11  C   UNL     1      -4.210 -10.359   9.996  0.00  0.00    +0.181 C 
ENDROOT
BRANCH   8   3
ATOM      3  O   UNL     1      -6.728  -9.664  12.507  0.00  0.00    -0.388 OA
ATOM     23  H   UNL     1      -6.451  -8.740  12.630  0.00  0.00    +0.210 HD
ENDBRANCH   8   3
BRANCH   7   5
ATOM      5  N   UNL     1      -6.627 -10.623   9.516  0.00  0.00    -0.302 NA
ATOM     22  H   UNL     1      -6.187 -11.359   8.967  0.00  0.00    +0.123 HD
BRANCH   5  10
ATOM      2  O   UNL     1      -8.451  -8.329  10.006  0.00  0.00    -0.377 OA
ATOM     10  C   UNL     1      -7.348  -9.624   8.716  0.00  0.00    +0.106 C 
ATOM     12  C   UNL     1      -8.782  -9.513   9.235  0.00  0.00    +0.180 C 
ATOM     13  C   UNL     1      -7.161  -8.244   9.348  0.00  0.00    +0.180 C 
ENDBRANCH   5  10
ENDBRANCH   7   5
BRANCH   9  14
ATOM     14  C   UNL     1      -3.858 -10.705  13.516  0.00  0.00    +0.138 C 
BRANCH  14   6
ATOM      4  O   UNL     1      -3.242 -10.395  16.303  0.00  0.00    -0.270 OA
ATOM      6  N   UNL     1      -4.798 -10.585  14.592  0.00  0.00    -0.309 N 
ATOM     15  C   UNL     1      -4.408 -10.438  15.920  0.00  0.00    +0.244 C 
ATOM     24  H   UNL     1      -5.778 -10.684  14.352  0.00  0.00    +0.149 HD
BRANCH  15  16
ATOM     16  C   UNL     1      -5.504 -10.354  16.920  0.00  0.00    +0.037 A 
ATOM     17  C   UNL     1      -5.287 -10.780  18.231  0.00  0.00    +0.013 A 
ATOM     18  C   UNL     1      -6.749  -9.847  16.549  0.00  0.00    +0.013 A 
ATOM     19  C   UNL     1      -6.316 -10.699  19.169  0.00  0.00    +0.001 A 
ATOM     20  C   UNL     1      -7.777  -9.766  17.487  0.00  0.00    +0.001 A 
ATOM     21  C   UNL     1      -7.561 -10.193  18.798  0.00  0.00    +0.000 A 
ENDBRANCH  15  16
ENDBRANCH  14   6
ENDBRANCH   9  14
TORSDOF 6
ENDMDL
MODEL 6
REMARK VINA RESULT:      -4.4      3.003      4.820
REMARK  Name = 75536820
REMARK  6 active torsions:
REMARK  status: ('A' for Active; 'I' for Inactive)
REMARK    1  A    between atoms: O_3  and  C_8
REMARK    2  A    between atoms: N_5  and  C_7
REMARK    3  A    between atoms: N_5  and  C_10
REMARK    4  A    between atoms: N_6  and  C_14
REMARK    5  A    between atoms: C_9  and  C_14
REMARK    6  A    between atoms: C_15  and  C_16
REMARK                            x       y       z     vdW  Elec       q    Type
REMARK                         _______ _______ _______ _____ _____    ______ ____
ROOT
ATOM      1  O   UNL     1      -0.674   1.664  24.444  0.00  0.00    -0.371 OA
ATOM      7  C   UNL     1      -2.997   2.159  24.474  0.00  0.00    +0.111 C 
ATOM      8  C   UNL     1      -2.801   0.727  24.010  0.00  0.00    +0.164 C 
ATOM      9  C   UNL     1      -1.407   0.432  24.545  0.00  0.00    +0.165 C 
ATOM     11  C   UNL     1      -1.609   2.739  24.252  0.00  0.00    +0.181 C 
ENDROOT
BRANCH   8   3
ATOM      3  O   UNL     1      -3.769  -0.156  24.541  0.00  0.00    -0.388 OA
ATOM     23  H   UNL     1      -3.888  -0.892  23.916  0.00  0.00    +0.210 HD
ENDBRANCH   8   3
BRANCH   7   5
ATOM      5  N   UNL     1      -4.032   2.874  23.746  0.00  0.00    -0.302 NA
ATOM     22  H   UNL     1      -3.617   3.625  23.197  0.00  0.00    +0.123 HD
BRANCH   5  10
ATOM      2  O   UNL     1      -5.554   1.730  26.026  0.00  0.00    -0.377 OA
ATOM     10  C   UNL     1      -5.075   3.316  24.680  0.00  0.00    +0.106 C 
ATOM     12  C   UNL     1      -6.138   2.222  24.792  0.00  0.00    +0.180 C 
ATOM     13  C   UNL     1      -4.690   2.893  26.099  0.00  0.00    +0.180 C 
ENDBRANCH   5  10
ENDBRANCH   7   5
BRANCH   9  14
ATOM     14  C   UNL     1      -0.687  -0.659  23.776  0.00  0.00    +0.138 C 
BRANCH  14   6
ATOM      4  O   UNL     1       1.206  -0.282  21.650  0.00  0.00    -0.270 OA
ATOM      6  N   UNL     1       0.737  -0.539  23.908  0.00  0.00    -0.309 N 
ATOM     15  C   UNL     1       1.581  -0.357  22.817  0.00  0.00    +0.244 C 
ATOM     24  H   UNL     1       1.119  -0.664  24.838  0.00  0.00    +0.149 HD
BRANCH  15  16
ATOM     16  C   UNL     1       3.034  -0.278  23.118  0.00  0.00    +0.037 A 
ATOM     17  C   UNL     1       3.742   0.891  22.835  0.00  0.00    +0.013 A 
ATOM     18  C   UNL     1       3.689  -1.369  23.687  0.00  0.00    +0.013 A 
ATOM     19  C   UNL     1       5.106   0.965  23.120  0.00  0.00    +0.001 A 
ATOM     20  C   UNL     1       5.052  -1.294  23.972  0.00  0.00    +0.001 A 
ATOM     21  C   UNL     1       5.761  -0.127  23.688  0.00  0.00    +0.000 A 
ENDBRANCH  15  16
ENDBRANCH  14   6
ENDBRANCH   9  14
TORSDOF 6
ENDMDL
MODEL 7
REMARK VINA RESULT:      -4.3      2.195      5.875
REMARK  Name = 75536820
REMARK  6 active torsions:
REMARK  status: ('A' for Active; 'I' for Inactive)
REMARK    1  A    between atoms: O_3  and  C_8
REMARK    2  A    between atoms: N_5  and  C_7
REMARK    3  A    between atoms: N_5  and  C_10
REMARK    4  A    between atoms: N_6  and  C_14
REMARK    5  A    between atoms: C_9  and  C_14
REMARK    6  A    between atoms: C_15  and  C_16
REMARK                            x       y       z     vdW  Elec       q    Type
REMARK                         _______ _______ _______ _____ _____    ______ ____
ROOT
ATOM      1  O   UNL     1      -2.473  -3.057  23.808  0.00  0.00    -0.371 OA
ATOM      7  C   UNL     1      -0.721  -1.950  24.968  0.00  0.00    +0.111 C 
ATOM      8  C   UNL     1      -2.020  -1.202  25.203  0.00  0.00    +0.164 C 
ATOM      9  C   UNL     1      -3.044  -2.280  24.874  0.00  0.00    +0.165 C 
ATOM     11  C   UNL     1      -1.065  -2.771  23.736  0.00  0.00    +0.181 C 
ENDROOT
BRANCH   8   3
ATOM      3  O   UNL     1      -2.151  -0.739  26.532  0.00  0.00    -0.388 OA
ATOM     23  H   UNL     1      -1.539   0.007  26.658  0.00  0.00    +0.210 HD
ENDBRANCH   8   3
BRANCH   7   5
ATOM      5  N   UNL     1       0.426  -1.080  24.765  0.00  0.00    -0.302 NA
ATOM     22  H   UNL     1       0.689  -0.639  25.646  0.00  0.00    +0.123 HD
BRANCH   5  10
ATOM      2  O   UNL     1       1.589   1.433  23.689  0.00  0.00    -0.377 OA
ATOM     10  C   UNL     1       0.140  -0.134  23.680  0.00  0.00    +0.106 C 
ATOM     12  C   UNL     1       0.246   1.292  24.222  0.00  0.00    +0.180 C 
ATOM     13  C   UNL     1       1.440   0.197  22.945  0.00  0.00    +0.180 C 
ENDBRANCH   5  10
ENDBRANCH   7   5
BRANCH   9  14
ATOM     14  C   UNL     1      -4.386  -1.721  24.441  0.00  0.00    +0.138 C 
BRANCH  14   6
ATOM      4  O   UNL     1      -3.365   0.534  22.986  0.00  0.00    -0.270 OA
ATOM      6  N   UNL     1      -4.518  -0.339  24.801  0.00  0.00    -0.309 N 
ATOM     15  C   UNL     1      -3.988   0.693  24.033  0.00  0.00    +0.244 C 
ATOM     24  H   UNL     1      -4.960  -0.142  25.692  0.00  0.00    +0.149 HD
BRANCH  15  16
ATOM     16  C   UNL     1      -4.187   2.069  24.557  0.00  0.00    +0.037 A 
ATOM     17  C   UNL     1      -5.430   2.449  25.066  0.00  0.00    +0.013 A 
ATOM     18  C   UNL     1      -3.132   2.980  24.542  0.00  0.00    +0.013 A 
ATOM     19  C   UNL     1      -5.615   3.740  25.560  0.00  0.00    +0.001 A 
ATOM     20  C   UNL     1      -3.318   4.271  25.036  0.00  0.00    +0.001 A 
ATOM     21  C   UNL     1      -4.560   4.651  25.545  0.00  0.00    +0.000 A 
ENDBRANCH  15  16
ENDBRANCH  14   6
ENDBRANCH   9  14
TORSDOF 6
ENDMDL
MODEL 8
REMARK VINA RESULT:      -3.5     15.266     18.018
REMARK  Name = 75536820
REMARK  6 active torsions:
REMARK  status: ('A' for Active; 'I' for Inactive)
REMARK    1  A    between atoms: O_3  and  C_8
REMARK    2  A    between atoms: N_5  and  C_7
REMARK    3  A    between atoms: N_5  and  C_10
REMARK    4  A    between atoms: N_6  and  C_14
REMARK    5  A    between atoms: C_9  and  C_14
REMARK    6  A    between atoms: C_15  and  C_16
REMARK                            x       y       z     vdW  Elec       q    Type
REMARK                         _______ _______ _______ _____ _____    ______ ____
ROOT
ATOM      1  O   UNL     1      15.987   9.084  21.441  0.00  0.00    -0.371 OA
ATOM      7  C   UNL     1      14.440   7.392  22.064  0.00  0.00    +0.111 C 
ATOM      8  C   UNL     1      14.537   7.442  20.550  0.00  0.00    +0.164 C 
ATOM      9  C   UNL     1      15.878   8.139  20.364  0.00  0.00    +0.165 C 
ATOM     11  C   UNL     1      15.016   8.747  22.447  0.00  0.00    +0.181 C 
ENDROOT
BRANCH   8   3
ATOM      3  O   UNL     1      14.522   6.158  19.960  0.00  0.00    -0.388 OA
ATOM     23  H   UNL     1      13.906   6.174  19.208  0.00  0.00    +0.210 HD
ENDBRANCH   8   3
BRANCH   7   5
ATOM      5  N   UNL     1      13.087   7.194  22.557  0.00  0.00    -0.302 NA
ATOM     22  H   UNL     1      12.928   6.205  22.749  0.00  0.00    +0.123 HD
BRANCH   5  10
ATOM      2  O   UNL     1      10.137   7.339  22.240  0.00  0.00    -0.377 OA
ATOM     10  C   UNL     1      12.129   7.786  21.616  0.00  0.00    +0.106 C 
ATOM     12  C   UNL     1      11.055   6.751  21.282  0.00  0.00    +0.180 C 
ATOM     13  C   UNL     1      11.016   8.481  22.403  0.00  0.00    +0.180 C 
ENDBRANCH   5  10
ENDBRANCH   7   5
BRANCH   9  14
ATOM     14  C   UNL     1      16.001   8.859  19.034  0.00  0.00    +0.138 C 
BRANCH  14   6
ATOM      4  O   UNL     1      14.728   7.010  17.244  0.00  0.00    -0.270 OA
ATOM      6  N   UNL     1      14.721   9.019  18.406  0.00  0.00    -0.309 N 
ATOM     15  C   UNL     1      14.179   8.066  17.548  0.00  0.00    +0.244 C 
ATOM     24  H   UNL     1      14.247   9.902  18.559  0.00  0.00    +0.149 HD
BRANCH  15  16
ATOM     16  C   UNL     1      12.856   8.393  16.957  0.00  0.00    +0.037 A 
ATOM     17  C   UNL     1      12.767   8.788  15.622  0.00  0.00    +0.013 A 
ATOM     18  C   UNL     1      11.703   8.302  17.736  0.00  0.00    +0.013 A 
ATOM     19  C   UNL     1      11.523   9.094  15.068  0.00  0.00    +0.001 A 
ATOM     20  C   UNL     1      10.461   8.607  17.181  0.00  0.00    +0.001 A 
ATOM     21  C   UNL     1      10.370   9.003  15.847  0.00  0.00    +0.000 A 
ENDBRANCH  15  16
ENDBRANCH  14   6
ENDBRANCH   9  14
TORSDOF 6
ENDMDL
MODEL 9
REMARK VINA RESULT:      -3.4     14.367     16.649
REMARK  Name = 75536820
REMARK  6 active torsions:
REMARK  status: ('A' for Active; 'I' for Inactive)
REMARK    1  A    between atoms: O_3  and  C_8
REMARK    2  A    between atoms: N_5  and  C_7
REMARK    3  A    between atoms: N_5  and  C_10
REMARK    4  A    between atoms: N_6  and  C_14
REMARK    5  A    between atoms: C_9  and  C_14
REMARK    6  A    between atoms: C_15  and  C_16
REMARK                            x       y       z     vdW  Elec       q    Type
REMARK                         _______ _______ _______ _____ _____    ______ ____
ROOT
ATOM      1  O   UNL     1      -1.803  -9.636  13.390  0.00  0.00    -0.371 OA
ATOM      7  C   UNL     1      -3.293  -9.878  11.555  0.00  0.00    +0.111 C 
ATOM      8  C   UNL     1      -3.868 -10.601  12.759  0.00  0.00    +0.164 C 
ATOM      9  C   UNL     1      -3.117  -9.923  13.897  0.00  0.00    +0.165 C 
ATOM     11  C   UNL     1      -1.832  -9.742  11.956  0.00  0.00    +0.181 C 
ENDROOT
BRANCH   8   3
ATOM      3  O   UNL     1      -5.267 -10.436  12.878  0.00  0.00    -0.388 OA
ATOM     23  H   UNL     1      -5.572  -9.874  12.144  0.00  0.00    +0.210 HD
ENDBRANCH   8   3
BRANCH   7   5
ATOM      5  N   UNL     1      -3.472 -10.593  10.303  0.00  0.00    -0.302 NA
ATOM     22  H   UNL     1      -2.566 -10.869   9.926  0.00  0.00    +0.123 HD
BRANCH   5  10
ATOM      2  O   UNL     1      -5.998  -9.034  10.413  0.00  0.00    -0.377 OA
ATOM     10  C   UNL     1      -4.284  -9.784   9.386  0.00  0.00    +0.106 C 
ATOM     12  C   UNL     1      -5.754 -10.173   9.548  0.00  0.00    +0.180 C 
ATOM     13  C   UNL     1      -4.694  -8.488  10.087  0.00  0.00    +0.180 C 
ENDBRANCH   5  10
ENDBRANCH   7   5
BRANCH   9  14
ATOM     14  C   UNL     1      -3.012 -10.781  15.143  0.00  0.00    +0.138 C 
BRANCH  14   6
ATOM      4  O   UNL     1      -3.245 -10.781  18.005  0.00  0.00    -0.270 OA
ATOM      6  N   UNL     1      -4.228 -10.751  15.903  0.00  0.00    -0.309 N 
ATOM     15  C   UNL     1      -4.247 -10.754  17.295  0.00  0.00    +0.244 C 
ATOM     24  H   UNL     1      -5.093 -10.800  15.377  0.00  0.00    +0.149 HD
BRANCH  15  16
ATOM     16  C   UNL     1      -5.589 -10.748  17.932  0.00  0.00    +0.037 A 
ATOM     17  C   UNL     1      -5.700 -10.705  19.322  0.00  0.00    +0.013 A 
ATOM     18  C   UNL     1      -6.736 -10.781  17.141  0.00  0.00    +0.013 A 
ATOM     19  C   UNL     1      -6.961 -10.698  19.920  0.00  0.00    +0.001 A 
ATOM     20  C   UNL     1      -7.996 -10.773  17.739  0.00  0.00    +0.001 A 
ATOM     21  C   UNL     1      -8.109 -10.732  19.129  0.00  0.00    +0.000 A 
ENDBRANCH  15  16
ENDBRANCH  14   6
ENDBRANCH   9  14
TORSDOF 6
ENDMDL
MODEL 10
REMARK VINA RESULT:      -3.3     14.374     16.398
REMARK  Name = 75536820
REMARK  6 active torsions:
REMARK  status: ('A' for Active; 'I' for Inactive)
REMARK    1  A    between atoms: O_3  and  C_8
REMARK    2  A    between atoms: N_5  and  C_7
REMARK    3  A    between atoms: N_5  and  C_10
REMARK    4  A    between atoms: N_6  and  C_14
REMARK    5  A    between atoms: C_9  and  C_14
REMARK    6  A    between atoms: C_15  and  C_16
REMARK                            x       y       z     vdW  Elec       q    Type
REMARK                         _______ _______ _______ _____ _____    ______ ____
ROOT
ATOM      1  O   UNL     1      -2.463 -10.140  15.442  0.00  0.00    -0.371 OA
ATOM      7  C   UNL     1      -3.204 -10.066  13.187  0.00  0.00    +0.111 C 
ATOM      8  C   UNL     1      -4.352 -10.519  14.071  0.00  0.00    +0.164 C 
ATOM      9  C   UNL     1      -3.894 -10.009  15.430  0.00  0.00    +0.165 C 
ATOM     11  C   UNL     1      -2.009 -10.325  14.090  0.00  0.00    +0.181 C 
ENDROOT
BRANCH   8   3
ATOM      3  O   UNL     1      -5.591  -9.957  13.686  0.00  0.00    -0.388 OA
ATOM     23  H   UNL     1      -5.450  -9.016  13.481  0.00  0.00    +0.210 HD
ENDBRANCH   8   3
BRANCH   7   5
ATOM      5  N   UNL     1      -3.123 -10.781  11.923  0.00  0.00    -0.302 NA
ATOM     22  H   UNL     1      -2.225 -11.256  11.848  0.00  0.00    +0.123 HD
BRANCH   5  10
ATOM      2  O   UNL     1      -5.433 -10.106  10.182  0.00  0.00    -0.377 OA
ATOM     10  C   UNL     1      -3.411  -9.859  10.818  0.00  0.00    +0.106 C 
ATOM     12  C   UNL     1      -4.157 -10.617   9.719  0.00  0.00    +0.180 C 
ATOM     13  C   UNL     1      -4.757  -9.178  11.068  0.00  0.00    +0.180 C 
ENDBRANCH   5  10
ENDBRANCH   7   5
BRANCH   9  14
ATOM     14  C   UNL     1      -4.491 -10.781  16.593  0.00  0.00    +0.138 C 
BRANCH  14   6
ATOM      4  O   UNL     1      -5.852  -9.851  18.943  0.00  0.00    -0.270 OA
ATOM      6  N   UNL     1      -5.896 -10.526  16.723  0.00  0.00    -0.309 N 
ATOM     15  C   UNL     1      -6.472 -10.074  17.907  0.00  0.00    +0.244 C 
ATOM     24  H   UNL     1      -6.476 -10.758  15.926  0.00  0.00    +0.149 HD
BRANCH  15  16
ATOM     16  C   UNL     1      -7.946  -9.883  17.888  0.00  0.00    +0.037 A 
ATOM     17  C   UNL     1      -8.766 -10.705  18.662  0.00  0.00    +0.013 A 
ATOM     18  C   UNL     1      -8.509  -8.882  17.098  0.00  0.00    +0.013 A 
ATOM     19  C   UNL     1     -10.149 -10.524  18.644  0.00  0.00    +0.001 A 
ATOM     20  C   UNL     1      -9.891  -8.701  17.081  0.00  0.00    +0.001 A 
ATOM     21  C   UNL     1     -10.712  -9.522  17.855  0.00  0.00    +0.000 A 
ENDBRANCH  15  16
ENDBRANCH  14   6
ENDBRANCH   9  14
TORSDOF 6
ENDMDL
