MODEL 1
REMARK VINA RESULT:      -1.5      0.000      0.000
REMARK  Name = 51137466
REMARK  6 active torsions:
REMARK  status: ('A' for Active; 'I' for Inactive)
REMARK    1  A    between atoms: O_4  and  C_23
REMARK    2  A    between atoms: O_4  and  C_28
REMARK    3  A    between atoms: N_5  and  C_12
REMARK    4  A    between atoms: C_8  and  C_13
REMARK    5  A    between atoms: C_12  and  C_14
REMARK    6  A    between atoms: C_17  and  C_21
REMARK                            x       y       z     vdW  Elec       q    Type
REMARK                         _______ _______ _______ _____ _____    ______ ____
ROOT
ATOM      5  N   UNL     1      -0.898   4.766  25.244  0.00  0.00    -0.297 NA
ATOM      8  C   UNL     1       0.332   2.806  24.858  0.00  0.00    +0.092 C 
ATOM      9  C   UNL     1      -0.911   3.341  25.582  0.00  0.00    +0.097 C 
ATOM     10  C   UNL     1       0.566   3.797  23.704  0.00  0.00    +0.029 C 
ATOM     11  C   UNL     1      -0.564   4.812  23.821  0.00  0.00    +0.085 C 
ENDROOT
BRANCH   8  13
ATOM      1  O   UNL     1      -1.030   0.786  24.606  0.00  0.00    -0.420 OA
ATOM      6  N   UNL     1       1.085   0.552  23.918  0.00  0.00    -0.112 NA
ATOM      7  N   UNL     1       0.436  -0.652  23.720  0.00  0.00    -0.107 NA
ATOM     13  C   UNL     1       0.192   1.362  24.436  0.00  0.00    +0.222 A 
ATOM     17  C   UNL     1      -0.796  -0.469  24.136  0.00  0.00    +0.252 A 
BRANCH  17  21
ATOM     21  C   UNL     1      -1.911  -1.370  24.169  0.00  0.00    +0.080 A 
ATOM     23  C   UNL     1      -3.205  -0.916  23.919  0.00  0.00    +0.132 A 
ATOM     24  C   UNL     1      -1.688  -2.716  24.458  0.00  0.00    +0.017 A 
ATOM     25  C   UNL     1      -4.277  -1.807  23.958  0.00  0.00    +0.046 A 
ATOM     26  C   UNL     1      -2.760  -3.608  24.497  0.00  0.00    +0.001 A 
ATOM     27  C   UNL     1      -4.054  -3.154  24.247  0.00  0.00    +0.004 A 
BRANCH  23   4
ATOM      4  O   UNL     1      -3.453   0.395  23.634  0.00  0.00    -0.494 OA
ATOM     28  C   UNL     1      -2.988   0.883  22.378  0.00  0.00    +0.277 C 
ENDBRANCH  23   4
ENDBRANCH  17  21
ENDBRANCH   8  13
BRANCH   5  12
ATOM     12  C   UNL     1      -2.166   5.417  25.537  0.00  0.00    +0.119 C 
BRANCH  12  14
ATOM      2  O   UNL     1      -5.852   2.533  27.147  0.00  0.00    -0.453 OA
ATOM      3  O   UNL     1      -6.536   1.956  24.909  0.00  0.00    -0.453 OA
ATOM     14  C   UNL     1      -3.334   4.489  25.332  0.00  0.00    -0.030 A 
ATOM     15  C   UNL     1      -4.012   3.974  26.439  0.00  0.00    +0.054 A 
ATOM     16  C   UNL     1      -3.732   4.152  24.026  0.00  0.00    +0.009 A 
ATOM     18  C   UNL     1      -5.078   3.129  26.199  0.00  0.00    +0.167 A 
ATOM     19  C   UNL     1      -4.815   3.295  23.812  0.00  0.00    +0.050 A 
ATOM     20  C   UNL     1      -5.468   2.799  24.922  0.00  0.00    +0.166 A 
ATOM     22  C   UNL     1      -6.774   1.792  26.322  0.00  0.00    +0.466 C 
ENDBRANCH  12  14
ENDBRANCH   5  12
TORSDOF 5
ENDMDL
MODEL 2
REMARK VINA RESULT:      -1.2      2.380      4.969
REMARK  Name = 51137466
REMARK  6 active torsions:
REMARK  status: ('A' for Active; 'I' for Inactive)
REMARK    1  A    between atoms: O_4  and  C_23
REMARK    2  A    between atoms: O_4  and  C_28
REMARK    3  A    between atoms: N_5  and  C_12
REMARK    4  A    between atoms: C_8  and  C_13
REMARK    5  A    between atoms: C_12  and  C_14
REMARK    6  A    between atoms: C_17  and  C_21
REMARK                            x       y       z     vdW  Elec       q    Type
REMARK                         _______ _______ _______ _____ _____    ______ ____
ROOT
ATOM      5  N   UNL     1      -5.409   0.616  24.914  0.00  0.00    -0.297 NA
ATOM      8  C   UNL     1      -3.917  -1.173  24.638  0.00  0.00    +0.092 C 
ATOM      9  C   UNL     1      -4.382   0.136  23.986  0.00  0.00    +0.097 C 
ATOM     10  C   UNL     1      -4.246  -1.002  26.132  0.00  0.00    +0.029 C 
ATOM     11  C   UNL     1      -4.848   0.393  26.245  0.00  0.00    +0.085 C 
ENDROOT
BRANCH   8  13
ATOM      1  O   UNL     1      -1.648  -0.449  24.067  0.00  0.00    -0.420 OA
ATOM      6  N   UNL     1      -1.868  -2.663  24.300  0.00  0.00    -0.112 NA
ATOM      7  N   UNL     1      -0.550  -2.397  23.981  0.00  0.00    -0.107 NA
ATOM     13  C   UNL     1      -2.472  -1.499  24.339  0.00  0.00    +0.222 A 
ATOM     17  C   UNL     1      -0.467  -1.092  23.854  0.00  0.00    +0.252 A 
BRANCH  17  21
ATOM     21  C   UNL     1       0.653  -0.257  23.534  0.00  0.00    +0.080 A 
ATOM     23  C   UNL     1       0.802   0.997  24.123  0.00  0.00    +0.132 A 
ATOM     24  C   UNL     1       1.601  -0.714  22.618  0.00  0.00    +0.017 A 
ATOM     25  C   UNL     1       1.897   1.796  23.797  0.00  0.00    +0.046 A 
ATOM     26  C   UNL     1       2.697   0.084  22.292  0.00  0.00    +0.001 A 
ATOM     27  C   UNL     1       2.845   1.339  22.881  0.00  0.00    +0.004 A 
BRANCH  23   4
ATOM      4  O   UNL     1      -0.109   1.470  25.021  0.00  0.00    -0.494 OA
ATOM     28  C   UNL     1       0.390   2.280  26.083  0.00  0.00    +0.277 C 
ENDBRANCH  23   4
ENDBRANCH  17  21
ENDBRANCH   8  13
BRANCH   5  12
ATOM     12  C   UNL     1      -5.757   2.010  24.684  0.00  0.00    +0.119 C 
BRANCH  12  14
ATOM      2  O   UNL     1      -1.316   3.849  23.502  0.00  0.00    -0.453 OA
ATOM      3  O   UNL     1      -1.315   5.366  25.375  0.00  0.00    -0.453 OA
ATOM     14  C   UNL     1      -4.579   2.924  24.901  0.00  0.00    -0.030 A 
ATOM     15  C   UNL     1      -3.501   2.887  24.014  0.00  0.00    +0.054 A 
ATOM     16  C   UNL     1      -4.578   3.808  25.994  0.00  0.00    +0.009 A 
ATOM     18  C   UNL     1      -2.447   3.746  24.253  0.00  0.00    +0.167 A 
ATOM     19  C   UNL     1      -3.498   4.667  26.213  0.00  0.00    +0.050 A 
ATOM     20  C   UNL     1      -2.445   4.611  25.322  0.00  0.00    +0.166 A 
ATOM     22  C   UNL     1      -0.604   4.879  24.219  0.00  0.00    +0.466 C 
ENDBRANCH  12  14
ENDBRANCH   5  12
TORSDOF 5
ENDMDL
MODEL 3
REMARK VINA RESULT:      -1.1      2.396      5.061
REMARK  Name = 51137466
REMARK  6 active torsions:
REMARK  status: ('A' for Active; 'I' for Inactive)
REMARK    1  A    between atoms: O_4  and  C_23
REMARK    2  A    between atoms: O_4  and  C_28
REMARK    3  A    between atoms: N_5  and  C_12
REMARK    4  A    between atoms: C_8  and  C_13
REMARK    5  A    between atoms: C_12  and  C_14
REMARK    6  A    between atoms: C_17  and  C_21
REMARK                            x       y       z     vdW  Elec       q    Type
REMARK                         _______ _______ _______ _____ _____    ______ ____
ROOT
ATOM      5  N   UNL     1      -2.007   4.685  25.007  0.00  0.00    -0.297 NA
ATOM      8  C   UNL     1      -4.119   3.664  25.051  0.00  0.00    +0.092 C 
ATOM      9  C   UNL     1      -2.811   3.724  24.250  0.00  0.00    +0.097 C 
ATOM     10  C   UNL     1      -3.720   4.086  26.477  0.00  0.00    +0.029 C 
ATOM     11  C   UNL     1      -2.218   4.330  26.410  0.00  0.00    +0.085 C 
ENDROOT
BRANCH   8  13
ATOM      1  O   UNL     1      -4.012   1.233  24.773  0.00  0.00    -0.420 OA
ATOM      6  N   UNL     1      -6.086   2.033  25.020  0.00  0.00    -0.112 NA
ATOM      7  N   UNL     1      -6.173   0.661  24.875  0.00  0.00    -0.107 NA
ATOM     13  C   UNL     1      -4.808   2.323  24.955  0.00  0.00    +0.222 A 
ATOM     17  C   UNL     1      -4.938   0.237  24.733  0.00  0.00    +0.252 A 
BRANCH  17  21
ATOM     21  C   UNL     1      -4.426  -1.089  24.547  0.00  0.00    +0.080 A 
ATOM     23  C   UNL     1      -3.393  -1.576  25.348  0.00  0.00    +0.132 A 
ATOM     24  C   UNL     1      -4.973  -1.895  23.550  0.00  0.00    +0.017 A 
ATOM     25  C   UNL     1      -2.906  -2.868  25.151  0.00  0.00    +0.046 A 
ATOM     26  C   UNL     1      -4.487  -3.188  23.352  0.00  0.00    +0.001 A 
ATOM     27  C   UNL     1      -3.454  -3.674  24.153  0.00  0.00    +0.004 A 
BRANCH  23   4
ATOM      4  O   UNL     1      -2.839  -0.810  26.331  0.00  0.00    -0.494 OA
ATOM     28  C   UNL     1      -1.421  -0.658  26.310  0.00  0.00    +0.277 C 
ENDBRANCH  23   4
ENDBRANCH  17  21
ENDBRANCH   8  13
BRANCH   5  12
ATOM     12  C   UNL     1      -0.602   4.652  24.631  0.00  0.00    +0.119 C 
BRANCH  12  14
ATOM      2  O   UNL     1       2.768   1.310  23.224  0.00  0.00    -0.453 OA
ATOM      3  O   UNL     1       1.107  -0.408  22.912  0.00  0.00    -0.453 OA
ATOM     14  C   UNL     1      -0.179   3.282  24.168  0.00  0.00    -0.030 A 
ATOM     15  C   UNL     1       1.172   3.019  23.928  0.00  0.00    +0.054 A 
ATOM     16  C   UNL     1      -1.148   2.280  23.986  0.00  0.00    +0.009 A 
ATOM     18  C   UNL     1       1.510   1.748  23.508  0.00  0.00    +0.167 A 
ATOM     19  C   UNL     1      -0.777   1.002  23.560  0.00  0.00    +0.050 A 
ATOM     20  C   UNL     1       0.562   0.768  23.329  0.00  0.00    +0.166 A 
ATOM     22  C   UNL     1       2.504  -0.057  22.848  0.00  0.00    +0.466 C 
ENDBRANCH  12  14
ENDBRANCH   5  12
TORSDOF 5
ENDMDL
MODEL 4
REMARK VINA RESULT:      -1.0      2.308      4.970
REMARK  Name = 51137466
REMARK  6 active torsions:
REMARK  status: ('A' for Active; 'I' for Inactive)
REMARK    1  A    between atoms: O_4  and  C_23
REMARK    2  A    between atoms: O_4  and  C_28
REMARK    3  A    between atoms: N_5  and  C_12
REMARK    4  A    between atoms: C_8  and  C_13
REMARK    5  A    between atoms: C_12  and  C_14
REMARK    6  A    between atoms: C_17  and  C_21
REMARK                            x       y       z     vdW  Elec       q    Type
REMARK                         _______ _______ _______ _____ _____    ______ ____
ROOT
ATOM      5  N   UNL     1      -4.776   2.835  24.936  0.00  0.00    -0.297 NA
ATOM      8  C   UNL     1      -2.594   3.629  25.264  0.00  0.00    +0.092 C 
ATOM      9  C   UNL     1      -3.564   2.522  25.696  0.00  0.00    +0.097 C 
ATOM     10  C   UNL     1      -3.101   4.074  23.881  0.00  0.00    +0.029 C 
ATOM     11  C   UNL     1      -4.302   3.181  23.596  0.00  0.00    +0.085 C 
ENDROOT
BRANCH   8  13
ATOM      1  O   UNL     1      -0.718   2.400  24.280  0.00  0.00    -0.420 OA
ATOM      6  N   UNL     1      -0.214   3.463  26.182  0.00  0.00    -0.112 NA
ATOM      7  N   UNL     1       0.925   2.816  25.740  0.00  0.00    -0.107 NA
ATOM     13  C   UNL     1      -1.148   3.192  25.301  0.00  0.00    +0.222 A 
ATOM     17  C   UNL     1       0.584   2.209  24.627  0.00  0.00    +0.252 A 
BRANCH  17  21
ATOM     21  C   UNL     1       1.357   1.393  23.738  0.00  0.00    +0.080 A 
ATOM     23  C   UNL     1       0.849   0.191  23.246  0.00  0.00    +0.132 A 
ATOM     24  C   UNL     1       2.633   1.814  23.366  0.00  0.00    +0.017 A 
ATOM     25  C   UNL     1       1.616  -0.591  22.383  0.00  0.00    +0.046 A 
ATOM     26  C   UNL     1       3.402   1.033  22.502  0.00  0.00    +0.001 A 
ATOM     27  C   UNL     1       2.894  -0.169  22.011  0.00  0.00    +0.004 A 
BRANCH  23   4
ATOM      4  O   UNL     1      -0.396  -0.246  23.593  0.00  0.00    -0.494 OA
ATOM     28  C   UNL     1      -0.477  -1.172  24.674  0.00  0.00    +0.277 C 
ENDBRANCH  23   4
ENDBRANCH  17  21
ENDBRANCH   8  13
BRANCH   5  12
ATOM     12  C   UNL     1      -5.724   1.731  24.922  0.00  0.00    +0.119 C 
BRANCH  12  14
ATOM      2  O   UNL     1      -4.285  -2.629  23.073  0.00  0.00    -0.453 OA
ATOM      3  O   UNL     1      -3.170  -3.261  25.114  0.00  0.00    -0.453 OA
ATOM     14  C   UNL     1      -5.030   0.397  25.009  0.00  0.00    -0.030 A 
ATOM     15  C   UNL     1      -5.035  -0.460  23.906  0.00  0.00    +0.054 A 
ATOM     16  C   UNL     1      -4.380   0.029  26.200  0.00  0.00    +0.009 A 
ATOM     18  C   UNL     1      -4.383  -1.670  24.034  0.00  0.00    +0.167 A 
ATOM     19  C   UNL     1      -3.727  -1.203  26.302  0.00  0.00    +0.050 A 
ATOM     20  C   UNL     1      -3.747  -2.031  25.199  0.00  0.00    +0.166 A 
ATOM     22  C   UNL     1      -3.514  -3.633  23.764  0.00  0.00    +0.466 C 
ENDBRANCH  12  14
ENDBRANCH   5  12
TORSDOF 5
ENDMDL
MODEL 5
REMARK VINA RESULT:      -0.9      2.264      4.783
REMARK  Name = 51137466
REMARK  6 active torsions:
REMARK  status: ('A' for Active; 'I' for Inactive)
REMARK    1  A    between atoms: O_4  and  C_23
REMARK    2  A    between atoms: O_4  and  C_28
REMARK    3  A    between atoms: N_5  and  C_12
REMARK    4  A    between atoms: C_8  and  C_13
REMARK    5  A    between atoms: C_12  and  C_14
REMARK    6  A    between atoms: C_17  and  C_21
REMARK                            x       y       z     vdW  Elec       q    Type
REMARK                         _______ _______ _______ _____ _____    ______ ____
ROOT
ATOM      5  N   UNL     1      -2.947   4.953  25.223  0.00  0.00    -0.297 NA
ATOM      8  C   UNL     1      -4.830   3.575  24.984  0.00  0.00    +0.092 C 
ATOM      9  C   UNL     1      -3.457   3.879  24.369  0.00  0.00    +0.097 C 
ATOM     10  C   UNL     1      -4.710   4.035  26.448  0.00  0.00    +0.029 C 
ATOM     11  C   UNL     1      -3.279   4.541  26.586  0.00  0.00    +0.085 C 
ENDROOT
BRANCH   8  13
ATOM      1  O   UNL     1      -4.257   1.214  24.675  0.00  0.00    -0.420 OA
ATOM      6  N   UNL     1      -6.456   1.617  24.748  0.00  0.00    -0.112 NA
ATOM      7  N   UNL     1      -6.277   0.258  24.572  0.00  0.00    -0.107 NA
ATOM     13  C   UNL     1      -5.251   2.135  24.803  0.00  0.00    +0.222 A 
ATOM     17  C   UNL     1      -4.978   0.068  24.535  0.00  0.00    +0.252 A 
BRANCH  17  21
ATOM     21  C   UNL     1      -4.218  -1.136  24.373  0.00  0.00    +0.080 A 
ATOM     23  C   UNL     1      -2.923  -1.238  24.879  0.00  0.00    +0.132 A 
ATOM     24  C   UNL     1      -4.790  -2.215  23.699  0.00  0.00    +0.017 A 
ATOM     25  C   UNL     1      -2.197  -2.417  24.710  0.00  0.00    +0.046 A 
ATOM     26  C   UNL     1      -4.065  -3.395  23.531  0.00  0.00    +0.001 A 
ATOM     27  C   UNL     1      -2.769  -3.496  24.036  0.00  0.00    +0.004 A 
BRANCH  23   4
ATOM      4  O   UNL     1      -2.338  -0.198  25.542  0.00  0.00    -0.494 OA
ATOM     28  C   UNL     1      -1.251  -0.514  26.408  0.00  0.00    +0.277 C 
ENDBRANCH  23   4
ENDBRANCH  17  21
ENDBRANCH   8  13
BRANCH   5  12
ATOM     12  C   UNL     1      -1.520   5.174  25.043  0.00  0.00    +0.119 C 
BRANCH  12  14
ATOM      2  O   UNL     1      -0.444   1.000  22.612  0.00  0.00    -0.453 OA
ATOM      3  O   UNL     1       1.205   0.337  24.239  0.00  0.00    -0.453 OA
ATOM     14  C   UNL     1      -0.771   3.880  24.860  0.00  0.00    -0.030 A 
ATOM     15  C   UNL     1      -1.035   3.079  23.747  0.00  0.00    +0.054 A 
ATOM     16  C   UNL     1       0.191   3.494  25.810  0.00  0.00    +0.009 A 
ATOM     18  C   UNL     1      -0.321   1.904  23.622  0.00  0.00    +0.167 A 
ATOM     19  C   UNL     1       0.899   2.299  25.658  0.00  0.00    +0.050 A 
ATOM     20  C   UNL     1       0.619   1.525  24.551  0.00  0.00    +0.166 A 
ATOM     22  C   UNL     1       0.528   0.010  23.010  0.00  0.00    +0.466 C 
ENDBRANCH  12  14
ENDBRANCH   5  12
TORSDOF 5
ENDMDL
MODEL 6
REMARK VINA RESULT:      -0.3      1.058      2.083
REMARK  Name = 51137466
REMARK  6 active torsions:
REMARK  status: ('A' for Active; 'I' for Inactive)
REMARK    1  A    between atoms: O_4  and  C_23
REMARK    2  A    between atoms: O_4  and  C_28
REMARK    3  A    between atoms: N_5  and  C_12
REMARK    4  A    between atoms: C_8  and  C_13
REMARK    5  A    between atoms: C_12  and  C_14
REMARK    6  A    between atoms: C_17  and  C_21
REMARK                            x       y       z     vdW  Elec       q    Type
REMARK                         _______ _______ _______ _____ _____    ______ ____
ROOT
ATOM      5  N   UNL     1      -0.698   4.917  24.957  0.00  0.00    -0.297 NA
ATOM      8  C   UNL     1       0.431   2.912  24.502  0.00  0.00    +0.092 C 
ATOM      9  C   UNL     1      -0.724   3.500  25.325  0.00  0.00    +0.097 C 
ATOM     10  C   UNL     1       0.589   3.874  23.311  0.00  0.00    +0.029 C 
ATOM     11  C   UNL     1      -0.494   4.927  23.509  0.00  0.00    +0.085 C 
ENDROOT
BRANCH   8  13
ATOM      1  O   UNL     1      -1.022   0.944  24.385  0.00  0.00    -0.420 OA
ATOM      6  N   UNL     1       1.035   0.609  23.573  0.00  0.00    -0.112 NA
ATOM      7  N   UNL     1       0.329  -0.572  23.446  0.00  0.00    -0.107 NA
ATOM     13  C   UNL     1       0.209   1.465  24.126  0.00  0.00    +0.222 A 
ATOM     17  C   UNL     1      -0.866  -0.330  23.932  0.00  0.00    +0.252 A 
BRANCH  17  21
ATOM     21  C   UNL     1      -2.011  -1.185  24.056  0.00  0.00    +0.080 A 
ATOM     23  C   UNL     1      -1.878  -2.498  24.504  0.00  0.00    +0.132 A 
ATOM     24  C   UNL     1      -3.270  -0.686  23.723  0.00  0.00    +0.017 A 
ATOM     25  C   UNL     1      -3.003  -3.315  24.617  0.00  0.00    +0.046 A 
ATOM     26  C   UNL     1      -4.396  -1.502  23.836  0.00  0.00    +0.001 A 
ATOM     27  C   UNL     1      -4.262  -2.816  24.283  0.00  0.00    +0.004 A 
BRANCH  23   4
ATOM      4  O   UNL     1      -0.659  -3.013  24.836  0.00  0.00    -0.494 OA
ATOM     28  C   UNL     1      -0.005  -2.446  25.969  0.00  0.00    +0.277 C 
ENDBRANCH  23   4
ENDBRANCH  17  21
ENDBRANCH   8  13
BRANCH   5  12
ATOM     12  C   UNL     1      -1.913   5.615  25.351  0.00  0.00    +0.119 C 
BRANCH  12  14
ATOM      2  O   UNL     1      -5.197   2.219  23.872  0.00  0.00    -0.453 OA
ATOM      3  O   UNL     1      -6.162   2.023  26.072  0.00  0.00    -0.453 OA
ATOM     14  C   UNL     1      -3.057   4.662  25.579  0.00  0.00    -0.030 A 
ATOM     15  C   UNL     1      -3.545   3.898  24.517  0.00  0.00    +0.054 A 
ATOM     16  C   UNL     1      -3.620   4.548  26.863  0.00  0.00    +0.009 A 
ATOM     18  C   UNL     1      -4.592   3.037  24.777  0.00  0.00    +0.167 A 
ATOM     19  C   UNL     1      -4.680   3.668  27.098  0.00  0.00    +0.050 A 
ATOM     20  C   UNL     1      -5.144   2.925  26.032  0.00  0.00    +0.166 A 
ATOM     22  C   UNL     1      -6.190   1.580  24.700  0.00  0.00    +0.466 C 
ENDBRANCH  12  14
ENDBRANCH   5  12
TORSDOF 5
ENDMDL
MODEL 7
REMARK VINA RESULT:      -0.2      2.426      7.115
REMARK  Name = 51137466
REMARK  6 active torsions:
REMARK  status: ('A' for Active; 'I' for Inactive)
REMARK    1  A    between atoms: O_4  and  C_23
REMARK    2  A    between atoms: O_4  and  C_28
REMARK    3  A    between atoms: N_5  and  C_12
REMARK    4  A    between atoms: C_8  and  C_13
REMARK    5  A    between atoms: C_12  and  C_14
REMARK    6  A    between atoms: C_17  and  C_21
REMARK                            x       y       z     vdW  Elec       q    Type
REMARK                         _______ _______ _______ _____ _____    ______ ____
ROOT
ATOM      5  N   UNL     1      -2.737  -2.273  24.896  0.00  0.00    -0.297 NA
ATOM      8  C   UNL     1      -4.344  -0.628  25.359  0.00  0.00    +0.092 C 
ATOM      9  C   UNL     1      -2.881  -1.008  25.621  0.00  0.00    +0.097 C 
ATOM     10  C   UNL     1      -4.703  -1.343  24.044  0.00  0.00    +0.029 C 
ATOM     11  C   UNL     1      -3.425  -2.058  23.624  0.00  0.00    +0.085 C 
ENDROOT
BRANCH   8  13
ATOM      1  O   UNL     1      -3.491   1.653  25.098  0.00  0.00    -0.420 OA
ATOM      6  N   UNL     1      -5.678   1.544  25.558  0.00  0.00    -0.112 NA
ATOM      7  N   UNL     1      -5.333   2.877  25.437  0.00  0.00    -0.107 NA
ATOM     13  C   UNL     1      -4.573   0.866  25.352  0.00  0.00    +0.222 A 
ATOM     17  C   UNL     1      -4.048   2.893  25.169  0.00  0.00    +0.252 A 
BRANCH  17  21
ATOM     21  C   UNL     1      -3.158   3.994  24.943  0.00  0.00    +0.080 A 
ATOM     23  C   UNL     1      -1.876   4.002  25.490  0.00  0.00    +0.132 A 
ATOM     24  C   UNL     1      -3.591   5.068  24.164  0.00  0.00    +0.017 A 
ATOM     25  C   UNL     1      -1.025   5.082  25.260  0.00  0.00    +0.046 A 
ATOM     26  C   UNL     1      -2.739   6.149  23.934  0.00  0.00    +0.001 A 
ATOM     27  C   UNL     1      -1.457   6.157  24.482  0.00  0.00    +0.004 A 
BRANCH  23   4
ATOM      4  O   UNL     1      -1.427   2.966  26.256  0.00  0.00    -0.494 OA
ATOM     28  C   UNL     1      -0.015   2.836  26.404  0.00  0.00    +0.277 C 
ENDBRANCH  23   4
ENDBRANCH  17  21
ENDBRANCH   8  13
BRANCH   5  12
ATOM     12  C   UNL     1      -1.344  -2.654  24.717  0.00  0.00    +0.119 C 
BRANCH  12  14
ATOM      2  O   UNL     1       2.867  -0.611  23.111  0.00  0.00    -0.453 OA
ATOM      3  O   UNL     1       1.927   1.608  23.105  0.00  0.00    -0.453 OA
ATOM     14  C   UNL     1      -0.494  -1.487  24.292  0.00  0.00    -0.030 A 
ATOM     15  C   UNL     1       0.830  -1.699  23.902  0.00  0.00    +0.054 A 
ATOM     16  C   UNL     1      -1.043  -0.192  24.290  0.00  0.00    +0.009 A 
ATOM     18  C   UNL     1       1.569  -0.598  23.518  0.00  0.00    +0.167 A 
ATOM     19  C   UNL     1      -0.272   0.906  23.896  0.00  0.00    +0.050 A 
ATOM     20  C   UNL     1       1.032   0.669  23.516  0.00  0.00    +0.166 A 
ATOM     22  C   UNL     1       3.087   0.791  22.850  0.00  0.00    +0.466 C 
ENDBRANCH  12  14
ENDBRANCH   5  12
TORSDOF 5
ENDMDL
MODEL 8
REMARK VINA RESULT:       0.3      2.285      6.622
REMARK  Name = 51137466
REMARK  6 active torsions:
REMARK  status: ('A' for Active; 'I' for Inactive)
REMARK    1  A    between atoms: O_4  and  C_23
REMARK    2  A    between atoms: O_4  and  C_28
REMARK    3  A    between atoms: N_5  and  C_12
REMARK    4  A    between atoms: C_8  and  C_13
REMARK    5  A    between atoms: C_12  and  C_14
REMARK    6  A    between atoms: C_17  and  C_21
REMARK                            x       y       z     vdW  Elec       q    Type
REMARK                         _______ _______ _______ _____ _____    ______ ____
ROOT
ATOM      5  N   UNL     1      -2.697  -2.548  24.805  0.00  0.00    -0.297 NA
ATOM      8  C   UNL     1      -4.492  -1.121  25.299  0.00  0.00    +0.092 C 
ATOM      9  C   UNL     1      -2.997  -1.335  25.569  0.00  0.00    +0.097 C 
ATOM     10  C   UNL     1      -4.749  -1.826  23.956  0.00  0.00    +0.029 C 
ATOM     11  C   UNL     1      -3.391  -2.370  23.530  0.00  0.00    +0.085 C 
ENDROOT
BRANCH   8  13
ATOM      1  O   UNL     1      -3.898   1.254  25.217  0.00  0.00    -0.420 OA
ATOM      6  N   UNL     1      -6.086   0.869  25.478  0.00  0.00    -0.112 NA
ATOM      7  N   UNL     1      -5.894   2.237  25.448  0.00  0.00    -0.107 NA
ATOM     13  C   UNL     1      -4.895   0.335  25.340  0.00  0.00    +0.222 A 
ATOM     17  C   UNL     1      -4.602   2.416  25.295  0.00  0.00    +0.252 A 
BRANCH  17  21
ATOM     21  C   UNL     1      -3.834   3.623  25.197  0.00  0.00    +0.080 A 
ATOM     23  C   UNL     1      -3.372   4.079  23.964  0.00  0.00    +0.132 A 
ATOM     24  C   UNL     1      -3.550   4.342  26.358  0.00  0.00    +0.017 A 
ATOM     25  C   UNL     1      -2.625   5.254  23.889  0.00  0.00    +0.046 A 
ATOM     26  C   UNL     1      -2.803   5.518  26.284  0.00  0.00    +0.001 A 
ATOM     27  C   UNL     1      -2.340   5.974  25.050  0.00  0.00    +0.004 A 
BRANCH  23   4
ATOM      4  O   UNL     1      -3.635   3.396  22.812  0.00  0.00    -0.494 OA
ATOM     28  C   UNL     1      -2.674   2.424  22.404  0.00  0.00    +0.277 C 
ENDBRANCH  23   4
ENDBRANCH  17  21
ENDBRANCH   8  13
BRANCH   5  12
ATOM     12  C   UNL     1      -1.267  -2.756  24.633  0.00  0.00    +0.119 C 
BRANCH  12  14
ATOM      2  O   UNL     1      -0.444   2.071  25.352  0.00  0.00    -0.453 OA
ATOM      3  O   UNL     1       1.367   2.120  23.762  0.00  0.00    -0.453 OA
ATOM     14  C   UNL     1      -0.539  -1.464  24.373  0.00  0.00    -0.030 A 
ATOM     15  C   UNL     1      -0.917  -0.306  25.058  0.00  0.00    +0.054 A 
ATOM     16  C   UNL     1       0.516  -1.435  23.445  0.00  0.00    +0.009 A 
ATOM     18  C   UNL     1      -0.218   0.853  24.787  0.00  0.00    +0.167 A 
ATOM     19  C   UNL     1       1.207  -0.248  23.190  0.00  0.00    +0.050 A 
ATOM     20  C   UNL     1       0.815   0.882  23.879  0.00  0.00    +0.166 A 
ATOM     22  C   UNL     1       0.565   2.868  24.698  0.00  0.00    +0.466 C 
ENDBRANCH  12  14
ENDBRANCH   5  12
TORSDOF 5
ENDMDL
MODEL 9
REMARK VINA RESULT:       0.7      2.337      4.519
REMARK  Name = 51137466
REMARK  6 active torsions:
REMARK  status: ('A' for Active; 'I' for Inactive)
REMARK    1  A    between atoms: O_4  and  C_23
REMARK    2  A    between atoms: O_4  and  C_28
REMARK    3  A    between atoms: N_5  and  C_12
REMARK    4  A    between atoms: C_8  and  C_13
REMARK    5  A    between atoms: C_12  and  C_14
REMARK    6  A    between atoms: C_17  and  C_21
REMARK                            x       y       z     vdW  Elec       q    Type
REMARK                         _______ _______ _______ _____ _____    ______ ____
ROOT
ATOM      5  N   UNL     1      -5.604   3.466  25.259  0.00  0.00    -0.297 NA
ATOM      8  C   UNL     1      -5.647   1.215  24.603  0.00  0.00    +0.092 C 
ATOM      9  C   UNL     1      -4.881   2.529  24.397  0.00  0.00    +0.097 C 
ATOM     10  C   UNL     1      -6.306   1.361  25.986  0.00  0.00    +0.029 C 
ATOM     11  C   UNL     1      -5.856   2.725  26.494  0.00  0.00    +0.085 C 
ENDROOT
BRANCH   8  13
ATOM      1  O   UNL     1      -3.431   0.173  24.576  0.00  0.00    -0.420 OA
ATOM      6  N   UNL     1      -5.112  -1.249  24.184  0.00  0.00    -0.112 NA
ATOM      7  N   UNL     1      -3.930  -1.964  24.141  0.00  0.00    -0.107 NA
ATOM     13  C   UNL     1      -4.773  -0.008  24.441  0.00  0.00    +0.222 A 
ATOM     17  C   UNL     1      -2.975  -1.094  24.375  0.00  0.00    +0.252 A 
BRANCH  17  21
ATOM     21  C   UNL     1      -1.554  -1.269  24.450  0.00  0.00    +0.080 A 
ATOM     23  C   UNL     1      -0.694  -0.474  23.692  0.00  0.00    +0.132 A 
ATOM     24  C   UNL     1      -1.034  -2.249  25.294  0.00  0.00    +0.017 A 
ATOM     25  C   UNL     1       0.685  -0.660  23.777  0.00  0.00    +0.046 A 
ATOM     26  C   UNL     1       0.346  -2.436  25.380  0.00  0.00    +0.001 A 
ATOM     27  C   UNL     1       1.205  -1.642  24.622  0.00  0.00    +0.004 A 
BRANCH  23   4
ATOM      4  O   UNL     1      -1.175   0.492  22.857  0.00  0.00    -0.494 OA
ATOM     28  C   UNL     1      -0.689   1.817  23.056  0.00  0.00    +0.277 C 
ENDBRANCH  23   4
ENDBRANCH  17  21
ENDBRANCH   8  13
BRANCH   5  12
ATOM     12  C   UNL     1      -4.858   4.695  25.492  0.00  0.00    +0.119 C 
BRANCH  12  14
ATOM      2  O   UNL     1      -0.825   2.034  26.562  0.00  0.00    -0.453 OA
ATOM      3  O   UNL     1       0.657   3.671  25.596  0.00  0.00    -0.453 OA
ATOM     14  C   UNL     1      -3.372   4.453  25.505  0.00  0.00    -0.030 A 
ATOM     15  C   UNL     1      -2.865   3.282  26.072  0.00  0.00    +0.054 A 
ATOM     16  C   UNL     1      -2.508   5.409  24.941  0.00  0.00    +0.009 A 
ATOM     18  C   UNL     1      -1.496   3.105  26.057  0.00  0.00    +0.167 A 
ATOM     19  C   UNL     1      -1.125   5.204  24.940  0.00  0.00    +0.050 A 
ATOM     20  C   UNL     1      -0.650   4.040  25.507  0.00  0.00    +0.166 A 
ATOM     22  C   UNL     1       0.539   2.400  26.266  0.00  0.00    +0.466 C 
ENDBRANCH  12  14
ENDBRANCH   5  12
TORSDOF 5
ENDMDL
MODEL 10
REMARK VINA RESULT:       1.1      2.746      5.450
REMARK  Name = 51137466
REMARK  6 active torsions:
REMARK  status: ('A' for Active; 'I' for Inactive)
REMARK    1  A    between atoms: O_4  and  C_23
REMARK    2  A    between atoms: O_4  and  C_28
REMARK    3  A    between atoms: N_5  and  C_12
REMARK    4  A    between atoms: C_8  and  C_13
REMARK    5  A    between atoms: C_12  and  C_14
REMARK    6  A    between atoms: C_17  and  C_21
REMARK                            x       y       z     vdW  Elec       q    Type
REMARK                         _______ _______ _______ _____ _____    ______ ____
ROOT
ATOM      5  N   UNL     1      -4.634  -0.300  24.605  0.00  0.00    -0.297 NA
ATOM      8  C   UNL     1      -2.779  -1.735  24.659  0.00  0.00    +0.092 C 
ATOM      9  C   UNL     1      -3.382  -0.552  23.889  0.00  0.00    +0.097 C 
ATOM     10  C   UNL     1      -3.398  -1.640  26.065  0.00  0.00    +0.029 C 
ATOM     11  C   UNL     1      -4.286  -0.402  26.021  0.00  0.00    +0.085 C 
ENDROOT
BRANCH   8  13
ATOM      1  O   UNL     1      -0.654  -0.685  24.043  0.00  0.00    -0.420 OA
ATOM      6  N   UNL     1      -0.432  -2.648  25.092  0.00  0.00    -0.112 NA
ATOM      7  N   UNL     1       0.834  -2.171  24.806  0.00  0.00    -0.107 NA
ATOM     13  C   UNL     1      -1.268  -1.749  24.630  0.00  0.00    +0.222 A 
ATOM     17  C   UNL     1       0.656  -1.023  24.194  0.00  0.00    +0.252 A 
BRANCH  17  21
ATOM     21  C   UNL     1       1.609  -0.090  23.670  0.00  0.00    +0.080 A 
ATOM     23  C   UNL     1       2.912  -0.488  23.372  0.00  0.00    +0.132 A 
ATOM     24  C   UNL     1       1.219   1.232  23.458  0.00  0.00    +0.017 A 
ATOM     25  C   UNL     1       3.826   0.435  22.865  0.00  0.00    +0.046 A 
ATOM     26  C   UNL     1       2.133   2.156  22.950  0.00  0.00    +0.001 A 
ATOM     27  C   UNL     1       3.436   1.758  22.654  0.00  0.00    +0.004 A 
BRANCH  23   4
ATOM      4  O   UNL     1       3.321  -1.775  23.570  0.00  0.00    -0.494 OA
ATOM     28  C   UNL     1       4.670  -1.967  23.988  0.00  0.00    +0.277 C 
ENDBRANCH  23   4
ENDBRANCH  17  21
ENDBRANCH   8  13
BRANCH   5  12
ATOM     12  C   UNL     1      -5.216   0.990  24.268  0.00  0.00    +0.119 C 
BRANCH  12  14
ATOM      2  O   UNL     1      -0.957   3.506  24.106  0.00  0.00    -0.453 OA
ATOM      3  O   UNL     1      -1.757   5.191  25.633  0.00  0.00    -0.453 OA
ATOM     14  C   UNL     1      -4.313   2.131  24.658  0.00  0.00    -0.030 A 
ATOM     15  C   UNL     1      -3.023   2.205  24.129  0.00  0.00    +0.054 A 
ATOM     16  C   UNL     1      -4.780   3.113  25.550  0.00  0.00    +0.009 A 
ATOM     18  C   UNL     1      -2.235   3.271  24.514  0.00  0.00    +0.167 A 
ATOM     19  C   UNL     1      -3.961   4.181  25.923  0.00  0.00    +0.050 A 
ATOM     20  C   UNL     1      -2.690   4.231  25.386  0.00  0.00    +0.166 A 
ATOM     22  C   UNL     1      -0.662   4.725  24.819  0.00  0.00    +0.466 C 
ENDBRANCH  12  14
ENDBRANCH   5  12
TORSDOF 5
ENDMDL
