MODEL 1
REMARK VINA RESULT:       1.3      0.000      0.000
REMARK  Name = 7682240
REMARK  2 active torsions:
REMARK  status: ('A' for Active; 'I' for Inactive)
REMARK    1  A    between atoms: C_14  and  C_19
REMARK    2  A    between atoms: C_16  and  C_20
REMARK                            x       y       z     vdW  Elec       q    Type
REMARK                         _______ _______ _______ _____ _____    ______ ____
ROOT
ATOM      2  O   UNL     1      -2.455   4.072  27.376  0.00  0.00    -0.268 OA
ATOM      3  O   UNL     1      -5.560   0.711  25.230  0.00  0.00    -0.270 OA
ATOM      4  N   UNL     1      -4.049   1.355  23.565  0.00  0.00    -0.297 N 
ATOM      5  N   UNL     1      -2.143   3.263  25.199  0.00  0.00    -0.311 N 
ATOM      7  C   UNL     1      -3.805   3.812  23.322  0.00  0.00    +0.027 C 
ATOM      8  C   UNL     1      -1.878   2.350  22.874  0.00  0.00    +0.054 C 
ATOM      9  C   UNL     1      -2.609   3.605  22.403  0.00  0.00    +0.018 C 
ATOM     10  C   UNL     1      -4.750   2.600  23.260  0.00  0.00    +0.113 C 
ATOM     11  C   UNL     1      -3.289   4.063  24.740  0.00  0.00    +0.130 C 
ATOM     12  C   UNL     1      -2.824   1.133  22.783  0.00  0.00    +0.117 C 
ATOM     13  C   UNL     1      -1.359   2.502  24.309  0.00  0.00    +0.035 A 
ATOM     14  C   UNL     1      -0.213   1.913  24.748  0.00  0.00    +0.009 A 
ATOM     15  C   UNL     1      -1.814   3.411  26.559  0.00  0.00    +0.252 A 
ATOM     16  C   UNL     1      -4.535   0.523  24.577  0.00  0.00    +0.247 C 
ATOM     17  C   UNL     1       0.153   2.041  26.148  0.00  0.00    +0.016 A 
ATOM     18  C   UNL     1      -0.587   2.723  27.020  0.00  0.00    +0.071 A 
ENDROOT
BRANCH  16  20
ATOM      6  N   UNL     1      -2.293  -2.958  25.571  0.00  0.00    -0.263 NA
ATOM     20  C   UNL     1      -3.762  -0.677  24.920  0.00  0.00    +0.040 A 
ATOM     22  C   UNL     1      -4.062  -1.890  24.316  0.00  0.00    +0.033 A 
ATOM     23  C   UNL     1      -2.731  -0.596  25.847  0.00  0.00    +0.033 A 
ATOM     26  C   UNL     1      -3.303  -2.993  24.673  0.00  0.00    +0.111 A 
ATOM     27  C   UNL     1      -2.033  -1.758  26.135  0.00  0.00    +0.111 A 
ENDBRANCH  16  20
BRANCH  14  19
ATOM      1  S   UNL     1       0.099  -0.389  23.328  0.00  0.00    -0.097 S 
ATOM     19  C   UNL     1       0.617   1.158  23.849  0.00  0.00    +0.021 A 
ATOM     21  C   UNL     1       1.835   1.505  23.310  0.00  0.00    +0.016 A 
ATOM     24  C   UNL     1       2.352   0.488  22.457  0.00  0.00    +0.008 A 
ATOM     25  C   UNL     1       1.508  -0.598  22.377  0.00  0.00    +0.046 A 
ENDBRANCH  14  19
TORSDOF 2
ENDMDL
MODEL 2
REMARK VINA RESULT:       5.2      2.821      5.085
REMARK  Name = 7682240
REMARK  2 active torsions:
REMARK  status: ('A' for Active; 'I' for Inactive)
REMARK    1  A    between atoms: C_14  and  C_19
REMARK    2  A    between atoms: C_16  and  C_20
REMARK                            x       y       z     vdW  Elec       q    Type
REMARK                         _______ _______ _______ _____ _____    ______ ____
ROOT
ATOM      2  O   UNL     1      -1.372   2.888  20.909  0.00  0.00    -0.268 OA
ATOM      3  O   UNL     1       0.278  -0.967  23.731  0.00  0.00    -0.270 OA
ATOM      4  N   UNL     1      -0.643   0.582  25.221  0.00  0.00    -0.297 N 
ATOM      5  N   UNL     1      -1.754   2.747  23.216  0.00  0.00    -0.311 N 
ATOM      7  C   UNL     1       0.177   2.901  24.899  0.00  0.00    +0.027 C 
ATOM      8  C   UNL     1      -2.121   2.525  25.691  0.00  0.00    +0.054 C 
ATOM      9  C   UNL     1      -0.890   3.415  25.855  0.00  0.00    +0.018 C 
ATOM     10  C   UNL     1       0.539   1.442  25.225  0.00  0.00    +0.113 C 
ATOM     11  C   UNL     1      -0.338   3.056  23.467  0.00  0.00    +0.130 C 
ATOM     12  C   UNL     1      -1.757   1.067  26.048  0.00  0.00    +0.117 C 
ATOM     13  C   UNL     1      -2.681   2.591  24.265  0.00  0.00    +0.035 A 
ATOM     14  C   UNL     1      -4.008   2.472  23.986  0.00  0.00    +0.009 A 
ATOM     15  C   UNL     1      -2.137   2.743  21.863  0.00  0.00    +0.252 A 
ATOM     16  C   UNL     1      -0.656  -0.563  24.421  0.00  0.00    +0.247 C 
ATOM     17  C   UNL     1      -4.437   2.458  22.598  0.00  0.00    +0.016 A 
ATOM     18  C   UNL     1      -3.580   2.567  21.585  0.00  0.00    +0.071 A 
ENDROOT
BRANCH  16  20
ATOM      6  N   UNL     1      -4.230  -2.874  24.274  0.00  0.00    -0.263 NA
ATOM     20  C   UNL     1      -1.888  -1.360  24.370  0.00  0.00    +0.040 A 
ATOM     22  C   UNL     1      -3.035  -0.826  23.798  0.00  0.00    +0.033 A 
ATOM     23  C   UNL     1      -1.904  -2.646  24.894  0.00  0.00    +0.033 A 
ATOM     26  C   UNL     1      -4.172  -1.619  23.774  0.00  0.00    +0.111 A 
ATOM     27  C   UNL     1      -3.092  -3.355  24.821  0.00  0.00    +0.111 A 
ENDBRANCH  16  20
BRANCH  14  19
ATOM      1  S   UNL     1      -5.565   3.751  25.817  0.00  0.00    -0.097 S 
ATOM     19  C   UNL     1      -4.974   2.342  25.043  0.00  0.00    +0.021 A 
ATOM     21  C   UNL     1      -5.532   1.195  25.561  0.00  0.00    +0.016 A 
ATOM     24  C   UNL     1      -6.457   1.474  26.607  0.00  0.00    +0.008 A 
ATOM     25  C   UNL     1      -6.571   2.827  26.849  0.00  0.00    +0.046 A 
ENDBRANCH  14  19
TORSDOF 2
ENDMDL
