MODEL 1
REMARK VINA RESULT:      -4.5      0.000      0.000
REMARK  Name = 75537049
REMARK  5 active torsions:
REMARK  status: ('A' for Active; 'I' for Inactive)
REMARK    1  A    between atoms: O_2  and  C_21
REMARK    2  A    between atoms: O_2  and  C_25
REMARK    3  A    between atoms: N_4  and  C_12
REMARK    4  A    between atoms: N_5  and  C_13
REMARK    5  A    between atoms: C_12  and  C_14
REMARK                            x       y       z     vdW  Elec       q    Type
REMARK                         _______ _______ _______ _____ _____    ______ ____
ROOT
ATOM      1  O   UNL     1      16.400  -6.622  25.257  0.00  0.00    -0.252 OA
ATOM      3  N   UNL     1      16.828  -6.414  27.539  0.00  0.00    -0.278 N 
ATOM      4  N   UNL     1      16.515  -6.766  30.313  0.00  0.00    -0.295 NA
ATOM      5  N   UNL     1      17.128  -4.573  26.255  0.00  0.00    -0.254 N 
ATOM      6  C   UNL     1      17.397  -5.441  28.437  0.00  0.00    +0.109 C 
ATOM      7  C   UNL     1      16.620  -5.403  29.752  0.00  0.00    +0.109 C 
ATOM      8  C   UNL     1      17.357  -4.148  27.631  0.00  0.00    +0.139 C 
ATOM      9  C   UNL     1      16.541  -7.746  28.030  0.00  0.00    +0.125 C 
ATOM     10  C   UNL     1      15.815  -7.666  29.375  0.00  0.00    +0.104 C 
ATOM     11  C   UNL     1      16.748  -5.948  26.216  0.00  0.00    +0.309 C 
ENDROOT
BRANCH   5  13
ATOM     13  C   UNL     1      17.206  -3.672  25.154  0.00  0.00    +0.038 A 
ATOM     15  C   UNL     1      17.271  -2.297  25.381  0.00  0.00    +0.023 A 
ATOM     16  C   UNL     1      17.215  -4.163  23.849  0.00  0.00    +0.023 A 
ATOM     19  C   UNL     1      17.346  -1.414  24.304  0.00  0.00    +0.002 A 
ATOM     20  C   UNL     1      17.290  -3.281  22.771  0.00  0.00    +0.002 A 
ATOM     23  C   UNL     1      17.355  -1.906  22.999  0.00  0.00    +0.000 A 
ENDBRANCH   5  13
BRANCH   4  12
ATOM     12  C   UNL     1      15.825  -6.735  31.602  0.00  0.00    +0.119 C 
BRANCH  12  14
ATOM     14  C   UNL     1      14.345  -6.967  31.452  0.00  0.00    -0.030 A 
ATOM     17  C   UNL     1      13.799  -8.211  31.771  0.00  0.00    +0.050 A 
ATOM     18  C   UNL     1      13.521  -5.940  30.993  0.00  0.00    +0.005 A 
ATOM     21  C   UNL     1      12.428  -8.426  31.631  0.00  0.00    +0.120 A 
ATOM     22  C   UNL     1      12.150  -6.156  30.853  0.00  0.00    +0.004 A 
ATOM     24  C   UNL     1      11.603  -7.399  31.172  0.00  0.00    +0.045 A 
BRANCH  21   2
ATOM      2  O   UNL     1      11.896  -9.640  31.941  0.00  0.00    -0.495 OA
ATOM     25  C   UNL     1      10.489  -9.692  32.177  0.00  0.00    +0.277 C 
ENDBRANCH  21   2
ENDBRANCH  12  14
ENDBRANCH   4  12
TORSDOF 4
ENDMDL
MODEL 2
REMARK VINA RESULT:      -3.9      1.726      2.638
REMARK  Name = 75537049
REMARK  5 active torsions:
REMARK  status: ('A' for Active; 'I' for Inactive)
REMARK    1  A    between atoms: O_2  and  C_21
REMARK    2  A    between atoms: O_2  and  C_25
REMARK    3  A    between atoms: N_4  and  C_12
REMARK    4  A    between atoms: N_5  and  C_13
REMARK    5  A    between atoms: C_12  and  C_14
REMARK                            x       y       z     vdW  Elec       q    Type
REMARK                         _______ _______ _______ _____ _____    ______ ____
ROOT
ATOM      1  O   UNL     1      15.349  -8.555  25.407  0.00  0.00    -0.252 OA
ATOM      3  N   UNL     1      16.029  -8.691  27.632  0.00  0.00    -0.278 N 
ATOM      4  N   UNL     1      15.892  -9.213  30.394  0.00  0.00    -0.295 NA
ATOM      5  N   UNL     1      16.709  -6.884  26.449  0.00  0.00    -0.254 N 
ATOM      6  C   UNL     1      16.928  -7.999  28.521  0.00  0.00    +0.109 C 
ATOM      7  C   UNL     1      16.318  -7.881  29.917  0.00  0.00    +0.109 C 
ATOM      8  C   UNL     1      17.174  -6.671  27.814  0.00  0.00    +0.139 C 
ATOM      9  C   UNL     1      15.431  -9.938  28.062  0.00  0.00    +0.125 C 
ATOM     10  C   UNL     1      14.885  -9.796  29.485  0.00  0.00    +0.104 C 
ATOM     11  C   UNL     1      15.959  -8.096  26.362  0.00  0.00    +0.309 C 
ENDROOT
BRANCH   5  13
ATOM     13  C   UNL     1      16.930  -5.935  25.409  0.00  0.00    +0.038 A 
ATOM     15  C   UNL     1      16.887  -4.569  25.691  0.00  0.00    +0.023 A 
ATOM     16  C   UNL     1      17.189  -6.370  24.110  0.00  0.00    +0.023 A 
ATOM     19  C   UNL     1      17.103  -3.639  24.674  0.00  0.00    +0.002 A 
ATOM     20  C   UNL     1      17.405  -5.441  23.093  0.00  0.00    +0.002 A 
ATOM     23  C   UNL     1      17.362  -4.075  23.375  0.00  0.00    +0.000 A 
ENDBRANCH   5  13
BRANCH   4  12
ATOM     12  C   UNL     1      15.361  -9.122  31.753  0.00  0.00    +0.119 C 
BRANCH  12  14
ATOM     14  C   UNL     1      13.911  -8.717  31.764  0.00  0.00    -0.030 A 
ATOM     17  C   UNL     1      13.563  -7.370  31.660  0.00  0.00    +0.050 A 
ATOM     18  C   UNL     1      12.916  -9.688  31.879  0.00  0.00    +0.005 A 
ATOM     21  C   UNL     1      12.220  -6.994  31.670  0.00  0.00    +0.120 A 
ATOM     22  C   UNL     1      11.573  -9.311  31.891  0.00  0.00    +0.004 A 
ATOM     24  C   UNL     1      11.225  -7.965  31.786  0.00  0.00    +0.045 A 
BRANCH  21   2
ATOM      2  O   UNL     1      11.880  -5.680  31.570  0.00  0.00    -0.495 OA
ATOM     25  C   UNL     1      12.705  -4.741  32.259  0.00  0.00    +0.277 C 
ENDBRANCH  21   2
ENDBRANCH  12  14
ENDBRANCH   4  12
TORSDOF 4
ENDMDL
MODEL 3
REMARK VINA RESULT:      -3.4      3.600      8.920
REMARK  Name = 75537049
REMARK  5 active torsions:
REMARK  status: ('A' for Active; 'I' for Inactive)
REMARK    1  A    between atoms: O_2  and  C_21
REMARK    2  A    between atoms: O_2  and  C_25
REMARK    3  A    between atoms: N_4  and  C_12
REMARK    4  A    between atoms: N_5  and  C_13
REMARK    5  A    between atoms: C_12  and  C_14
REMARK                            x       y       z     vdW  Elec       q    Type
REMARK                         _______ _______ _______ _____ _____    ______ ____
ROOT
ATOM      1  O   UNL     1      10.693  -6.111  32.873  0.00  0.00    -0.252 OA
ATOM      3  N   UNL     1      12.305  -7.754  32.502  0.00  0.00    -0.278 N 
ATOM      4  N   UNL     1      14.730  -8.914  31.672  0.00  0.00    -0.295 NA
ATOM      5  N   UNL     1      10.140  -8.330  32.168  0.00  0.00    -0.254 N 
ATOM      6  C   UNL     1      12.348  -9.170  32.236  0.00  0.00    +0.109 C 
ATOM      7  C   UNL     1      13.447  -9.493  31.223  0.00  0.00    +0.109 C 
ATOM      8  C   UNL     1      10.933  -9.488  31.769  0.00  0.00    +0.139 C 
ATOM      9  C   UNL     1      13.535  -7.053  32.805  0.00  0.00    +0.125 C 
ATOM     10  C   UNL     1      14.625  -7.448  31.805  0.00  0.00    +0.104 C 
ATOM     11  C   UNL     1      10.993  -7.255  32.560  0.00  0.00    +0.309 C 
ENDROOT
BRANCH   5  13
ATOM     13  C   UNL     1       8.718  -8.309  32.076  0.00  0.00    +0.038 A 
ATOM     15  C   UNL     1       8.065  -9.166  31.189  0.00  0.00    +0.023 A 
ATOM     16  C   UNL     1       7.980  -7.432  32.870  0.00  0.00    +0.023 A 
ATOM     19  C   UNL     1       6.673  -9.145  31.097  0.00  0.00    +0.002 A 
ATOM     20  C   UNL     1       6.589  -7.411  32.778  0.00  0.00    +0.002 A 
ATOM     23  C   UNL     1       5.935  -8.267  31.892  0.00  0.00    +0.000 A 
ENDBRANCH   5  13
BRANCH   4  12
ATOM     12  C   UNL     1      15.801  -9.268  30.742  0.00  0.00    +0.119 C 
BRANCH  12  14
ATOM     14  C   UNL     1      15.939  -8.257  29.635  0.00  0.00    -0.030 A 
ATOM     17  C   UNL     1      16.610  -7.056  29.867  0.00  0.00    +0.050 A 
ATOM     18  C   UNL     1      15.395  -8.521  28.378  0.00  0.00    +0.005 A 
ATOM     21  C   UNL     1      16.737  -6.119  28.841  0.00  0.00    +0.120 A 
ATOM     22  C   UNL     1      15.521  -7.583  27.353  0.00  0.00    +0.004 A 
ATOM     24  C   UNL     1      16.193  -6.383  27.584  0.00  0.00    +0.045 A 
BRANCH  21   2
ATOM      2  O   UNL     1      17.391  -4.947  29.068  0.00  0.00    -0.495 OA
ATOM     25  C   UNL     1      16.896  -4.120  30.119  0.00  0.00    +0.277 C 
ENDBRANCH  21   2
ENDBRANCH  12  14
ENDBRANCH   4  12
TORSDOF 4
ENDMDL
MODEL 4
REMARK VINA RESULT:      -3.4      2.149      2.821
REMARK  Name = 75537049
REMARK  5 active torsions:
REMARK  status: ('A' for Active; 'I' for Inactive)
REMARK    1  A    between atoms: O_2  and  C_21
REMARK    2  A    between atoms: O_2  and  C_25
REMARK    3  A    between atoms: N_4  and  C_12
REMARK    4  A    between atoms: N_5  and  C_13
REMARK    5  A    between atoms: C_12  and  C_14
REMARK                            x       y       z     vdW  Elec       q    Type
REMARK                         _______ _______ _______ _____ _____    ______ ____
ROOT
ATOM      1  O   UNL     1      15.609  -8.900  26.155  0.00  0.00    -0.252 OA
ATOM      3  N   UNL     1      16.369  -8.480  28.318  0.00  0.00    -0.278 N 
ATOM      4  N   UNL     1      16.354  -8.352  31.129  0.00  0.00    -0.295 NA
ATOM      5  N   UNL     1      16.897  -6.964  26.721  0.00  0.00    -0.254 N 
ATOM      6  C   UNL     1      17.252  -7.554  28.982  0.00  0.00    +0.109 C 
ATOM      7  C   UNL     1      16.682  -7.147  30.340  0.00  0.00    +0.109 C 
ATOM      8  C   UNL     1      17.392  -6.416  27.978  0.00  0.00    +0.139 C 
ATOM      9  C   UNL     1      15.862  -9.622  29.051  0.00  0.00    +0.125 C 
ATOM     10  C   UNL     1      15.355  -9.182  30.426  0.00  0.00    +0.104 C 
ATOM     11  C   UNL     1      16.221  -8.200  26.950  0.00  0.00    +0.309 C 
ENDROOT
BRANCH   5  13
ATOM     13  C   UNL     1      17.025  -6.272  25.482  0.00  0.00    +0.038 A 
ATOM     15  C   UNL     1      16.897  -4.884  25.442  0.00  0.00    +0.023 A 
ATOM     16  C   UNL     1      17.279  -6.983  24.309  0.00  0.00    +0.023 A 
ATOM     19  C   UNL     1      17.022  -4.206  24.229  0.00  0.00    +0.002 A 
ATOM     20  C   UNL     1      17.404  -6.305  23.096  0.00  0.00    +0.002 A 
ATOM     23  C   UNL     1      17.276  -4.917  23.056  0.00  0.00    +0.000 A 
ENDBRANCH   5  13
BRANCH   4  12
ATOM     12  C   UNL     1      15.863  -7.975  32.454  0.00  0.00    +0.119 C 
BRANCH  12  14
ATOM     14  C   UNL     1      15.266  -6.593  32.460  0.00  0.00    -0.030 A 
ATOM     17  C   UNL     1      13.880  -6.434  32.493  0.00  0.00    +0.050 A 
ATOM     18  C   UNL     1      16.096  -5.473  32.430  0.00  0.00    +0.005 A 
ATOM     21  C   UNL     1      13.326  -5.153  32.497  0.00  0.00    +0.120 A 
ATOM     22  C   UNL     1      15.542  -4.193  32.433  0.00  0.00    +0.004 A 
ATOM     24  C   UNL     1      14.157  -4.033  32.467  0.00  0.00    +0.045 A 
BRANCH  21   2
ATOM      2  O   UNL     1      11.974  -4.997  32.528  0.00  0.00    -0.495 OA
ATOM     25  C   UNL     1      11.195  -6.145  32.865  0.00  0.00    +0.277 C 
ENDBRANCH  21   2
ENDBRANCH  12  14
ENDBRANCH   4  12
TORSDOF 4
ENDMDL
MODEL 5
REMARK VINA RESULT:      -3.4      3.530      8.961
REMARK  Name = 75537049
REMARK  5 active torsions:
REMARK  status: ('A' for Active; 'I' for Inactive)
REMARK    1  A    between atoms: O_2  and  C_21
REMARK    2  A    between atoms: O_2  and  C_25
REMARK    3  A    between atoms: N_4  and  C_12
REMARK    4  A    between atoms: N_5  and  C_13
REMARK    5  A    between atoms: C_12  and  C_14
REMARK                            x       y       z     vdW  Elec       q    Type
REMARK                         _______ _______ _______ _____ _____    ______ ____
ROOT
ATOM      1  O   UNL     1      11.018  -6.431  32.156  0.00  0.00    -0.252 OA
ATOM      3  N   UNL     1      12.407  -8.302  32.170  0.00  0.00    -0.278 N 
ATOM      4  N   UNL     1      14.628  -9.930  31.590  0.00  0.00    -0.295 NA
ATOM      5  N   UNL     1      10.174  -8.669  32.071  0.00  0.00    -0.254 N 
ATOM      6  C   UNL     1      12.274  -9.734  32.280  0.00  0.00    +0.109 C 
ATOM      7  C   UNL     1      13.262 -10.438  31.350  0.00  0.00    +0.109 C 
ATOM      8  C   UNL     1      10.805  -9.980  31.960  0.00  0.00    +0.139 C 
ATOM      9  C   UNL     1      13.726  -7.708  32.239  0.00  0.00    +0.125 C 
ATOM     10  C   UNL     1      14.697  -8.476  31.340  0.00  0.00    +0.104 C 
ATOM     11  C   UNL     1      11.166  -7.645  32.141  0.00  0.00    +0.309 C 
ENDROOT
BRANCH   5  13
ATOM     13  C   UNL     1       8.761  -8.495  32.024  0.00  0.00    +0.038 A 
ATOM     15  C   UNL     1       8.144  -7.575  32.873  0.00  0.00    +0.023 A 
ATOM     16  C   UNL     1       7.994  -9.242  31.131  0.00  0.00    +0.023 A 
ATOM     19  C   UNL     1       6.760  -7.404  32.829  0.00  0.00    +0.002 A 
ATOM     20  C   UNL     1       6.611  -9.071  31.086  0.00  0.00    +0.002 A 
ATOM     23  C   UNL     1       5.994  -8.152  31.936  0.00  0.00    +0.000 A 
ENDBRANCH   5  13
BRANCH   4  12
ATOM     12  C   UNL     1      15.590 -10.639  30.747  0.00  0.00    +0.119 C 
BRANCH  12  14
ATOM     14  C   UNL     1      15.568 -10.139  29.327  0.00  0.00    -0.030 A 
ATOM     17  C   UNL     1      16.343  -9.036  28.965  0.00  0.00    +0.050 A 
ATOM     18  C   UNL     1      14.774 -10.777  28.375  0.00  0.00    +0.005 A 
ATOM     21  C   UNL     1      16.322  -8.573  27.649  0.00  0.00    +0.120 A 
ATOM     22  C   UNL     1      14.753 -10.312  27.060  0.00  0.00    +0.004 A 
ATOM     24  C   UNL     1      15.527  -9.211  26.697  0.00  0.00    +0.045 A 
BRANCH  21   2
ATOM      2  O   UNL     1      17.076  -7.496  27.296  0.00  0.00    -0.495 OA
ATOM     25  C   UNL     1      16.479  -6.544  26.417  0.00  0.00    +0.277 C 
ENDBRANCH  21   2
ENDBRANCH  12  14
ENDBRANCH   4  12
TORSDOF 4
ENDMDL
MODEL 6
REMARK VINA RESULT:      -3.4      3.508      8.573
REMARK  Name = 75537049
REMARK  5 active torsions:
REMARK  status: ('A' for Active; 'I' for Inactive)
REMARK    1  A    between atoms: O_2  and  C_21
REMARK    2  A    between atoms: O_2  and  C_25
REMARK    3  A    between atoms: N_4  and  C_12
REMARK    4  A    between atoms: N_5  and  C_13
REMARK    5  A    between atoms: C_12  and  C_14
REMARK                            x       y       z     vdW  Elec       q    Type
REMARK                         _______ _______ _______ _____ _____    ______ ____
ROOT
ATOM      1  O   UNL     1      11.149  -6.364  32.455  0.00  0.00    -0.252 OA
ATOM      3  N   UNL     1      13.121  -7.558  32.110  0.00  0.00    -0.278 N 
ATOM      4  N   UNL     1      15.713  -8.137  31.179  0.00  0.00    -0.295 NA
ATOM      5  N   UNL     1      11.180  -8.724  32.055  0.00  0.00    -0.254 N 
ATOM      6  C   UNL     1      13.533  -8.935  31.997  0.00  0.00    +0.109 C 
ATOM      7  C   UNL     1      14.611  -9.087  30.924  0.00  0.00    +0.109 C 
ATOM      8  C   UNL     1      12.232  -9.673  31.710  0.00  0.00    +0.139 C 
ATOM      9  C   UNL     1      14.130  -6.524  32.212  0.00  0.00    +0.125 C 
ATOM     10  C   UNL     1      15.219  -6.745  31.160  0.00  0.00    +0.104 C 
ATOM     11  C   UNL     1      11.729  -7.420  32.241  0.00  0.00    +0.309 C 
ENDROOT
BRANCH   5  13
ATOM     13  C   UNL     1       9.804  -9.091  32.100  0.00  0.00    +0.038 A 
ATOM     15  C   UNL     1       8.847  -8.157  32.498  0.00  0.00    +0.023 A 
ATOM     16  C   UNL     1       9.413 -10.382  31.748  0.00  0.00    +0.023 A 
ATOM     19  C   UNL     1       7.499  -8.515  32.544  0.00  0.00    +0.002 A 
ATOM     20  C   UNL     1       8.067 -10.741  31.793  0.00  0.00    +0.002 A 
ATOM     23  C   UNL     1       7.109  -9.807  32.191  0.00  0.00    +0.000 A 
ENDBRANCH   5  13
BRANCH   4  12
ATOM     12  C   UNL     1      16.777  -8.315  30.193  0.00  0.00    +0.119 C 
BRANCH  12  14
ATOM     14  C   UNL     1      16.251  -8.259  28.783  0.00  0.00    -0.030 A 
ATOM     17  C   UNL     1      16.016  -9.441  28.080  0.00  0.00    +0.050 A 
ATOM     18  C   UNL     1      16.001  -7.026  28.180  0.00  0.00    +0.005 A 
ATOM     21  C   UNL     1      15.530  -9.389  26.773  0.00  0.00    +0.120 A 
ATOM     22  C   UNL     1      15.515  -6.975  26.873  0.00  0.00    +0.004 A 
ATOM     24  C   UNL     1      15.279  -8.156  26.170  0.00  0.00    +0.045 A 
BRANCH  21   2
ATOM      2  O   UNL     1      15.302 -10.542  26.087  0.00  0.00    -0.495 OA
ATOM     25  C   UNL     1      14.358 -10.486  25.018  0.00  0.00    +0.277 C 
ENDBRANCH  21   2
ENDBRANCH  12  14
ENDBRANCH   4  12
TORSDOF 4
ENDMDL
MODEL 7
REMARK VINA RESULT:      -2.9      1.768      2.748
REMARK  Name = 75537049
REMARK  5 active torsions:
REMARK  status: ('A' for Active; 'I' for Inactive)
REMARK    1  A    between atoms: O_2  and  C_21
REMARK    2  A    between atoms: O_2  and  C_25
REMARK    3  A    between atoms: N_4  and  C_12
REMARK    4  A    between atoms: N_5  and  C_13
REMARK    5  A    between atoms: C_12  and  C_14
REMARK                            x       y       z     vdW  Elec       q    Type
REMARK                         _______ _______ _______ _____ _____    ______ ____
ROOT
ATOM      1  O   UNL     1      15.323  -8.922  26.447  0.00  0.00    -0.252 OA
ATOM      3  N   UNL     1      15.769  -8.815  28.732  0.00  0.00    -0.278 N 
ATOM      4  N   UNL     1      15.356  -9.072  31.504  0.00  0.00    -0.295 NA
ATOM      5  N   UNL     1      16.513  -7.104  27.449  0.00  0.00    -0.254 N 
ATOM      6  C   UNL     1      16.547  -8.004  29.634  0.00  0.00    +0.109 C 
ATOM      7  C   UNL     1      15.790  -7.776  30.942  0.00  0.00    +0.109 C 
ATOM      8  C   UNL     1      16.825  -6.742  28.827  0.00  0.00    +0.139 C 
ATOM      9  C   UNL     1      15.166 -10.038  29.222  0.00  0.00    +0.125 C 
ATOM     10  C   UNL     1      14.469  -9.781  30.560  0.00  0.00    +0.104 C 
ATOM     11  C   UNL     1      15.815  -8.348  27.409  0.00  0.00    +0.309 C 
ENDROOT
BRANCH   5  13
ATOM     13  C   UNL     1      16.814  -6.251  26.348  0.00  0.00    +0.038 A 
ATOM     15  C   UNL     1      16.814  -6.763  25.050  0.00  0.00    +0.023 A 
ATOM     16  C   UNL     1      17.110  -4.906  26.566  0.00  0.00    +0.023 A 
ATOM     19  C   UNL     1      17.110  -5.930  23.971  0.00  0.00    +0.002 A 
ATOM     20  C   UNL     1      17.405  -4.073  25.488  0.00  0.00    +0.002 A 
ATOM     23  C   UNL     1      17.405  -4.585  24.190  0.00  0.00    +0.000 A 
ENDBRANCH   5  13
BRANCH   4  12
ATOM     12  C   UNL     1      14.682  -8.872  32.786  0.00  0.00    +0.119 C 
BRANCH  12  14
ATOM     14  C   UNL     1      13.487  -7.966  32.657  0.00  0.00    -0.030 A 
ATOM     17  C   UNL     1      12.200  -8.486  32.793  0.00  0.00    +0.050 A 
ATOM     18  C   UNL     1      13.667  -6.607  32.399  0.00  0.00    +0.005 A 
ATOM     21  C   UNL     1      11.093  -7.646  32.673  0.00  0.00    +0.120 A 
ATOM     22  C   UNL     1      12.559  -5.768  32.278  0.00  0.00    +0.004 A 
ATOM     24  C   UNL     1      11.272  -6.287  32.415  0.00  0.00    +0.045 A 
BRANCH  21   2
ATOM      2  O   UNL     1       9.837  -8.154  32.805  0.00  0.00    -0.495 OA
ATOM     25  C   UNL     1       9.577  -9.413  32.186  0.00  0.00    +0.277 C 
ENDBRANCH  21   2
ENDBRANCH  12  14
ENDBRANCH   4  12
TORSDOF 4
ENDMDL
