MODEL 1
REMARK VINA RESULT:       4.2      0.000      0.000
REMARK  Name = 45361661
REMARK  10 active torsions:
REMARK  status: ('A' for Active; 'I' for Inactive)
REMARK    1  A    between atoms: O_2  and  C_12
REMARK    2  A    between atoms: N_6  and  C_16
REMARK    3  A    between atoms: N_7  and  C_25
REMARK    4  A    between atoms: N_8  and  C_26
REMARK    5  A    between atoms: C_9  and  C_19
REMARK    6  A    between atoms: C_11  and  C_21
REMARK    7  A    between atoms: C_15  and  C_20
REMARK    8  A    between atoms: C_20  and  C_22
REMARK    9  A    between atoms: C_20  and  C_23
REMARK   10  A    between atoms: C_25  and  C_27
REMARK                            x       y       z     vdW  Elec       q    Type
REMARK                         _______ _______ _______ _____ _____    ______ ____
ROOT
ATOM      9  C   UNL     1      -2.442  -0.768  24.870  0.00  0.00    -0.027 C 
ATOM     10  C   UNL     1      -2.647   0.389  23.836  0.00  0.00    +0.028 C 
ATOM     11  C   UNL     1      -1.265   0.945  23.339  0.00  0.00    +0.012 C 
ATOM     12  C   UNL     1      -3.642   1.456  24.373  0.00  0.00    +0.122 C 
ATOM     13  C   UNL     1      -3.816  -1.367  25.252  0.00  0.00    +0.007 C 
ATOM     14  C   UNL     1      -1.606  -1.889  24.213  0.00  0.00    +0.009 C 
ATOM     15  C   UNL     1      -4.977   0.838  24.852  0.00  0.00    +0.029 C 
ATOM     16  C   UNL     1      -0.402  -0.206  22.747  0.00  0.00    +0.078 C 
ATOM     17  C   UNL     1      -4.780  -0.331  25.817  0.00  0.00    +0.007 C 
ATOM     18  C   UNL     1      -0.263  -1.404  23.686  0.00  0.00    +0.023 C 
ATOM     19  C   UNL     1      -1.730  -0.291  26.161  0.00  0.00    +0.011 C 
ATOM     21  C   UNL     1      -1.393   2.069  22.295  0.00  0.00    +0.010 C 
ENDROOT
BRANCH  16   6
ATOM      4  O   UNL     1       2.050  -0.844  24.082  0.00  0.00    -0.253 OA
ATOM      6  N   UNL     1       0.924   0.250  22.385  0.00  0.00    -0.296 N 
ATOM      8  N   UNL     1       3.201   0.475  22.518  0.00  0.00    -0.269 N 
ATOM     24  C   UNL     1       2.071  -0.112  23.096  0.00  0.00    +0.304 C 
ATOM     36  H   UNL     1       1.013   0.924  21.632  0.00  0.00    +0.151 HD
ATOM     39  H   UNL     1       3.044   1.057  21.699  0.00  0.00    +0.156 HD
BRANCH   8  26
ATOM      1  F   UNL     1       7.594  -1.383  21.975  0.00  0.00    -0.205 F 
ATOM     26  C   UNL     1       4.547   0.359  22.934  0.00  0.00    +0.037 A 
ATOM     28  C   UNL     1       5.425  -0.471  22.235  0.00  0.00    +0.061 A 
ATOM     29  C   UNL     1       4.998   1.073  24.044  0.00  0.00    +0.023 A 
ATOM     31  C   UNL     1       6.753  -0.586  22.646  0.00  0.00    +0.125 A 
ATOM     32  C   UNL     1       6.326   0.958  24.455  0.00  0.00    +0.005 A 
ATOM     35  C   UNL     1       7.204   0.128  23.757  0.00  0.00    +0.038 A 
ENDBRANCH   8  26
ENDBRANCH  16   6
BRANCH  12   2
ATOM      2  O   UNL     1      -3.969   2.374  23.328  0.00  0.00    -0.391 OA
ATOM     37  H   UNL     1      -3.766   1.948  22.479  0.00  0.00    +0.210 HD
ENDBRANCH  12   2
BRANCH  15  20
ATOM     20  C   UNL     1      -5.891   1.886  25.498  0.00  0.00    +0.077 C 
ATOM     22  C   UNL     1      -7.172   2.037  24.685  0.00  0.00    +0.017 C 
BRANCH  20  23
ATOM      3  O   UNL     1      -5.495   4.225  25.014  0.00  0.00    -0.276 OA
ATOM      7  N   UNL     1      -4.071   3.141  26.489  0.00  0.00    -0.308 N 
ATOM     23  C   UNL     1      -5.152   3.215  25.624  0.00  0.00    +0.217 C 
ATOM     38  H   UNL     1      -3.842   2.255  26.930  0.00  0.00    +0.149 HD
BRANCH   7  25
ATOM     25  C   UNL     1      -3.217   4.272  26.770  0.00  0.00    +0.178 C 
BRANCH  25  27
ATOM      5  O   UNL     1      -1.137   3.182  26.141  0.00  0.00    -0.466 OA
ATOM     27  C   UNL     1      -1.961   4.245  25.946  0.00  0.00    +0.122 A 
ATOM     30  C   UNL     1      -1.441   5.092  24.997  0.00  0.00    +0.046 A 
ATOM     33  C   UNL     1      -0.217   4.514  24.583  0.00  0.00    +0.041 A 
ATOM     34  C   UNL     1      -0.078   3.354  25.308  0.00  0.00    +0.195 A 
ENDBRANCH  25  27
ENDBRANCH   7  25
ENDBRANCH  20  23
ENDBRANCH  15  20
TORSDOF 7
ENDMDL
MODEL 2
REMARK VINA RESULT:       4.5     15.138     16.769
REMARK  Name = 45361661
REMARK  10 active torsions:
REMARK  status: ('A' for Active; 'I' for Inactive)
REMARK    1  A    between atoms: O_2  and  C_12
REMARK    2  A    between atoms: N_6  and  C_16
REMARK    3  A    between atoms: N_7  and  C_25
REMARK    4  A    between atoms: N_8  and  C_26
REMARK    5  A    between atoms: C_9  and  C_19
REMARK    6  A    between atoms: C_11  and  C_21
REMARK    7  A    between atoms: C_15  and  C_20
REMARK    8  A    between atoms: C_20  and  C_22
REMARK    9  A    between atoms: C_20  and  C_23
REMARK   10  A    between atoms: C_25  and  C_27
REMARK                            x       y       z     vdW  Elec       q    Type
REMARK                         _______ _______ _______ _____ _____    ______ ____
ROOT
ATOM      9  C   UNL     1      -5.029 -10.108  14.106  0.00  0.00    -0.027 C 
ATOM     10  C   UNL     1      -5.206 -10.338  12.568  0.00  0.00    +0.028 C 
ATOM     11  C   UNL     1      -3.978  -9.767  11.772  0.00  0.00    +0.012 C 
ATOM     12  C   UNL     1      -6.601  -9.852  12.082  0.00  0.00    +0.122 C 
ATOM     13  C   UNL     1      -6.196 -10.779  14.866  0.00  0.00    +0.007 C 
ATOM     14  C   UNL     1      -3.716 -10.781  14.568  0.00  0.00    +0.009 C 
ATOM     15  C   UNL     1      -7.761 -10.447  12.914  0.00  0.00    +0.029 C 
ATOM     16  C   UNL     1      -2.656 -10.397  12.297  0.00  0.00    +0.078 C 
ATOM     17  C   UNL     1      -7.563 -10.276  14.420  0.00  0.00    +0.007 C 
ATOM     18  C   UNL     1      -2.492 -10.286  13.813  0.00  0.00    +0.023 C 
ATOM     19  C   UNL     1      -4.990  -8.604  14.481  0.00  0.00    +0.011 C 
ATOM     21  C   UNL     1      -4.073  -9.986  10.252  0.00  0.00    +0.010 C 
ENDROOT
BRANCH  16   6
ATOM      4  O   UNL     1      -0.832  -8.529  13.474  0.00  0.00    -0.253 OA
ATOM      6  N   UNL     1      -1.494  -9.807  11.665  0.00  0.00    -0.296 N 
ATOM      8  N   UNL     1       0.379  -8.502  11.463  0.00  0.00    -0.269 N 
ATOM     24  C   UNL     1      -0.654  -8.900  12.316  0.00  0.00    +0.304 C 
ATOM     36  H   UNL     1      -1.329 -10.001  10.682  0.00  0.00    +0.151 HD
ATOM     39  H   UNL     1       0.382  -8.907  10.530  0.00  0.00    +0.156 HD
BRANCH   8  26
ATOM      1  F   UNL     1       5.066  -7.569  11.929  0.00  0.00    -0.205 F 
ATOM     26  C   UNL     1       1.433  -7.600  11.738  0.00  0.00    +0.037 A 
ATOM     28  C   UNL     1       2.756  -8.038  11.697  0.00  0.00    +0.061 A 
ATOM     29  C   UNL     1       1.148  -6.271  12.053  0.00  0.00    +0.023 A 
ATOM     31  C   UNL     1       3.795  -7.148  11.969  0.00  0.00    +0.125 A 
ATOM     32  C   UNL     1       2.186  -5.381  12.325  0.00  0.00    +0.005 A 
ATOM     35  C   UNL     1       3.510  -5.819  12.284  0.00  0.00    +0.038 A 
ENDBRANCH   8  26
ENDBRANCH  16   6
BRANCH  12   2
ATOM      2  O   UNL     1      -6.810 -10.272  10.733  0.00  0.00    -0.391 OA
ATOM     37  H   UNL     1      -6.053  -9.969  10.203  0.00  0.00    +0.210 HD
ENDBRANCH  12   2
BRANCH  15  20
ATOM     20  C   UNL     1      -9.117  -9.856  12.506  0.00  0.00    +0.077 C 
ATOM     22  C   UNL     1     -10.250 -10.677  13.112  0.00  0.00    +0.017 C 
BRANCH  20  23
ATOM      3  O   UNL     1      -9.518 -10.775  10.303  0.00  0.00    -0.276 OA
ATOM      7  N   UNL     1      -8.947  -8.535  10.482  0.00  0.00    -0.308 N 
ATOM     23  C   UNL     1      -9.222  -9.797  10.985  0.00  0.00    +0.217 C 
ATOM     38  H   UNL     1      -8.681  -7.789  11.119  0.00  0.00    +0.149 HD
BRANCH   7  25
ATOM     25  C   UNL     1      -8.981  -8.232   9.070  0.00  0.00    +0.178 C 
BRANCH  25  27
ATOM      5  O   UNL     1      -7.893  -6.096   8.671  0.00  0.00    -0.466 OA
ATOM     27  C   UNL     1      -9.073  -6.756   8.814  0.00  0.00    +0.122 A 
ATOM     30  C   UNL     1     -10.131  -5.887   8.684  0.00  0.00    +0.046 A 
ATOM     33  C   UNL     1      -9.565  -4.611   8.448  0.00  0.00    +0.041 A 
ATOM     34  C   UNL     1      -8.202  -4.791   8.449  0.00  0.00    +0.195 A 
ENDBRANCH  25  27
ENDBRANCH   7  25
ENDBRANCH  20  23
ENDBRANCH  15  20
TORSDOF 7
ENDMDL
MODEL 3
REMARK VINA RESULT:       8.0      1.969      4.305
REMARK  Name = 45361661
REMARK  10 active torsions:
REMARK  status: ('A' for Active; 'I' for Inactive)
REMARK    1  A    between atoms: O_2  and  C_12
REMARK    2  A    between atoms: N_6  and  C_16
REMARK    3  A    between atoms: N_7  and  C_25
REMARK    4  A    between atoms: N_8  and  C_26
REMARK    5  A    between atoms: C_9  and  C_19
REMARK    6  A    between atoms: C_11  and  C_21
REMARK    7  A    between atoms: C_15  and  C_20
REMARK    8  A    between atoms: C_20  and  C_22
REMARK    9  A    between atoms: C_20  and  C_23
REMARK   10  A    between atoms: C_25  and  C_27
REMARK                            x       y       z     vdW  Elec       q    Type
REMARK                         _______ _______ _______ _____ _____    ______ ____
ROOT
ATOM      9  C   UNL     1      -3.135   4.523  24.573  0.00  0.00    -0.027 C 
ATOM     10  C   UNL     1      -2.803   3.131  25.207  0.00  0.00    +0.028 C 
ATOM     11  C   UNL     1      -1.581   2.464  24.480  0.00  0.00    +0.012 C 
ATOM     12  C   UNL     1      -4.077   2.246  25.323  0.00  0.00    +0.122 C 
ATOM     13  C   UNL     1      -4.266   5.201  25.381  0.00  0.00    +0.007 C 
ATOM     14  C   UNL     1      -1.886   5.428  24.661  0.00  0.00    +0.009 C 
ATOM     15  C   UNL     1      -5.240   2.968  26.041  0.00  0.00    +0.029 C 
ATOM     16  C   UNL     1      -0.351   3.415  24.510  0.00  0.00    +0.078 C 
ATOM     17  C   UNL     1      -5.529   4.354  25.463  0.00  0.00    +0.007 C 
ATOM     18  C   UNL     1      -0.659   4.821  23.995  0.00  0.00    +0.023 C 
ATOM     19  C   UNL     1      -3.581   4.411  23.093  0.00  0.00    +0.011 C 
ATOM     21  C   UNL     1      -1.181   1.101  25.073  0.00  0.00    +0.010 C 
ENDROOT
BRANCH  16   6
ATOM      4  O   UNL     1       1.372   1.259  25.278  0.00  0.00    -0.253 OA
ATOM      6  N   UNL     1       0.758   2.880  23.748  0.00  0.00    -0.296 N 
ATOM      8  N   UNL     1       2.539   1.523  23.258  0.00  0.00    -0.269 N 
ATOM     24  C   UNL     1       1.550   1.822  24.200  0.00  0.00    +0.304 C 
ATOM     36  H   UNL     1       1.020   3.347  22.885  0.00  0.00    +0.151 HD
ATOM     39  H   UNL     1       2.548   2.087  22.412  0.00  0.00    +0.156 HD
BRANCH   8  26
ATOM      1  F   UNL     1       7.158   0.218  23.169  0.00  0.00    -0.205 F 
ATOM     26  C   UNL     1       3.537   0.524  23.335  0.00  0.00    +0.037 A 
ATOM     28  C   UNL     1       4.883   0.870  23.212  0.00  0.00    +0.061 A 
ATOM     29  C   UNL     1       3.175  -0.809  23.532  0.00  0.00    +0.023 A 
ATOM     31  C   UNL     1       5.866  -0.116  23.287  0.00  0.00    +0.125 A 
ATOM     32  C   UNL     1       4.158  -1.795  23.607  0.00  0.00    +0.005 A 
ATOM     35  C   UNL     1       5.504  -1.449  23.485  0.00  0.00    +0.038 A 
ENDBRANCH   8  26
ENDBRANCH  16   6
BRANCH  12   2
ATOM      2  O   UNL     1      -3.780   1.081  26.095  0.00  0.00    -0.391 OA
ATOM     37  H   UNL     1      -2.828   0.904  26.019  0.00  0.00    +0.210 HD
ENDBRANCH  12   2
BRANCH  15  20
ATOM     20  C   UNL     1      -6.525   2.131  26.029  0.00  0.00    +0.077 C 
ATOM     22  C   UNL     1      -6.656   1.354  27.335  0.00  0.00    +0.017 C 
BRANCH  20  23
ATOM      3  O   UNL     1      -7.341   1.295  23.909  0.00  0.00    -0.276 OA
ATOM      7  N   UNL     1      -5.520   0.245  24.887  0.00  0.00    -0.308 N 
ATOM     23  C   UNL     1      -6.527   1.197  24.823  0.00  0.00    +0.217 C 
ATOM     38  H   UNL     1      -4.907   0.218  25.697  0.00  0.00    +0.149 HD
BRANCH   7  25
ATOM     25  C   UNL     1      -5.321  -0.751  23.860  0.00  0.00    +0.178 C 
BRANCH  25  27
ATOM      5  O   UNL     1      -2.943  -0.953  24.319  0.00  0.00    -0.466 OA
ATOM     27  C   UNL     1      -4.119  -1.609  24.135  0.00  0.00    +0.122 A 
ATOM     30  C   UNL     1      -3.938  -2.967  24.248  0.00  0.00    +0.046 A 
ATOM     33  C   UNL     1      -2.562  -3.159  24.518  0.00  0.00    +0.041 A 
ATOM     34  C   UNL     1      -2.000  -1.904  24.551  0.00  0.00    +0.195 A 
ENDBRANCH  25  27
ENDBRANCH   7  25
ENDBRANCH  20  23
ENDBRANCH  15  20
TORSDOF 7
ENDMDL
