MODEL 1
REMARK VINA RESULT:       0.3      0.000      0.000
REMARK  Name = 26742630
REMARK  10 active torsions:
REMARK  status: ('A' for Active; 'I' for Inactive)
REMARK    1  A    between atoms: S_1  and  N_7
REMARK    2  A    between atoms: S_1  and  C_19
REMARK    3  A    between atoms: N_8  and  C_22
REMARK    4  A    between atoms: C_10  and  C_15
REMARK    5  A    between atoms: C_11  and  C_16
REMARK    6  A    between atoms: C_15  and  C_17
REMARK    7  A    between atoms: C_16  and  C_18
REMARK    8  A    between atoms: C_20  and  C_23
REMARK    9  A    between atoms: C_21  and  C_24
REMARK   10  A    between atoms: C_22  and  C_25
REMARK                            x       y       z     vdW  Elec       q    Type
REMARK                         _______ _______ _______ _____ _____    ______ ____
ROOT
ATOM      7  N   UNL     1      -2.298  -0.730  24.655  0.00  0.00    -0.176 NA
ATOM     10  C   UNL     1      -4.274   0.219  23.486  0.00  0.00    +0.008 C 
ATOM     11  C   UNL     1      -5.163  -0.231  24.669  0.00  0.00    +0.003 C 
ATOM     12  C   UNL     1      -4.352  -0.349  25.968  0.00  0.00    +0.021 C 
ATOM     13  C   UNL     1      -3.053  -0.707  23.367  0.00  0.00    +0.113 C 
ATOM     14  C   UNL     1      -3.128  -1.241  25.782  0.00  0.00    +0.110 C 
ENDROOT
BRANCH   7   1
ATOM      1  S   UNL     1      -0.711  -1.373  24.563  0.00  0.00    +0.066 S 
ATOM      3  O   UNL     1      -0.624  -2.250  23.416  0.00  0.00    -0.153 OA
ATOM      4  O   UNL     1      -0.311  -1.822  25.879  0.00  0.00    -0.153 OA
BRANCH   1  19
ATOM      6  O   UNL     1       1.557   1.571  23.222  0.00  0.00    -0.358 OA
ATOM      9  N   UNL     1       1.003   2.221  24.317  0.00  0.00    -0.081 NA
ATOM     19  C   UNL     1       0.195   0.096  24.191  0.00  0.00    +0.170 A 
ATOM     20  C   UNL     1       1.068   0.306  23.158  0.00  0.00    +0.161 A 
ATOM     21  C   UNL     1       0.193   1.321  24.881  0.00  0.00    +0.107 A 
ATOM     23  C   UNL     1       1.558  -0.525  22.049  0.00  0.00    +0.091 C 
ATOM     24  C   UNL     1      -0.569   1.683  26.088  0.00  0.00    +0.071 C 
ENDBRANCH   1  19
ENDBRANCH   7   1
BRANCH  10  15
ATOM     15  C   UNL     1      -3.831   1.687  23.558  0.00  0.00    +0.002 C 
ATOM     17  C   UNL     1      -2.693   1.962  22.599  0.00  0.00    +0.004 C 
ENDBRANCH  10  15
BRANCH  11  16
ATOM     16  C   UNL     1      -6.385   0.664  24.877  0.00  0.00    +0.099 C 
BRANCH  16  18
ATOM      5  O   UNL     1      -6.123   1.855  26.968  0.00  0.00    -0.276 OA
ATOM      8  N   UNL     1      -5.733   2.967  24.965  0.00  0.00    -0.311 N 
ATOM     18  C   UNL     1      -6.073   1.868  25.741  0.00  0.00    +0.214 C 
ATOM     31  H   UNL     1      -5.729   2.883  23.953  0.00  0.00    +0.149 HD
BRANCH   8  22
ATOM     22  C   UNL     1      -5.390   4.253  25.526  0.00  0.00    +0.139 C 
BRANCH  22  25
ATOM      2  F   UNL     1       0.072   5.452  24.835  0.00  0.00    -0.205 F 
ATOM     25  C   UNL     1      -3.931   4.574  25.342  0.00  0.00    -0.030 A 
ATOM     26  C   UNL     1      -3.514   5.322  24.240  0.00  0.00    +0.008 A 
ATOM     27  C   UNL     1      -2.995   4.122  26.273  0.00  0.00    +0.008 A 
ATOM     28  C   UNL     1      -2.163   5.619  24.070  0.00  0.00    +0.038 A 
ATOM     29  C   UNL     1      -1.643   4.420  26.101  0.00  0.00    +0.038 A 
ATOM     30  C   UNL     1      -1.226   5.168  25.001  0.00  0.00    +0.123 A 
ENDBRANCH  22  25
ENDBRANCH   8  22
ENDBRANCH  16  18
ENDBRANCH  11  16
TORSDOF 7
ENDMDL
MODEL 2
REMARK VINA RESULT:       0.8      2.831      6.573
REMARK  Name = 26742630
REMARK  10 active torsions:
REMARK  status: ('A' for Active; 'I' for Inactive)
REMARK    1  A    between atoms: S_1  and  N_7
REMARK    2  A    between atoms: S_1  and  C_19
REMARK    3  A    between atoms: N_8  and  C_22
REMARK    4  A    between atoms: C_10  and  C_15
REMARK    5  A    between atoms: C_11  and  C_16
REMARK    6  A    between atoms: C_15  and  C_17
REMARK    7  A    between atoms: C_16  and  C_18
REMARK    8  A    between atoms: C_20  and  C_23
REMARK    9  A    between atoms: C_21  and  C_24
REMARK   10  A    between atoms: C_22  and  C_25
REMARK                            x       y       z     vdW  Elec       q    Type
REMARK                         _______ _______ _______ _____ _____    ______ ____
ROOT
ATOM      7  N   UNL     1      -1.980   3.154  25.481  0.00  0.00    -0.176 NA
ATOM     10  C   UNL     1      -0.599   2.662  23.475  0.00  0.00    +0.008 C 
ATOM     11  C   UNL     1       0.577   2.278  24.406  0.00  0.00    +0.003 C 
ATOM     12  C   UNL     1       0.076   1.824  25.785  0.00  0.00    +0.021 C 
ATOM     13  C   UNL     1      -1.503   3.691  24.172  0.00  0.00    +0.113 C 
ATOM     14  C   UNL     1      -0.852   2.861  26.410  0.00  0.00    +0.110 C 
ENDROOT
BRANCH   7   1
ATOM      1  S   UNL     1      -3.305   3.990  26.177  0.00  0.00    +0.066 S 
ATOM      3  O   UNL     1      -3.322   5.347  25.676  0.00  0.00    -0.153 OA
ATOM      4  O   UNL     1      -3.336   3.717  27.597  0.00  0.00    -0.153 OA
BRANCH   1  19
ATOM      6  O   UNL     1      -6.048   2.250  23.927  0.00  0.00    -0.358 OA
ATOM      9  N   UNL     1      -6.523   1.857  25.171  0.00  0.00    -0.081 NA
ATOM     19  C   UNL     1      -4.646   3.120  25.426  0.00  0.00    +0.170 A 
ATOM     20  C   UNL     1      -4.930   3.002  24.092  0.00  0.00    +0.161 A 
ATOM     21  C   UNL     1      -5.670   2.387  26.051  0.00  0.00    +0.107 A 
ATOM     23  C   UNL     1      -4.297   3.505  22.865  0.00  0.00    +0.091 C 
ATOM     24  C   UNL     1      -5.878   2.164  27.492  0.00  0.00    +0.071 C 
ENDBRANCH   1  19
ENDBRANCH   7   1
BRANCH  10  15
ATOM     15  C   UNL     1      -1.424   1.465  22.984  0.00  0.00    +0.002 C 
ATOM     17  C   UNL     1      -2.274   1.842  21.789  0.00  0.00    +0.004 C 
ENDBRANCH  10  15
BRANCH  11  16
ATOM     16  C   UNL     1       1.507   1.228  23.798  0.00  0.00    +0.099 C 
BRANCH  16  18
ATOM      5  O   UNL     1       0.703  -0.719  22.605  0.00  0.00    -0.276 OA
ATOM      8  N   UNL     1       0.408  -0.587  24.907  0.00  0.00    -0.311 N 
ATOM     18  C   UNL     1       0.839  -0.125  23.672  0.00  0.00    +0.214 C 
ATOM     31  H   UNL     1       0.557  -0.018  25.735  0.00  0.00    +0.149 HD
BRANCH   8  22
ATOM     22  C   UNL     1      -0.267  -1.852  25.084  0.00  0.00    +0.139 C 
BRANCH  22  25
ATOM      2  F   UNL     1      -5.781  -1.463  23.992  0.00  0.00    -0.205 F 
ATOM     25  C   UNL     1      -1.740  -1.748  24.792  0.00  0.00    -0.030 A 
ATOM     26  C   UNL     1      -2.446  -0.603  25.162  0.00  0.00    +0.008 A 
ATOM     27  C   UNL     1      -2.400  -2.798  24.151  0.00  0.00    +0.008 A 
ATOM     28  C   UNL     1      -3.810  -0.507  24.891  0.00  0.00    +0.038 A 
ATOM     29  C   UNL     1      -3.765  -2.700  23.880  0.00  0.00    +0.038 A 
ATOM     30  C   UNL     1      -4.471  -1.556  24.250  0.00  0.00    +0.123 A 
ENDBRANCH  22  25
ENDBRANCH   8  22
ENDBRANCH  16  18
ENDBRANCH  11  16
TORSDOF 7
ENDMDL
MODEL 3
REMARK VINA RESULT:       1.1      2.304      4.782
REMARK  Name = 26742630
REMARK  10 active torsions:
REMARK  status: ('A' for Active; 'I' for Inactive)
REMARK    1  A    between atoms: S_1  and  N_7
REMARK    2  A    between atoms: S_1  and  C_19
REMARK    3  A    between atoms: N_8  and  C_22
REMARK    4  A    between atoms: C_10  and  C_15
REMARK    5  A    between atoms: C_11  and  C_16
REMARK    6  A    between atoms: C_15  and  C_17
REMARK    7  A    between atoms: C_16  and  C_18
REMARK    8  A    between atoms: C_20  and  C_23
REMARK    9  A    between atoms: C_21  and  C_24
REMARK   10  A    between atoms: C_22  and  C_25
REMARK                            x       y       z     vdW  Elec       q    Type
REMARK                         _______ _______ _______ _____ _____    ______ ____
ROOT
ATOM      7  N   UNL     1      -0.912   2.777  24.494  0.00  0.00    -0.176 NA
ATOM     10  C   UNL     1      -2.476   4.625  25.053  0.00  0.00    +0.008 C 
ATOM     11  C   UNL     1      -3.402   4.161  23.903  0.00  0.00    +0.003 C 
ATOM     12  C   UNL     1      -3.207   2.668  23.594  0.00  0.00    +0.021 C 
ATOM     13  C   UNL     1      -1.020   4.246  24.737  0.00  0.00    +0.113 C 
ATOM     14  C   UNL     1      -1.740   2.339  23.334  0.00  0.00    +0.110 C 
ENDROOT
BRANCH   7   1
ATOM      1  S   UNL     1       0.679   2.141  24.540  0.00  0.00    +0.066 S 
ATOM      3  O   UNL     1       1.189   2.245  25.890  0.00  0.00    -0.153 OA
ATOM      4  O   UNL     1       1.425   2.665  23.417  0.00  0.00    -0.153 OA
BRANCH   1  19
ATOM      6  O   UNL     1       0.288  -1.584  23.284  0.00  0.00    -0.358 OA
ATOM      9  N   UNL     1      -0.477  -1.676  24.439  0.00  0.00    -0.081 NA
ATOM     19  C   UNL     1       0.339   0.439  24.220  0.00  0.00    +0.170 A 
ATOM     20  C   UNL     1       0.768  -0.320  23.164  0.00  0.00    +0.161 A 
ATOM     21  C   UNL     1      -0.432  -0.456  24.982  0.00  0.00    +0.107 A 
ATOM     23  C   UNL     1       1.603  -0.050  21.984  0.00  0.00    +0.091 C 
ATOM     24  C   UNL     1      -1.149  -0.193  26.241  0.00  0.00    +0.071 C 
ENDBRANCH   1  19
ENDBRANCH   7   1
BRANCH  10  15
ATOM     15  C   UNL     1      -2.882   4.099  26.436  0.00  0.00    +0.002 C 
ATOM     17  C   UNL     1      -1.784   3.251  27.042  0.00  0.00    +0.004 C 
ENDBRANCH  10  15
BRANCH  11  16
ATOM     16  C   UNL     1      -4.877   4.470  24.157  0.00  0.00    +0.099 C 
BRANCH  16  18
ATOM      5  O   UNL     1      -6.345   3.796  25.960  0.00  0.00    -0.276 OA
ATOM      8  N   UNL     1      -5.032   2.199  24.900  0.00  0.00    -0.311 N 
ATOM     18  C   UNL     1      -5.514   3.482  25.112  0.00  0.00    +0.214 C 
ATOM     31  H   UNL     1      -4.335   2.039  24.178  0.00  0.00    +0.149 HD
BRANCH   8  22
ATOM     22  C   UNL     1      -5.463   1.056  25.670  0.00  0.00    +0.139 C 
BRANCH  22  25
ATOM      2  F   UNL     1      -2.841  -3.666  24.067  0.00  0.00    -0.205 F 
ATOM     25  C   UNL     1      -4.764  -0.206  25.242  0.00  0.00    -0.030 A 
ATOM     26  C   UNL     1      -4.122  -1.005  26.190  0.00  0.00    +0.008 A 
ATOM     27  C   UNL     1      -4.755  -0.577  23.897  0.00  0.00    +0.008 A 
ATOM     28  C   UNL     1      -3.473  -2.173  25.793  0.00  0.00    +0.038 A 
ATOM     29  C   UNL     1      -4.106  -1.747  23.501  0.00  0.00    +0.038 A 
ATOM     30  C   UNL     1      -3.465  -2.545  24.448  0.00  0.00    +0.123 A 
ENDBRANCH  22  25
ENDBRANCH   8  22
ENDBRANCH  16  18
ENDBRANCH  11  16
TORSDOF 7
ENDMDL
MODEL 4
REMARK VINA RESULT:       1.7      2.605      4.857
REMARK  Name = 26742630
REMARK  10 active torsions:
REMARK  status: ('A' for Active; 'I' for Inactive)
REMARK    1  A    between atoms: S_1  and  N_7
REMARK    2  A    between atoms: S_1  and  C_19
REMARK    3  A    between atoms: N_8  and  C_22
REMARK    4  A    between atoms: C_10  and  C_15
REMARK    5  A    between atoms: C_11  and  C_16
REMARK    6  A    between atoms: C_15  and  C_17
REMARK    7  A    between atoms: C_16  and  C_18
REMARK    8  A    between atoms: C_20  and  C_23
REMARK    9  A    between atoms: C_21  and  C_24
REMARK   10  A    between atoms: C_22  and  C_25
REMARK                            x       y       z     vdW  Elec       q    Type
REMARK                         _______ _______ _______ _____ _____    ______ ____
ROOT
ATOM      7  N   UNL     1      -0.436   0.665  24.274  0.00  0.00    -0.176 NA
ATOM     10  C   UNL     1       0.640   2.678  25.253  0.00  0.00    +0.008 C 
ATOM     11  C   UNL     1      -0.130   3.557  24.239  0.00  0.00    +0.003 C 
ATOM     12  C   UNL     1      -1.421   2.870  23.768  0.00  0.00    +0.021 C 
ATOM     13  C   UNL     1       0.869   1.277  24.664  0.00  0.00    +0.113 C 
ATOM     14  C   UNL     1      -1.143   1.467  23.236  0.00  0.00    +0.110 C 
ENDROOT
BRANCH   7   1
ATOM      1  S   UNL     1      -0.398  -1.026  23.993  0.00  0.00    +0.066 S 
ATOM      3  O   UNL     1       0.585  -1.627  24.869  0.00  0.00    -0.153 OA
ATOM      4  O   UNL     1      -0.371  -1.263  22.567  0.00  0.00    -0.153 OA
BRANCH   1  19
ATOM      6  O   UNL     1      -3.908  -2.565  24.952  0.00  0.00    -0.358 OA
ATOM      9  N   UNL     1      -3.978  -1.405  25.711  0.00  0.00    -0.081 NA
ATOM     19  C   UNL     1      -1.998  -1.473  24.589  0.00  0.00    +0.170 A 
ATOM     20  C   UNL     1      -2.724  -2.594  24.288  0.00  0.00    +0.161 A 
ATOM     21  C   UNL     1      -2.827  -0.768  25.479  0.00  0.00    +0.107 A 
ATOM     23  C   UNL     1      -2.488  -3.765  23.431  0.00  0.00    +0.091 C 
ATOM     24  C   UNL     1      -2.563   0.523  26.137  0.00  0.00    +0.071 C 
ENDBRANCH   1  19
ENDBRANCH   7   1
BRANCH  10  15
ATOM     15  C   UNL     1      -0.027   2.581  26.631  0.00  0.00    +0.002 C 
ATOM     17  C   UNL     1       1.002   2.622  27.741  0.00  0.00    +0.004 C 
ENDBRANCH  10  15
BRANCH  11  16
ATOM     16  C   UNL     1      -0.428   4.961  24.765  0.00  0.00    +0.099 C 
BRANCH  16  18
ATOM      5  O   UNL     1      -2.588   5.921  24.242  0.00  0.00    -0.276 OA
ATOM      8  N   UNL     1      -2.385   4.490  26.062  0.00  0.00    -0.311 N 
ATOM     18  C   UNL     1      -1.911   5.195  24.966  0.00  0.00    +0.214 C 
ATOM     31  H   UNL     1      -1.744   3.921  26.608  0.00  0.00    +0.149 HD
BRANCH   8  22
ATOM     22  C   UNL     1      -3.765   4.529  26.490  0.00  0.00    +0.139 C 
BRANCH  22  25
ATOM      2  F   UNL     1      -6.816   0.427  24.120  0.00  0.00    -0.205 F 
ATOM     25  C   UNL     1      -4.579   3.433  25.858  0.00  0.00    -0.030 A 
ATOM     26  C   UNL     1      -4.311   3.030  24.548  0.00  0.00    +0.008 A 
ATOM     27  C   UNL     1      -5.604   2.820  26.579  0.00  0.00    +0.008 A 
ATOM     28  C   UNL     1      -5.066   2.015  23.962  0.00  0.00    +0.038 A 
ATOM     29  C   UNL     1      -6.359   1.803  25.992  0.00  0.00    +0.038 A 
ATOM     30  C   UNL     1      -6.090   1.401  24.684  0.00  0.00    +0.123 A 
ENDBRANCH  22  25
ENDBRANCH   8  22
ENDBRANCH  16  18
ENDBRANCH  11  16
TORSDOF 7
ENDMDL
MODEL 5
REMARK VINA RESULT:       2.0      2.862      6.588
REMARK  Name = 26742630
REMARK  10 active torsions:
REMARK  status: ('A' for Active; 'I' for Inactive)
REMARK    1  A    between atoms: S_1  and  N_7
REMARK    2  A    between atoms: S_1  and  C_19
REMARK    3  A    between atoms: N_8  and  C_22
REMARK    4  A    between atoms: C_10  and  C_15
REMARK    5  A    between atoms: C_11  and  C_16
REMARK    6  A    between atoms: C_15  and  C_17
REMARK    7  A    between atoms: C_16  and  C_18
REMARK    8  A    between atoms: C_20  and  C_23
REMARK    9  A    between atoms: C_21  and  C_24
REMARK   10  A    between atoms: C_22  and  C_25
REMARK                            x       y       z     vdW  Elec       q    Type
REMARK                         _______ _______ _______ _____ _____    ______ ____
ROOT
ATOM      7  N   UNL     1      -4.219   0.358  25.030  0.00  0.00    -0.176 NA
ATOM     10  C   UNL     1      -2.094  -0.440  26.039  0.00  0.00    +0.008 C 
ATOM     11  C   UNL     1      -2.290  -1.799  25.325  0.00  0.00    +0.003 C 
ATOM     12  C   UNL     1      -3.159  -1.651  24.067  0.00  0.00    +0.021 C 
ATOM     13  C   UNL     1      -3.460   0.212  26.307  0.00  0.00    +0.113 C 
ATOM     14  C   UNL     1      -4.481  -0.958  24.380  0.00  0.00    +0.110 C 
ENDROOT
BRANCH   7   1
ATOM      1  S   UNL     1      -5.560   1.425  25.092  0.00  0.00    +0.066 S 
ATOM      3  O   UNL     1      -5.956   1.604  26.472  0.00  0.00    -0.153 OA
ATOM      4  O   UNL     1      -6.519   1.029  24.085  0.00  0.00    -0.153 OA
BRANCH   1  19
ATOM      6  O   UNL     1      -4.256   5.068  24.294  0.00  0.00    -0.358 OA
ATOM      9  N   UNL     1      -3.409   4.358  23.453  0.00  0.00    -0.081 NA
ATOM     19  C   UNL     1      -4.789   2.919  24.552  0.00  0.00    +0.170 A 
ATOM     20  C   UNL     1      -5.074   4.200  24.942  0.00  0.00    +0.161 A 
ATOM     21  C   UNL     1      -3.745   3.077  23.624  0.00  0.00    +0.107 A 
ATOM     23  C   UNL     1      -6.041   4.792  25.877  0.00  0.00    +0.091 C 
ATOM     24  C   UNL     1      -3.033   2.031  22.870  0.00  0.00    +0.071 C 
ENDBRANCH   1  19
ENDBRANCH   7   1
BRANCH  10  15
ATOM     15  C   UNL     1      -1.170   0.532  25.294  0.00  0.00    +0.002 C 
ATOM     17  C   UNL     1      -0.969   1.809  26.082  0.00  0.00    +0.004 C 
ENDBRANCH  10  15
BRANCH  11  16
ATOM     16  C   UNL     1      -0.972  -2.497  24.991  0.00  0.00    +0.099 C 
BRANCH  16  18
ATOM      5  O   UNL     1      -0.611  -2.550  22.598  0.00  0.00    -0.276 OA
ATOM      8  N   UNL     1       0.432  -0.911  23.874  0.00  0.00    -0.311 N 
ATOM     18  C   UNL     1      -0.384  -2.016  23.681  0.00  0.00    +0.214 C 
ATOM     31  H   UNL     1       0.566  -0.546  24.813  0.00  0.00    +0.149 HD
BRANCH   8  22
ATOM     22  C   UNL     1       1.127  -0.244  22.797  0.00  0.00    +0.139 C 
BRANCH  22  25
ATOM      2  F   UNL     1       6.688  -0.050  23.683  0.00  0.00    -0.205 F 
ATOM     25  C   UNL     1       2.612  -0.193  23.035  0.00  0.00    -0.030 A 
ATOM     26  C   UNL     1       3.335   0.950  22.687  0.00  0.00    +0.008 A 
ATOM     27  C   UNL     1       3.267  -1.287  23.601  0.00  0.00    +0.008 A 
ATOM     28  C   UNL     1       4.711   0.998  22.907  0.00  0.00    +0.038 A 
ATOM     29  C   UNL     1       4.644  -1.237  23.821  0.00  0.00    +0.038 A 
ATOM     30  C   UNL     1       5.366  -0.096  23.474  0.00  0.00    +0.123 A 
ENDBRANCH  22  25
ENDBRANCH   8  22
ENDBRANCH  16  18
ENDBRANCH  11  16
TORSDOF 7
ENDMDL
MODEL 6
REMARK VINA RESULT:       2.1      2.547      4.685
REMARK  Name = 26742630
REMARK  10 active torsions:
REMARK  status: ('A' for Active; 'I' for Inactive)
REMARK    1  A    between atoms: S_1  and  N_7
REMARK    2  A    between atoms: S_1  and  C_19
REMARK    3  A    between atoms: N_8  and  C_22
REMARK    4  A    between atoms: C_10  and  C_15
REMARK    5  A    between atoms: C_11  and  C_16
REMARK    6  A    between atoms: C_15  and  C_17
REMARK    7  A    between atoms: C_16  and  C_18
REMARK    8  A    between atoms: C_20  and  C_23
REMARK    9  A    between atoms: C_21  and  C_24
REMARK   10  A    between atoms: C_22  and  C_25
REMARK                            x       y       z     vdW  Elec       q    Type
REMARK                         _______ _______ _______ _____ _____    ______ ____
ROOT
ATOM      7  N   UNL     1      -0.541   1.199  25.736  0.00  0.00    -0.176 NA
ATOM     10  C   UNL     1      -0.617  -0.167  23.662  0.00  0.00    +0.008 C 
ATOM     11  C   UNL     1      -0.954  -1.411  24.519  0.00  0.00    +0.003 C 
ATOM     12  C   UNL     1      -1.625  -1.015  25.843  0.00  0.00    +0.021 C 
ATOM     13  C   UNL     1       0.201   0.835  24.492  0.00  0.00    +0.113 C 
ATOM     14  C   UNL     1      -0.795   0.014  26.604  0.00  0.00    +0.110 C 
ENDROOT
BRANCH   7   1
ATOM      1  S   UNL     1       0.033   2.594  26.550  0.00  0.00    +0.066 S 
ATOM      3  O   UNL     1       1.378   2.882  26.102  0.00  0.00    -0.153 OA
ATOM      4  O   UNL     1      -0.275   2.474  27.958  0.00  0.00    -0.153 OA
BRANCH   1  19
ATOM      6  O   UNL     1      -2.766   5.183  25.513  0.00  0.00    -0.358 OA
ATOM      9  N   UNL     1      -1.870   5.424  24.479  0.00  0.00    -0.081 NA
ATOM     19  C   UNL     1      -1.039   3.815  25.860  0.00  0.00    +0.170 A 
ATOM     20  C   UNL     1      -2.260   4.222  26.328  0.00  0.00    +0.161 A 
ATOM     21  C   UNL     1      -0.847   4.596  24.708  0.00  0.00    +0.107 A 
ATOM     23  C   UNL     1      -3.091   3.844  27.480  0.00  0.00    +0.091 C 
ATOM     24  C   UNL     1       0.303   4.589  23.787  0.00  0.00    +0.071 C 
ENDBRANCH   1  19
ENDBRANCH   7   1
BRANCH  10  15
ATOM     15  C   UNL     1      -1.843   0.519  23.045  0.00  0.00    +0.002 C 
ATOM     17  C   UNL     1      -1.534   1.951  22.663  0.00  0.00    +0.004 C 
ENDBRANCH  10  15
BRANCH  11  16
ATOM     16  C   UNL     1      -1.799  -2.444  23.773  0.00  0.00    +0.099 C 
BRANCH  16  18
ATOM      5  O   UNL     1      -3.895  -3.414  24.498  0.00  0.00    -0.276 OA
ATOM      8  N   UNL     1      -3.744  -1.114  24.205  0.00  0.00    -0.311 N 
ATOM     18  C   UNL     1      -3.252  -2.411  24.201  0.00  0.00    +0.214 C 
ATOM     31  H   UNL     1      -3.135  -0.347  23.934  0.00  0.00    +0.149 HD
BRANCH   8  22
ATOM     22  C   UNL     1      -5.103  -0.786  24.570  0.00  0.00    +0.139 C 
BRANCH  22  25
ATOM      2  F   UNL     1      -5.731   4.721  25.582  0.00  0.00    -0.205 F 
ATOM     25  C   UNL     1      -5.271   0.685  24.840  0.00  0.00    -0.030 A 
ATOM     26  C   UNL     1      -4.585   1.620  24.064  0.00  0.00    +0.008 A 
ATOM     27  C   UNL     1      -6.113   1.114  25.867  0.00  0.00    +0.008 A 
ATOM     28  C   UNL     1      -4.740   2.983  24.315  0.00  0.00    +0.038 A 
ATOM     29  C   UNL     1      -6.269   2.478  26.116  0.00  0.00    +0.038 A 
ATOM     30  C   UNL     1      -5.583   3.412  25.341  0.00  0.00    +0.123 A 
ENDBRANCH  22  25
ENDBRANCH   8  22
ENDBRANCH  16  18
ENDBRANCH  11  16
TORSDOF 7
ENDMDL
MODEL 7
REMARK VINA RESULT:       2.5      2.509      4.972
REMARK  Name = 26742630
REMARK  10 active torsions:
REMARK  status: ('A' for Active; 'I' for Inactive)
REMARK    1  A    between atoms: S_1  and  N_7
REMARK    2  A    between atoms: S_1  and  C_19
REMARK    3  A    between atoms: N_8  and  C_22
REMARK    4  A    between atoms: C_10  and  C_15
REMARK    5  A    between atoms: C_11  and  C_16
REMARK    6  A    between atoms: C_15  and  C_17
REMARK    7  A    between atoms: C_16  and  C_18
REMARK    8  A    between atoms: C_20  and  C_23
REMARK    9  A    between atoms: C_21  and  C_24
REMARK   10  A    between atoms: C_22  and  C_25
REMARK                            x       y       z     vdW  Elec       q    Type
REMARK                         _______ _______ _______ _____ _____    ______ ____
ROOT
ATOM      7  N   UNL     1      -0.391   0.461  24.308  0.00  0.00    -0.176 NA
ATOM     10  C   UNL     1       0.554   2.546  25.274  0.00  0.00    +0.008 C 
ATOM     11  C   UNL     1      -0.239   3.365  24.227  0.00  0.00    +0.003 C 
ATOM     12  C   UNL     1      -1.480   2.601  23.740  0.00  0.00    +0.021 C 
ATOM     13  C   UNL     1       0.870   1.149  24.715  0.00  0.00    +0.113 C 
ATOM     14  C   UNL     1      -1.116   1.206  23.240  0.00  0.00    +0.110 C 
ENDROOT
BRANCH   7   1
ATOM      1  S   UNL     1      -0.255  -1.230  24.059  0.00  0.00    +0.066 S 
ATOM      3  O   UNL     1       0.683  -1.773  25.017  0.00  0.00    -0.153 OA
ATOM      4  O   UNL     1      -0.108  -1.484  22.642  0.00  0.00    -0.153 OA
BRANCH   1  19
ATOM      6  O   UNL     1      -3.882  -1.833  25.506  0.00  0.00    -0.358 OA
ATOM      9  N   UNL     1      -3.797  -2.954  24.691  0.00  0.00    -0.081 NA
ATOM     19  C   UNL     1      -1.875  -1.742  24.538  0.00  0.00    +0.170 A 
ATOM     20  C   UNL     1      -2.732  -1.119  25.406  0.00  0.00    +0.161 A 
ATOM     21  C   UNL     1      -2.590  -2.879  24.123  0.00  0.00    +0.107 A 
ATOM     23  C   UNL     1      -2.656   0.108  26.212  0.00  0.00    +0.091 C 
ATOM     24  C   UNL     1      -2.162  -3.928  23.182  0.00  0.00    +0.071 C 
ENDBRANCH   1  19
ENDBRANCH   7   1
BRANCH  10  15
ATOM     15  C   UNL     1      -0.139   2.437  26.638  0.00  0.00    +0.002 C 
ATOM     17  C   UNL     1       0.859   2.561  27.769  0.00  0.00    +0.004 C 
ENDBRANCH  10  15
BRANCH  11  16
ATOM     16  C   UNL     1      -0.625   4.759  24.720  0.00  0.00    +0.099 C 
BRANCH  16  18
ATOM      5  O   UNL     1      -2.549   4.987  26.170  0.00  0.00    -0.276 OA
ATOM      8  N   UNL     1      -2.864   4.814  23.874  0.00  0.00    -0.311 N 
ATOM     18  C   UNL     1      -2.102   4.869  25.032  0.00  0.00    +0.214 C 
ATOM     31  H   UNL     1      -2.402   4.705  22.976  0.00  0.00    +0.149 HD
BRANCH   8  22
ATOM     22  C   UNL     1      -4.307   4.892  23.874  0.00  0.00    +0.139 C 
BRANCH  22  25
ATOM      2  F   UNL     1      -6.638   0.665  26.778  0.00  0.00    -0.205 F 
ATOM     25  C   UNL     1      -4.930   3.763  24.648  0.00  0.00    -0.030 A 
ATOM     26  C   UNL     1      -5.654   4.030  25.812  0.00  0.00    +0.008 A 
ATOM     27  C   UNL     1      -4.784   2.448  24.206  0.00  0.00    +0.008 A 
ATOM     28  C   UNL     1      -6.231   2.984  26.530  0.00  0.00    +0.038 A 
ATOM     29  C   UNL     1      -5.362   1.402  24.925  0.00  0.00    +0.038 A 
ATOM     30  C   UNL     1      -6.085   1.669  26.086  0.00  0.00    +0.123 A 
ENDBRANCH  22  25
ENDBRANCH   8  22
ENDBRANCH  16  18
ENDBRANCH  11  16
TORSDOF 7
ENDMDL
MODEL 8
REMARK VINA RESULT:       2.7      2.093      5.232
REMARK  Name = 26742630
REMARK  10 active torsions:
REMARK  status: ('A' for Active; 'I' for Inactive)
REMARK    1  A    between atoms: S_1  and  N_7
REMARK    2  A    between atoms: S_1  and  C_19
REMARK    3  A    between atoms: N_8  and  C_22
REMARK    4  A    between atoms: C_10  and  C_15
REMARK    5  A    between atoms: C_11  and  C_16
REMARK    6  A    between atoms: C_15  and  C_17
REMARK    7  A    between atoms: C_16  and  C_18
REMARK    8  A    between atoms: C_20  and  C_23
REMARK    9  A    between atoms: C_21  and  C_24
REMARK   10  A    between atoms: C_22  and  C_25
REMARK                            x       y       z     vdW  Elec       q    Type
REMARK                         _______ _______ _______ _____ _____    ______ ____
ROOT
ATOM      7  N   UNL     1      -2.689  -0.370  24.390  0.00  0.00    -0.176 NA
ATOM     10  C   UNL     1      -0.534  -1.591  24.582  0.00  0.00    +0.008 C 
ATOM     11  C   UNL     1      -0.026  -0.849  23.323  0.00  0.00    +0.003 C 
ATOM     12  C   UNL     1      -0.750   0.492  23.131  0.00  0.00    +0.021 C 
ATOM     13  C   UNL     1      -2.065  -1.719  24.532  0.00  0.00    +0.113 C 
ATOM     14  C   UNL     1      -2.265   0.313  23.135  0.00  0.00    +0.110 C 
ENDROOT
BRANCH   7   1
ATOM      1  S   UNL     1      -4.368  -0.300  24.731  0.00  0.00    +0.066 S 
ATOM      3  O   UNL     1      -4.590  -0.738  26.092  0.00  0.00    -0.153 OA
ATOM      4  O   UNL     1      -5.095  -0.889  23.629  0.00  0.00    -0.153 OA
BRANCH   1  19
ATOM      6  O   UNL     1      -4.519   3.597  24.096  0.00  0.00    -0.358 OA
ATOM      9  N   UNL     1      -5.376   3.533  25.187  0.00  0.00    -0.081 NA
ATOM     19  C   UNL     1      -4.619   1.447  24.677  0.00  0.00    +0.170 A 
ATOM     20  C   UNL     1      -4.074   2.348  23.802  0.00  0.00    +0.161 A 
ATOM     21  C   UNL     1      -5.421   2.240  25.517  0.00  0.00    +0.107 A 
ATOM     23  C   UNL     1      -3.149   2.237  22.666  0.00  0.00    +0.091 C 
ATOM     24  C   UNL     1      -6.252   1.807  26.653  0.00  0.00    +0.071 C 
ENDBRANCH   1  19
ENDBRANCH   7   1
BRANCH  10  15
ATOM     15  C   UNL     1      -0.090  -0.954  25.906  0.00  0.00    +0.002 C 
ATOM     17  C   UNL     1      -1.255  -0.809  26.861  0.00  0.00    +0.004 C 
ENDBRANCH  10  15
BRANCH  11  16
ATOM     16  C   UNL     1       1.490  -0.649  23.313  0.00  0.00    +0.099 C 
BRANCH  16  18
ATOM      5  O   UNL     1       2.943   1.255  22.969  0.00  0.00    -0.276 OA
ATOM      8  N   UNL     1       0.873   1.567  23.977  0.00  0.00    -0.311 N 
ATOM     18  C   UNL     1       1.875   0.813  23.385  0.00  0.00    +0.214 C 
ATOM     31  H   UNL     1       0.026   1.109  24.300  0.00  0.00    +0.149 HD
BRANCH   8  22
ATOM     22  C   UNL     1       0.973   2.994  24.178  0.00  0.00    +0.139 C 
BRANCH  22  25
ATOM      2  F   UNL     1      -3.517   5.054  26.888  0.00  0.00    -0.205 F 
ATOM     25  C   UNL     1      -0.227   3.544  24.902  0.00  0.00    -0.030 A 
ATOM     26  C   UNL     1      -0.695   4.825  24.605  0.00  0.00    +0.008 A 
ATOM     27  C   UNL     1      -0.872   2.774  25.870  0.00  0.00    +0.008 A 
ATOM     28  C   UNL     1      -1.806   5.335  25.276  0.00  0.00    +0.038 A 
ATOM     29  C   UNL     1      -1.984   3.284  26.540  0.00  0.00    +0.038 A 
ATOM     30  C   UNL     1      -2.451   4.564  26.244  0.00  0.00    +0.123 A 
ENDBRANCH  22  25
ENDBRANCH   8  22
ENDBRANCH  16  18
ENDBRANCH  11  16
TORSDOF 7
ENDMDL
MODEL 9
REMARK VINA RESULT:       3.0      2.078      5.180
REMARK  Name = 26742630
REMARK  10 active torsions:
REMARK  status: ('A' for Active; 'I' for Inactive)
REMARK    1  A    between atoms: S_1  and  N_7
REMARK    2  A    between atoms: S_1  and  C_19
REMARK    3  A    between atoms: N_8  and  C_22
REMARK    4  A    between atoms: C_10  and  C_15
REMARK    5  A    between atoms: C_11  and  C_16
REMARK    6  A    between atoms: C_15  and  C_17
REMARK    7  A    between atoms: C_16  and  C_18
REMARK    8  A    between atoms: C_20  and  C_23
REMARK    9  A    between atoms: C_21  and  C_24
REMARK   10  A    between atoms: C_22  and  C_25
REMARK                            x       y       z     vdW  Elec       q    Type
REMARK                         _______ _______ _______ _____ _____    ______ ____
ROOT
ATOM      7  N   UNL     1      -4.527   0.361  25.022  0.00  0.00    -0.176 NA
ATOM     10  C   UNL     1      -3.125  -1.445  25.995  0.00  0.00    +0.008 C 
ATOM     11  C   UNL     1      -2.995  -2.073  24.587  0.00  0.00    +0.003 C 
ATOM     12  C   UNL     1      -3.180  -1.021  23.483  0.00  0.00    +0.021 C 
ATOM     13  C   UNL     1      -4.448  -0.668  26.100  0.00  0.00    +0.113 C 
ATOM     14  C   UNL     1      -4.484  -0.249  23.662  0.00  0.00    +0.110 C 
ENDROOT
BRANCH   7   1
ATOM      1  S   UNL     1      -5.723   1.568  25.246  0.00  0.00    +0.066 S 
ATOM      3  O   UNL     1      -5.937   1.761  26.663  0.00  0.00    -0.153 OA
ATOM      4  O   UNL     1      -6.830   1.301  24.353  0.00  0.00    -0.153 OA
BRANCH   1  19
ATOM      6  O   UNL     1      -3.457   4.291  23.497  0.00  0.00    -0.358 OA
ATOM      9  N   UNL     1      -4.191   5.133  24.321  0.00  0.00    -0.081 NA
ATOM     19  C   UNL     1      -4.857   2.978  24.632  0.00  0.00    +0.170 A 
ATOM     20  C   UNL     1      -3.862   3.010  23.692  0.00  0.00    +0.161 A 
ATOM     21  C   UNL     1      -5.021   4.327  24.989  0.00  0.00    +0.107 A 
ATOM     23  C   UNL     1      -3.179   1.983  22.892  0.00  0.00    +0.091 C 
ATOM     24  C   UNL     1      -5.961   4.900  25.968  0.00  0.00    +0.071 C 
ENDBRANCH   1  19
ENDBRANCH   7   1
BRANCH  10  15
ATOM     15  C   UNL     1      -1.943  -0.552  26.395  0.00  0.00    +0.002 C 
ATOM     17  C   UNL     1      -1.322  -1.018  27.694  0.00  0.00    +0.004 C 
ENDBRANCH  10  15
BRANCH  11  16
ATOM     16  C   UNL     1      -1.685  -2.837  24.389  0.00  0.00    +0.099 C 
BRANCH  16  18
ATOM      5  O   UNL     1       0.382  -2.207  25.480  0.00  0.00    -0.276 OA
ATOM      8  N   UNL     1      -0.460  -0.873  23.774  0.00  0.00    -0.311 N 
ATOM     18  C   UNL     1      -0.471  -1.964  24.630  0.00  0.00    +0.214 C 
ATOM     31  H   UNL     1      -1.218  -0.752  23.107  0.00  0.00    +0.149 HD
BRANCH   8  22
ATOM     22  C   UNL     1       0.580   0.129  23.784  0.00  0.00    +0.139 C 
BRANCH  22  25
ATOM      2  F   UNL     1      -1.295   5.092  25.679  0.00  0.00    -0.205 F 
ATOM     25  C   UNL     1       0.079   1.454  24.290  0.00  0.00    -0.030 A 
ATOM     26  C   UNL     1       0.237   2.603  23.514  0.00  0.00    +0.008 A 
ATOM     27  C   UNL     1      -0.544   1.536  25.536  0.00  0.00    +0.008 A 
ATOM     28  C   UNL     1      -0.228   3.832  23.983  0.00  0.00    +0.038 A 
ATOM     29  C   UNL     1      -1.009   2.765  26.005  0.00  0.00    +0.038 A 
ATOM     30  C   UNL     1      -0.851   3.912  25.229  0.00  0.00    +0.123 A 
ENDBRANCH  22  25
ENDBRANCH   8  22
ENDBRANCH  16  18
ENDBRANCH  11  16
TORSDOF 7
ENDMDL
MODEL 10
REMARK VINA RESULT:       3.0      2.329      5.522
REMARK  Name = 26742630
REMARK  10 active torsions:
REMARK  status: ('A' for Active; 'I' for Inactive)
REMARK    1  A    between atoms: S_1  and  N_7
REMARK    2  A    between atoms: S_1  and  C_19
REMARK    3  A    between atoms: N_8  and  C_22
REMARK    4  A    between atoms: C_10  and  C_15
REMARK    5  A    between atoms: C_11  and  C_16
REMARK    6  A    between atoms: C_15  and  C_17
REMARK    7  A    between atoms: C_16  and  C_18
REMARK    8  A    between atoms: C_20  and  C_23
REMARK    9  A    between atoms: C_21  and  C_24
REMARK   10  A    between atoms: C_22  and  C_25
REMARK                            x       y       z     vdW  Elec       q    Type
REMARK                         _______ _______ _______ _____ _____    ______ ____
ROOT
ATOM      7  N   UNL     1      -3.747   1.989  24.880  0.00  0.00    -0.176 NA
ATOM     10  C   UNL     1      -4.384  -0.383  25.250  0.00  0.00    +0.008 C 
ATOM     11  C   UNL     1      -4.185  -0.650  23.738  0.00  0.00    +0.003 C 
ATOM     12  C   UNL     1      -3.201   0.352  23.116  0.00  0.00    +0.021 C 
ATOM     13  C   UNL     1      -4.776   1.086  25.474  0.00  0.00    +0.113 C 
ATOM     14  C   UNL     1      -3.612   1.792  23.408  0.00  0.00    +0.110 C 
ENDROOT
BRANCH   7   1
ATOM      1  S   UNL     1      -3.819   3.622  25.396  0.00  0.00    +0.066 S 
ATOM      3  O   UNL     1      -4.245   3.661  26.778  0.00  0.00    -0.153 OA
ATOM      4  O   UNL     1      -4.495   4.404  24.384  0.00  0.00    -0.153 OA
BRANCH   1  19
ATOM      6  O   UNL     1      -0.185   5.144  25.092  0.00  0.00    -0.358 OA
ATOM      9  N   UNL     1       0.162   3.864  25.505  0.00  0.00    -0.081 NA
ATOM     19  C   UNL     1      -2.103   4.036  25.348  0.00  0.00    +0.170 A 
ATOM     20  C   UNL     1      -1.537   5.234  25.002  0.00  0.00    +0.161 A 
ATOM     21  C   UNL     1      -1.000   3.221  25.652  0.00  0.00    +0.107 A 
ATOM     23  C   UNL     1      -2.075   6.532  24.572  0.00  0.00    +0.091 C 
ATOM     24  C   UNL     1      -1.002   1.813  26.088  0.00  0.00    +0.071 C 
ENDBRANCH   1  19
ENDBRANCH   7   1
BRANCH  10  15
ATOM     15  C   UNL     1      -3.173  -0.756  26.116  0.00  0.00    +0.002 C 
ATOM     17  C   UNL     1      -3.559  -1.738  27.201  0.00  0.00    +0.004 C 
ENDBRANCH  10  15
BRANCH  11  16
ATOM     16  C   UNL     1      -3.757  -2.086  23.432  0.00  0.00    +0.099 C 
BRANCH  16  18
ATOM      5  O   UNL     1      -2.469  -3.476  24.938  0.00  0.00    -0.276 OA
ATOM      8  N   UNL     1      -1.474  -1.611  23.974  0.00  0.00    -0.311 N 
ATOM     18  C   UNL     1      -2.520  -2.492  24.204  0.00  0.00    +0.214 C 
ATOM     31  H   UNL     1      -1.615  -0.816  23.356  0.00  0.00    +0.149 HD
BRANCH   8  22
ATOM     22  C   UNL     1      -0.172  -1.753  24.584  0.00  0.00    +0.139 C 
BRANCH  22  25
ATOM      2  F   UNL     1       3.570   1.851  22.404  0.00  0.00    -0.205 F 
ATOM     25  C   UNL     1       0.828  -0.790  24.003  0.00  0.00    -0.030 A 
ATOM     26  C   UNL     1       0.468   0.540  23.779  0.00  0.00    +0.008 A 
ATOM     27  C   UNL     1       2.115  -1.227  23.685  0.00  0.00    +0.008 A 
ATOM     28  C   UNL     1       1.395   1.432  23.240  0.00  0.00    +0.038 A 
ATOM     29  C   UNL     1       3.041  -0.334  23.146  0.00  0.00    +0.038 A 
ATOM     30  C   UNL     1       2.682   0.995  22.923  0.00  0.00    +0.123 A 
ENDBRANCH  22  25
ENDBRANCH   8  22
ENDBRANCH  16  18
ENDBRANCH  11  16
TORSDOF 7
ENDMDL
