MODEL 1
REMARK VINA RESULT:      -0.2      0.000      0.000
REMARK  Name = 51137845
REMARK  3 active torsions:
REMARK  status: ('A' for Active; 'I' for Inactive)
REMARK    1  A    between atoms: C_8  and  C_12
REMARK    2  A    between atoms: C_13  and  C_14
REMARK    3  A    between atoms: C_15  and  C_18
REMARK                            x       y       z     vdW  Elec       q    Type
REMARK                         _______ _______ _______ _____ _____    ______ ____
ROOT
ATOM      2  O   UNL     1       1.816  -0.300  21.053  0.00  0.00    -0.270 OA
ATOM      3  N   UNL     1       0.862  -0.753  23.121  0.00  0.00    -0.297 N 
ATOM      8  C   UNL     1      -0.567  -0.787  25.024  0.00  0.00    +0.095 C 
ATOM      9  C   UNL     1      -1.289  -1.421  23.825  0.00  0.00    +0.033 C 
ATOM     10  C   UNL     1       0.901  -0.851  24.581  0.00  0.00    +0.121 C 
ATOM     11  C   UNL     1      -0.492  -0.939  22.620  0.00  0.00    +0.109 C 
ATOM     13  C   UNL     1       1.911  -0.444  22.270  0.00  0.00    +0.247 C 
ENDROOT
BRANCH  13  14
ATOM      6  N   UNL     1       5.768   0.090  24.015  0.00  0.00    -0.263 NA
ATOM     14  C   UNL     1       3.241  -0.260  22.871  0.00  0.00    +0.040 A 
ATOM     16  C   UNL     1       3.885   0.968  22.779  0.00  0.00    +0.033 A 
ATOM     17  C   UNL     1       3.859  -1.314  23.536  0.00  0.00    +0.033 A 
ATOM     19  C   UNL     1       5.136   1.091  23.362  0.00  0.00    +0.111 A 
ATOM     20  C   UNL     1       5.111  -1.089  24.085  0.00  0.00    +0.111 A 
ENDBRANCH  13  14
BRANCH   8  12
ATOM      1  O   UNL     1      -2.464   0.761  25.210  0.00  0.00    -0.420 OA
ATOM      4  N   UNL     1      -0.491   1.673  25.743  0.00  0.00    -0.112 NA
ATOM      5  N   UNL     1      -1.464   2.643  25.889  0.00  0.00    -0.107 NA
ATOM     12  C   UNL     1      -1.119   0.591  25.345  0.00  0.00    +0.222 A 
ATOM     15  C   UNL     1      -2.598   2.067  25.568  0.00  0.00    +0.250 A 
BRANCH  15  18
ATOM      7  N   UNL     1      -5.415   4.484  25.804  0.00  0.00    -0.263 NA
ATOM     18  C   UNL     1      -3.933   2.593  25.536  0.00  0.00    +0.057 A 
ATOM     21  C   UNL     1      -5.016   1.778  25.224  0.00  0.00    +0.016 A 
ATOM     22  C   UNL     1      -4.183   3.926  25.816  0.00  0.00    +0.124 A 
ATOM     23  C   UNL     1      -6.298   2.316  25.201  0.00  0.00    +0.020 A 
ATOM     24  C   UNL     1      -6.443   3.661  25.497  0.00  0.00    +0.111 A 
ENDBRANCH  15  18
ENDBRANCH   8  12
TORSDOF 3
ENDMDL
MODEL 2
REMARK VINA RESULT:       0.1      2.081      7.646
REMARK  Name = 51137845
REMARK  3 active torsions:
REMARK  status: ('A' for Active; 'I' for Inactive)
REMARK    1  A    between atoms: C_8  and  C_12
REMARK    2  A    between atoms: C_13  and  C_14
REMARK    3  A    between atoms: C_15  and  C_18
REMARK                            x       y       z     vdW  Elec       q    Type
REMARK                         _______ _______ _______ _____ _____    ______ ____
ROOT
ATOM      2  O   UNL     1      -0.446   2.008  27.413  0.00  0.00    -0.270 OA
ATOM      3  N   UNL     1      -1.127   1.033  25.417  0.00  0.00    -0.297 N 
ATOM      8  C   UNL     1      -1.236  -0.261  23.424  0.00  0.00    +0.095 C 
ATOM      9  C   UNL     1      -1.284  -1.191  24.647  0.00  0.00    +0.033 C 
ATOM     10  C   UNL     1      -1.615   1.093  24.039  0.00  0.00    +0.121 C 
ATOM     11  C   UNL     1      -0.761  -0.326  25.785  0.00  0.00    +0.109 C 
ATOM     13  C   UNL     1      -0.930   2.095  26.286  0.00  0.00    +0.247 C 
ENDROOT
BRANCH  13  14
ATOM      6  N   UNL     1      -2.054   5.981  24.930  0.00  0.00    -0.263 NA
ATOM     14  C   UNL     1      -1.318   3.435  25.819  0.00  0.00    +0.040 A 
ATOM     16  C   UNL     1      -0.418   4.210  25.097  0.00  0.00    +0.033 A 
ATOM     17  C   UNL     1      -2.587   3.932  26.097  0.00  0.00    +0.033 A 
ATOM     19  C   UNL     1      -0.830   5.465  24.679  0.00  0.00    +0.111 A 
ATOM     20  C   UNL     1      -2.903   5.199  25.635  0.00  0.00    +0.111 A 
ENDBRANCH  13  14
BRANCH   8  12
ATOM      1  O   UNL     1       1.218  -0.266  23.501  0.00  0.00    -0.420 OA
ATOM      4  N   UNL     1       0.373  -0.455  21.437  0.00  0.00    -0.112 NA
ATOM      5  N   UNL     1       1.752  -0.471  21.338  0.00  0.00    -0.107 NA
ATOM     12  C   UNL     1       0.106  -0.334  22.717  0.00  0.00    +0.222 A 
ATOM     15  C   UNL     1       2.202  -0.358  22.566  0.00  0.00    +0.250 A 
BRANCH  15  18
ATOM      7  N   UNL     1       5.368  -1.443  24.187  0.00  0.00    -0.263 NA
ATOM     18  C   UNL     1       3.547  -0.318  23.064  0.00  0.00    +0.057 A 
ATOM     21  C   UNL     1       4.326   0.826  22.929  0.00  0.00    +0.016 A 
ATOM     22  C   UNL     1       4.109  -1.415  23.695  0.00  0.00    +0.124 A 
ATOM     23  C   UNL     1       5.627   0.835  23.422  0.00  0.00    +0.020 A 
ATOM     24  C   UNL     1       6.095  -0.313  24.038  0.00  0.00    +0.111 A 
ENDBRANCH  15  18
ENDBRANCH   8  12
TORSDOF 3
ENDMDL
MODEL 3
REMARK VINA RESULT:       0.3      2.146      8.438
REMARK  Name = 51137845
REMARK  3 active torsions:
REMARK  status: ('A' for Active; 'I' for Inactive)
REMARK    1  A    between atoms: C_8  and  C_12
REMARK    2  A    between atoms: C_13  and  C_14
REMARK    3  A    between atoms: C_15  and  C_18
REMARK                            x       y       z     vdW  Elec       q    Type
REMARK                         _______ _______ _______ _____ _____    ______ ____
ROOT
ATOM      2  O   UNL     1      -4.195   4.407  23.277  0.00  0.00    -0.270 OA
ATOM      3  N   UNL     1      -2.434   3.672  24.602  0.00  0.00    -0.297 N 
ATOM      8  C   UNL     1      -0.330   2.873  25.373  0.00  0.00    +0.095 C 
ATOM      9  C   UNL     1      -0.168   4.295  24.812  0.00  0.00    +0.033 C 
ATOM     10  C   UNL     1      -1.844   2.797  25.616  0.00  0.00    +0.121 C 
ATOM     11  C   UNL     1      -1.419   4.500  23.968  0.00  0.00    +0.109 C 
ATOM     13  C   UNL     1      -3.756   3.706  24.186  0.00  0.00    +0.247 C 
ENDROOT
BRANCH  13  14
ATOM      6  N   UNL     1      -6.515   1.142  26.191  0.00  0.00    -0.263 NA
ATOM     14  C   UNL     1      -4.708   2.822  24.878  0.00  0.00    +0.040 A 
ATOM     16  C   UNL     1      -5.562   3.336  25.846  0.00  0.00    +0.033 A 
ATOM     17  C   UNL     1      -4.756   1.467  24.565  0.00  0.00    +0.033 A 
ATOM     19  C   UNL     1      -6.439   2.463  26.468  0.00  0.00    +0.111 A 
ATOM     20  C   UNL     1      -5.669   0.678  25.244  0.00  0.00    +0.111 A 
ENDBRANCH  13  14
BRANCH   8  12
ATOM      1  O   UNL     1       1.597   1.594  24.549  0.00  0.00    -0.420 OA
ATOM      4  N   UNL     1      -0.327   1.105  23.517  0.00  0.00    -0.112 NA
ATOM      5  N   UNL     1       0.667   0.322  22.962  0.00  0.00    -0.107 NA
ATOM     12  C   UNL     1       0.261   1.832  24.439  0.00  0.00    +0.222 A 
ATOM     15  C   UNL     1       1.772   0.640  23.595  0.00  0.00    +0.250 A 
BRANCH  15  18
ATOM      7  N   UNL     1       4.678  -1.679  23.662  0.00  0.00    -0.263 NA
ATOM     18  C   UNL     1       3.110   0.148  23.437  0.00  0.00    +0.057 A 
ATOM     21  C   UNL     1       4.118   0.962  22.933  0.00  0.00    +0.016 A 
ATOM     22  C   UNL     1       3.439  -1.152  23.784  0.00  0.00    +0.124 A 
ATOM     23  C   UNL     1       5.406   0.456  22.792  0.00  0.00    +0.020 A 
ATOM     24  C   UNL     1       5.632  -0.857  23.168  0.00  0.00    +0.111 A 
ENDBRANCH  15  18
ENDBRANCH   8  12
TORSDOF 3
ENDMDL
MODEL 4
REMARK VINA RESULT:       1.1      2.755      4.682
REMARK  Name = 51137845
REMARK  3 active torsions:
REMARK  status: ('A' for Active; 'I' for Inactive)
REMARK    1  A    between atoms: C_8  and  C_12
REMARK    2  A    between atoms: C_13  and  C_14
REMARK    3  A    between atoms: C_15  and  C_18
REMARK                            x       y       z     vdW  Elec       q    Type
REMARK                         _______ _______ _______ _____ _____    ______ ____
ROOT
ATOM      2  O   UNL     1       1.182   2.338  26.112  0.00  0.00    -0.270 OA
ATOM      3  N   UNL     1      -0.542   2.896  24.659  0.00  0.00    -0.297 N 
ATOM      8  C   UNL     1      -2.679   3.269  23.681  0.00  0.00    +0.095 C 
ATOM      9  C   UNL     1      -2.459   4.261  24.835  0.00  0.00    +0.033 C 
ATOM     10  C   UNL     1      -1.246   2.810  23.379  0.00  0.00    +0.121 C 
ATOM     11  C   UNL     1      -1.320   3.643  25.635  0.00  0.00    +0.109 C 
ATOM     13  C   UNL     1       0.663   2.300  24.998  0.00  0.00    +0.247 C 
ENDROOT
BRANCH  13  14
ATOM      6  N   UNL     1       2.712   0.130  21.950  0.00  0.00    -0.263 NA
ATOM     14  C   UNL     1       1.370   1.552  23.947  0.00  0.00    +0.040 A 
ATOM     16  C   UNL     1       2.671   1.895  23.601  0.00  0.00    +0.033 A 
ATOM     17  C   UNL     1       0.738   0.498  23.296  0.00  0.00    +0.033 A 
ATOM     19  C   UNL     1       3.294   1.160  22.605  0.00  0.00    +0.111 A 
ATOM     20  C   UNL     1       1.447  -0.175  22.314  0.00  0.00    +0.111 A 
ENDBRANCH  13  14
BRANCH   8  12
ATOM      1  O   UNL     1      -3.220   0.902  24.043  0.00  0.00    -0.420 OA
ATOM      4  N   UNL     1      -4.937   2.292  24.400  0.00  0.00    -0.112 NA
ATOM      5  N   UNL     1      -5.375   1.003  24.637  0.00  0.00    -0.107 NA
ATOM     12  C   UNL     1      -3.674   2.186  24.056  0.00  0.00    +0.222 A 
ATOM     15  C   UNL     1      -4.340   0.226  24.417  0.00  0.00    +0.250 A 
BRANCH  15  18
ATOM      7  N   UNL     1      -3.395  -3.128  25.716  0.00  0.00    -0.263 NA
ATOM     18  C   UNL     1      -4.212  -1.200  24.507  0.00  0.00    +0.057 A 
ATOM     21  C   UNL     1      -4.743  -2.031  23.526  0.00  0.00    +0.016 A 
ATOM     22  C   UNL     1      -3.553  -1.793  25.571  0.00  0.00    +0.124 A 
ATOM     23  C   UNL     1      -4.602  -3.410  23.640  0.00  0.00    +0.020 A 
ATOM     24  C   UNL     1      -3.925  -3.903  24.743  0.00  0.00    +0.111 A 
ENDBRANCH  15  18
ENDBRANCH   8  12
TORSDOF 3
ENDMDL
MODEL 5
REMARK VINA RESULT:       2.7      3.168      6.923
REMARK  Name = 51137845
REMARK  3 active torsions:
REMARK  status: ('A' for Active; 'I' for Inactive)
REMARK    1  A    between atoms: C_8  and  C_12
REMARK    2  A    between atoms: C_13  and  C_14
REMARK    3  A    between atoms: C_15  and  C_18
REMARK                            x       y       z     vdW  Elec       q    Type
REMARK                         _______ _______ _______ _____ _____    ______ ____
ROOT
ATOM      2  O   UNL     1      -3.553   4.054  27.574  0.00  0.00    -0.270 OA
ATOM      3  N   UNL     1      -4.344   3.099  25.609  0.00  0.00    -0.297 N 
ATOM      8  C   UNL     1      -5.204   1.589  23.984  0.00  0.00    +0.095 C 
ATOM      9  C   UNL     1      -6.280   1.876  25.043  0.00  0.00    +0.033 C 
ATOM     10  C   UNL     1      -4.235   2.762  24.189  0.00  0.00    +0.121 C 
ATOM     11  C   UNL     1      -5.496   2.451  26.215  0.00  0.00    +0.109 C 
ATOM     13  C   UNL     1      -3.461   3.857  26.364  0.00  0.00    +0.247 C 
ENDROOT
BRANCH  13  14
ATOM      6  N   UNL     1      -0.141   5.610  24.337  0.00  0.00    -0.263 NA
ATOM     14  C   UNL     1      -2.317   4.462  25.665  0.00  0.00    +0.040 A 
ATOM     16  C   UNL     1      -2.360   5.796  25.278  0.00  0.00    +0.033 A 
ATOM     17  C   UNL     1      -1.186   3.701  25.389  0.00  0.00    +0.033 A 
ATOM     19  C   UNL     1      -1.257   6.319  24.623  0.00  0.00    +0.111 A 
ATOM     20  C   UNL     1      -0.135   4.316  24.729  0.00  0.00    +0.111 A 
ENDBRANCH  13  14
BRANCH   8  12
ATOM      1  O   UNL     1      -3.284   0.108  24.374  0.00  0.00    -0.420 OA
ATOM      4  N   UNL     1      -5.223  -0.972  24.081  0.00  0.00    -0.112 NA
ATOM      5  N   UNL     1      -4.234  -1.916  24.289  0.00  0.00    -0.107 NA
ATOM     12  C   UNL     1      -4.623   0.195  24.139  0.00  0.00    +0.222 A 
ATOM     15  C   UNL     1      -3.121  -1.240  24.454  0.00  0.00    +0.250 A 
BRANCH  15  18
ATOM      7  N   UNL     1       0.594  -1.270  24.612  0.00  0.00    -0.263 NA
ATOM     18  C   UNL     1      -1.784  -1.697  24.703  0.00  0.00    +0.057 A 
ATOM     21  C   UNL     1      -1.545  -2.953  25.249  0.00  0.00    +0.016 A 
ATOM     22  C   UNL     1      -0.690  -0.901  24.404  0.00  0.00    +0.124 A 
ATOM     23  C   UNL     1      -0.238  -3.368  25.478  0.00  0.00    +0.020 A 
ATOM     24  C   UNL     1       0.787  -2.498  25.144  0.00  0.00    +0.111 A 
ENDBRANCH  15  18
ENDBRANCH   8  12
TORSDOF 3
ENDMDL
MODEL 6
REMARK VINA RESULT:       2.7      2.170      7.585
REMARK  Name = 51137845
REMARK  3 active torsions:
REMARK  status: ('A' for Active; 'I' for Inactive)
REMARK    1  A    between atoms: C_8  and  C_12
REMARK    2  A    between atoms: C_13  and  C_14
REMARK    3  A    between atoms: C_15  and  C_18
REMARK                            x       y       z     vdW  Elec       q    Type
REMARK                         _______ _______ _______ _____ _____    ______ ____
ROOT
ATOM      2  O   UNL     1      -4.443   2.703  26.568  0.00  0.00    -0.270 OA
ATOM      3  N   UNL     1      -3.704   1.581  24.673  0.00  0.00    -0.297 N 
ATOM      8  C   UNL     1      -2.719   0.009  23.183  0.00  0.00    +0.095 C 
ATOM      9  C   UNL     1      -3.930  -0.630  23.882  0.00  0.00    +0.033 C 
ATOM     10  C   UNL     1      -2.978   1.506  23.405  0.00  0.00    +0.121 C 
ATOM     11  C   UNL     1      -4.172   0.268  25.088  0.00  0.00    +0.109 C 
ATOM     13  C   UNL     1      -3.888   2.700  25.471  0.00  0.00    +0.247 C 
ENDROOT
BRANCH  13  14
ATOM      6  N   UNL     1      -2.375   6.419  24.028  0.00  0.00    -0.263 NA
ATOM     14  C   UNL     1      -3.367   3.982  24.973  0.00  0.00    +0.040 A 
ATOM     16  C   UNL     1      -4.065   4.691  24.003  0.00  0.00    +0.033 A 
ATOM     17  C   UNL     1      -2.172   4.492  25.472  0.00  0.00    +0.033 A 
ATOM     19  C   UNL     1      -3.533   5.893  23.567  0.00  0.00    +0.111 A 
ATOM     20  C   UNL     1      -1.724   5.702  24.971  0.00  0.00    +0.111 A 
ENDBRANCH  13  14
BRANCH   8  12
ATOM      1  O   UNL     1      -0.264  -0.020  23.196  0.00  0.00    -0.420 OA
ATOM      4  N   UNL     1      -1.198  -1.461  24.631  0.00  0.00    -0.112 NA
ATOM      5  N   UNL     1       0.175  -1.580  24.739  0.00  0.00    -0.107 NA
ATOM     12  C   UNL     1      -1.409  -0.540  23.719  0.00  0.00    +0.222 A 
ATOM     15  C   UNL     1       0.678  -0.721  23.884  0.00  0.00    +0.250 A 
BRANCH  15  18
ATOM      7  N   UNL     1       4.362  -1.098  23.540  0.00  0.00    -0.263 NA
ATOM     18  C   UNL     1       2.043  -0.413  23.569  0.00  0.00    +0.057 A 
ATOM     21  C   UNL     1       2.391   0.813  23.011  0.00  0.00    +0.016 A 
ATOM     22  C   UNL     1       3.057  -1.325  23.812  0.00  0.00    +0.124 A 
ATOM     23  C   UNL     1       3.723   1.083  22.717  0.00  0.00    +0.020 A 
ATOM     24  C   UNL     1       4.661   0.104  22.999  0.00  0.00    +0.111 A 
ENDBRANCH  15  18
ENDBRANCH   8  12
TORSDOF 3
ENDMDL
MODEL 7
REMARK VINA RESULT:       2.8      1.809      2.422
REMARK  Name = 51137845
REMARK  3 active torsions:
REMARK  status: ('A' for Active; 'I' for Inactive)
REMARK    1  A    between atoms: C_8  and  C_12
REMARK    2  A    between atoms: C_13  and  C_14
REMARK    3  A    between atoms: C_15  and  C_18
REMARK                            x       y       z     vdW  Elec       q    Type
REMARK                         _______ _______ _______ _____ _____    ______ ____
ROOT
ATOM      2  O   UNL     1       1.247  -0.783  20.969  0.00  0.00    -0.270 OA
ATOM      3  N   UNL     1       0.458  -1.243  23.105  0.00  0.00    -0.297 N 
ATOM      8  C   UNL     1      -0.889  -1.413  25.059  0.00  0.00    +0.095 C 
ATOM      9  C   UNL     1      -1.475  -2.300  23.948  0.00  0.00    +0.033 C 
ATOM     10  C   UNL     1       0.548  -1.193  24.565  0.00  0.00    +0.121 C 
ATOM     11  C   UNL     1      -0.829  -1.767  22.676  0.00  0.00    +0.109 C 
ATOM     13  C   UNL     1       1.396  -0.790  22.189  0.00  0.00    +0.247 C 
ENDROOT
BRANCH  13  14
ATOM      6  N   UNL     1       5.070   0.739  23.728  0.00  0.00    -0.263 NA
ATOM     14  C   UNL     1       2.663  -0.263  22.719  0.00  0.00    +0.040 A 
ATOM     16  C   UNL     1       2.981   1.081  22.560  0.00  0.00    +0.033 A 
ATOM     17  C   UNL     1       3.547  -1.106  23.384  0.00  0.00    +0.033 A 
ATOM     19  C   UNL     1       4.186   1.529  23.077  0.00  0.00    +0.111 A 
ATOM     20  C   UNL     1       4.726  -0.561  23.864  0.00  0.00    +0.111 A 
ENDBRANCH  13  14
BRANCH   8  12
ATOM      1  O   UNL     1      -1.120   1.032  25.062  0.00  0.00    -0.420 OA
ATOM      4  N   UNL     1      -2.979  -0.059  25.667  0.00  0.00    -0.112 NA
ATOM      5  N   UNL     1      -3.245   1.297  25.711  0.00  0.00    -0.107 NA
ATOM     12  C   UNL     1      -1.728  -0.167  25.283  0.00  0.00    +0.222 A 
ATOM     15  C   UNL     1      -2.133   1.893  25.350  0.00  0.00    +0.250 A 
BRANCH  15  18
ATOM      7  N   UNL     1      -2.494   5.590  25.539  0.00  0.00    -0.263 NA
ATOM     18  C   UNL     1      -1.826   3.289  25.217  0.00  0.00    +0.057 A 
ATOM     21  C   UNL     1      -0.622   3.707  24.661  0.00  0.00    +0.016 A 
ATOM     22  C   UNL     1      -2.720   4.260  25.636  0.00  0.00    +0.124 A 
ATOM     23  C   UNL     1      -0.353   5.067  24.544  0.00  0.00    +0.020 A 
ATOM     24  C   UNL     1      -1.313   5.959  24.992  0.00  0.00    +0.111 A 
ENDBRANCH  15  18
ENDBRANCH   8  12
TORSDOF 3
ENDMDL
MODEL 8
REMARK VINA RESULT:       3.3     12.737     16.913
REMARK  Name = 51137845
REMARK  3 active torsions:
REMARK  status: ('A' for Active; 'I' for Inactive)
REMARK    1  A    between atoms: C_8  and  C_12
REMARK    2  A    between atoms: C_13  and  C_14
REMARK    3  A    between atoms: C_15  and  C_18
REMARK                            x       y       z     vdW  Elec       q    Type
REMARK                         _______ _______ _______ _____ _____    ______ ____
ROOT
ATOM      2  O   UNL     1      15.474   5.701  17.318  0.00  0.00    -0.270 OA
ATOM      3  N   UNL     1      15.820   7.572  18.650  0.00  0.00    -0.297 N 
ATOM      8  C   UNL     1      16.033   9.060  20.495  0.00  0.00    +0.095 C 
ATOM      9  C   UNL     1      17.159   8.015  20.542  0.00  0.00    +0.033 C 
ATOM     10  C   UNL     1      15.568   8.961  19.035  0.00  0.00    +0.121 C 
ATOM     11  C   UNL     1      16.664   6.902  19.628  0.00  0.00    +0.109 C 
ATOM     13  C   UNL     1      15.293   6.892  17.563  0.00  0.00    +0.247 C 
ENDROOT
BRANCH  13  14
ATOM      6  N   UNL     1      12.815   9.094  14.877  0.00  0.00    -0.263 NA
ATOM     14  C   UNL     1      14.439   7.651  16.637  0.00  0.00    +0.040 A 
ATOM     16  C   UNL     1      15.005   8.344  15.573  0.00  0.00    +0.033 A 
ATOM     17  C   UNL     1      13.061   7.679  16.821  0.00  0.00    +0.033 A 
ATOM     19  C   UNL     1      14.158   9.044  14.729  0.00  0.00    +0.111 A 
ATOM     20  C   UNL     1      12.301   8.408  15.922  0.00  0.00    +0.111 A 
ENDBRANCH  13  14
BRANCH   8  12
ATOM      1  O   UNL     1      13.844   8.167  21.161  0.00  0.00    -0.420 OA
ATOM      4  N   UNL     1      14.997   9.094  22.840  0.00  0.00    -0.112 NA
ATOM      5  N   UNL     1      13.796   8.636  23.347  0.00  0.00    -0.107 NA
ATOM     12  C   UNL     1      14.982   8.799  21.561  0.00  0.00    +0.222 A 
ATOM     15  C   UNL     1      13.156   8.103  22.333  0.00  0.00    +0.250 A 
BRANCH  15  18
ATOM      7  N   UNL     1       9.490   7.594  22.697  0.00  0.00    -0.263 NA
ATOM     18  C   UNL     1      11.867   7.476  22.271  0.00  0.00    +0.057 A 
ATOM     21  C   UNL     1      11.719   6.193  21.753  0.00  0.00    +0.016 A 
ATOM     22  C   UNL     1      10.733   8.127  22.726  0.00  0.00    +0.124 A 
ATOM     23  C   UNL     1      10.457   5.611  21.706  0.00  0.00    +0.020 A 
ATOM     24  C   UNL     1       9.386   6.346  22.187  0.00  0.00    +0.111 A 
ENDBRANCH  15  18
ENDBRANCH   8  12
TORSDOF 3
ENDMDL
MODEL 9
REMARK VINA RESULT:       3.3      2.515      7.277
REMARK  Name = 51137845
REMARK  3 active torsions:
REMARK  status: ('A' for Active; 'I' for Inactive)
REMARK    1  A    between atoms: C_8  and  C_12
REMARK    2  A    between atoms: C_13  and  C_14
REMARK    3  A    between atoms: C_15  and  C_18
REMARK                            x       y       z     vdW  Elec       q    Type
REMARK                         _______ _______ _______ _____ _____    ______ ____
ROOT
ATOM      2  O   UNL     1      -5.273   0.916  23.553  0.00  0.00    -0.270 OA
ATOM      3  N   UNL     1      -3.620   1.622  25.024  0.00  0.00    -0.297 N 
ATOM      8  C   UNL     1      -1.767   2.733  26.021  0.00  0.00    +0.095 C 
ATOM      9  C   UNL     1      -2.915   3.733  25.810  0.00  0.00    +0.033 C 
ATOM     10  C   UNL     1      -2.498   1.386  25.933  0.00  0.00    +0.121 C 
ATOM     11  C   UNL     1      -3.816   3.045  24.792  0.00  0.00    +0.109 C 
ATOM     13  C   UNL     1      -4.386   0.671  24.367  0.00  0.00    +0.247 C 
ENDROOT
BRANCH  13  14
ATOM      6  N   UNL     1      -3.568  -3.432  25.204  0.00  0.00    -0.263 NA
ATOM     14  C   UNL     1      -4.104  -0.744  24.656  0.00  0.00    +0.040 A 
ATOM     16  C   UNL     1      -4.396  -1.720  23.711  0.00  0.00    +0.033 A 
ATOM     17  C   UNL     1      -3.543  -1.110  25.875  0.00  0.00    +0.033 A 
ATOM     19  C   UNL     1      -4.113  -3.038  24.030  0.00  0.00    +0.111 A 
ATOM     20  C   UNL     1      -3.297  -2.454  26.098  0.00  0.00    +0.111 A 
ENDBRANCH  13  14
BRANCH   8  12
ATOM      1  O   UNL     1       0.083   1.864  24.660  0.00  0.00    -0.420 OA
ATOM      4  N   UNL     1      -0.236   4.070  24.459  0.00  0.00    -0.112 NA
ATOM      5  N   UNL     1       0.826   3.716  23.648  0.00  0.00    -0.107 NA
ATOM     12  C   UNL     1      -0.638   2.958  25.031  0.00  0.00    +0.222 A 
ATOM     15  C   UNL     1       0.976   2.421  23.797  0.00  0.00    +0.250 A 
BRANCH  15  18
ATOM      7  N   UNL     1       2.359  -0.622  22.167  0.00  0.00    -0.263 NA
ATOM     18  C   UNL     1       1.919   1.518  23.202  0.00  0.00    +0.057 A 
ATOM     21  C   UNL     1       3.260   1.865  23.075  0.00  0.00    +0.016 A 
ATOM     22  C   UNL     1       1.523   0.275  22.737  0.00  0.00    +0.124 A 
ATOM     23  C   UNL     1       4.151   0.969  22.493  0.00  0.00    +0.020 A 
ATOM     24  C   UNL     1       3.655  -0.250  22.061  0.00  0.00    +0.111 A 
ENDBRANCH  15  18
ENDBRANCH   8  12
TORSDOF 3
ENDMDL
MODEL 10
REMARK VINA RESULT:       3.7      2.801      4.773
REMARK  Name = 51137845
REMARK  3 active torsions:
REMARK  status: ('A' for Active; 'I' for Inactive)
REMARK    1  A    between atoms: C_8  and  C_12
REMARK    2  A    between atoms: C_13  and  C_14
REMARK    3  A    between atoms: C_15  and  C_18
REMARK                            x       y       z     vdW  Elec       q    Type
REMARK                         _______ _______ _______ _____ _____    ______ ____
ROOT
ATOM      2  O   UNL     1      -0.227  -1.770  26.143  0.00  0.00    -0.270 OA
ATOM      3  N   UNL     1      -0.313  -0.182  24.450  0.00  0.00    -0.297 N 
ATOM      8  C   UNL     1      -0.352   1.859  23.227  0.00  0.00    +0.095 C 
ATOM      9  C   UNL     1       1.035   1.664  23.860  0.00  0.00    +0.033 C 
ATOM     10  C   UNL     1      -0.927   0.437  23.274  0.00  0.00    +0.121 C 
ATOM     11  C   UNL     1       0.798   0.618  24.942  0.00  0.00    +0.109 C 
ATOM     13  C   UNL     1      -0.729  -1.326  25.112  0.00  0.00    +0.247 C 
ENDROOT
BRANCH  13  14
ATOM      6  N   UNL     1      -4.043  -3.455  23.471  0.00  0.00    -0.263 NA
ATOM     14  C   UNL     1      -1.872  -2.060  24.546  0.00  0.00    +0.040 A 
ATOM     16  C   UNL     1      -1.664  -3.242  23.845  0.00  0.00    +0.033 A 
ATOM     17  C   UNL     1      -3.165  -1.575  24.711  0.00  0.00    +0.033 A 
ATOM     19  C   UNL     1      -2.772  -3.896  23.332  0.00  0.00    +0.111 A 
ATOM     20  C   UNL     1      -4.206  -2.302  24.159  0.00  0.00    +0.111 A 
ENDBRANCH  13  14
BRANCH   8  12
ATOM      1  O   UNL     1      -2.451   2.657  24.221  0.00  0.00    -0.420 OA
ATOM      4  N   UNL     1      -0.769   4.127  24.348  0.00  0.00    -0.112 NA
ATOM      5  N   UNL     1      -1.881   4.698  24.939  0.00  0.00    -0.107 NA
ATOM     12  C   UNL     1      -1.148   2.937  23.943  0.00  0.00    +0.222 A 
ATOM     15  C   UNL     1      -2.837   3.805  24.842  0.00  0.00    +0.250 A 
BRANCH  15  18
ATOM      7  N   UNL     1      -6.179   5.165  25.742  0.00  0.00    -0.263 NA
ATOM     18  C   UNL     1      -4.202   3.852  25.281  0.00  0.00    +0.057 A 
ATOM     21  C   UNL     1      -4.872   2.695  25.665  0.00  0.00    +0.016 A 
ATOM     22  C   UNL     1      -4.894   5.050  25.338  0.00  0.00    +0.124 A 
ATOM     23  C   UNL     1      -6.195   2.772  26.087  0.00  0.00    +0.020 A 
ATOM     24  C   UNL     1      -6.797   4.019  26.108  0.00  0.00    +0.111 A 
ENDBRANCH  15  18
ENDBRANCH   8  12
TORSDOF 3
ENDMDL
