MODEL 1
REMARK VINA RESULT:      11.7      0.000      0.000
REMARK  Name = 11911964
REMARK  3 active torsions:
REMARK  status: ('A' for Active; 'I' for Inactive)
REMARK    1  A    between atoms: C_16  and  C_19
REMARK    2  A    between atoms: C_17  and  C_20
REMARK    3  A    between atoms: C_28  and  C_33
REMARK                            x       y       z     vdW  Elec       q    Type
REMARK                         _______ _______ _______ _____ _____    ______ ____
ROOT
ATOM      2  O   UNL     1       0.249   2.623  25.313  0.00  0.00    -0.267 OA
ATOM      3  O   UNL     1      -3.933   0.574  27.194  0.00  0.00    -0.270 OA
ATOM      4  N   UNL     1      -4.618   1.712  25.294  0.00  0.00    -0.297 N 
ATOM      5  N   UNL     1      -1.826   2.748  24.253  0.00  0.00    -0.311 N 
ATOM      7  C   UNL     1      -3.797   4.059  25.234  0.00  0.00    +0.027 C 
ATOM      8  C   UNL     1      -4.081   2.808  23.132  0.00  0.00    +0.054 C 
ATOM      9  C   UNL     1      -4.257   4.178  23.785  0.00  0.00    +0.018 C 
ATOM     10  C   UNL     1      -4.640   3.007  25.979  0.00  0.00    +0.113 C 
ATOM     11  C   UNL     1      -2.301   3.719  25.250  0.00  0.00    +0.130 C 
ATOM     12  C   UNL     1      -4.960   1.771  23.863  0.00  0.00    +0.117 C 
ATOM     13  C   UNL     1      -2.632   2.364  23.177  0.00  0.00    +0.027 A 
ATOM     14  C   UNL     1      -2.140   1.567  22.215  0.00  0.00    +0.022 A 
ATOM     15  C   UNL     1      -0.496   2.303  24.385  0.00  0.00    +0.260 A 
ATOM     16  C   UNL     1      -4.207   0.561  25.993  0.00  0.00    +0.247 C 
ATOM     17  C   UNL     1       0.011   1.386  23.308  0.00  0.00    +0.053 A 
ATOM     18  C   UNL     1      -0.794   1.071  22.283  0.00  0.00    +0.016 A 
ENDROOT
BRANCH  17  20
ATOM      1  S   UNL     1       1.581  -0.795  23.707  0.00  0.00    -0.088 S 
ATOM     20  C   UNL     1       1.339   0.861  23.363  0.00  0.00    +0.026 A 
ATOM     23  C   UNL     1       2.535   1.520  23.170  0.00  0.00    +0.024 A 
ATOM     24  C   UNL     1       3.679   0.663  23.305  0.00  0.00    -0.010 A 
ATOM     25  C   UNL     1       3.296  -0.649  23.602  0.00  0.00    +0.020 A 
ATOM     29  C   UNL     1       5.061   0.946  23.185  0.00  0.00    +0.009 A 
ATOM     30  C   UNL     1       4.248  -1.672  23.780  0.00  0.00    +0.015 A 
ATOM     31  C   UNL     1       6.008  -0.067  23.361  0.00  0.00    +0.001 A 
ATOM     32  C   UNL     1       5.603  -1.362  23.655  0.00  0.00    +0.001 A 
ENDBRANCH  17  20
BRANCH  16  19
ATOM     19  C   UNL     1      -4.082  -0.672  25.228  0.00  0.00    +0.037 A 
ATOM     21  C   UNL     1      -4.729  -0.794  24.001  0.00  0.00    +0.014 A 
ATOM     22  C   UNL     1      -3.317  -1.722  25.728  0.00  0.00    +0.014 A 
ATOM     26  C   UNL     1      -4.608  -1.975  23.268  0.00  0.00    +0.019 A 
ATOM     27  C   UNL     1      -3.196  -2.903  24.994  0.00  0.00    +0.019 A 
ATOM     28  C   UNL     1      -3.841  -3.029  23.765  0.00  0.00    +0.052 A 
BRANCH  28  33
ATOM      6  N   UNL     1      -3.620  -5.224  22.405  0.00  0.00    -0.191 NA
ATOM     33  C   UNL     1      -3.720  -4.240  23.014  0.00  0.00    +0.099 C 
ENDBRANCH  28  33
ENDBRANCH  16  19
TORSDOF 3
ENDMDL
