MODEL 1
REMARK VINA RESULT:       6.5      0.000      0.000
REMARK  Name = 45784104
REMARK  10 active torsions:
REMARK  status: ('A' for Active; 'I' for Inactive)
REMARK    1  A    between atoms: N_2  and  C_15
REMARK    2  A    between atoms: N_8  and  C_35
REMARK    3  A    between atoms: C_10  and  C_14
REMARK    4  A    between atoms: C_11  and  C_15
REMARK    5  A    between atoms: C_13  and  C_18
REMARK    6  A    between atoms: C_14  and  C_19
REMARK    7  A    between atoms: C_14  and  C_20
REMARK    8  A    between atoms: C_17  and  C_23
REMARK    9  A    between atoms: C_18  and  C_26
REMARK   10  A    between atoms: C_28  and  C_30
REMARK                            x       y       z     vdW  Elec       q    Type
REMARK                         _______ _______ _______ _____ _____    ______ ____
ROOT
ATOM     10  C   UNL     1      -3.261  -0.609  24.978  0.00  0.00    +0.000 C 
ATOM     11  C   UNL     1      -3.442  -0.030  23.556  0.00  0.00    +0.029 C 
ATOM     12  C   UNL     1      -3.918   0.308  26.020  0.00  0.00    +0.012 C 
ATOM     13  C   UNL     1      -5.417   0.558  25.756  0.00  0.00    +0.024 C 
ATOM     16  C   UNL     1      -4.840   0.481  23.313  0.00  0.00    -0.023 C 
ATOM     17  C   UNL     1      -5.740   0.737  24.281  0.00  0.00    -0.073 C 
ATOM     23  C   UNL     1      -7.138   1.162  23.922  0.00  0.00    +0.039 C 
ENDROOT
BRANCH  10  14
ATOM     14  C   UNL     1      -3.808  -2.040  25.075  0.00  0.00    -0.013 C 
ATOM     19  C   UNL     1      -2.757  -2.972  25.668  0.00  0.00    +0.007 C 
ATOM     20  C   UNL     1      -4.256  -2.532  23.703  0.00  0.00    +0.007 C 
ENDBRANCH  10  14
BRANCH  11  15
ATOM     15  C   UNL     1      -2.439   1.092  23.270  0.00  0.00    +0.092 C 
BRANCH  15   2
ATOM      2  N   UNL     1      -1.095   0.703  23.692  0.00  0.00    -0.299 NA
ATOM      3  N   UNL     1       1.706   0.239  23.376  0.00  0.00    -0.312 N 
ATOM      6  N   UNL     1       3.540  -1.183  23.887  0.00  0.00    -0.237 NA
ATOM      7  N   UNL     1       5.243   0.665  22.643  0.00  0.00    -0.258 NA
ATOM     21  C   UNL     1      -0.165   1.831  23.555  0.00  0.00    +0.103 C 
ATOM     22  C   UNL     1      -0.616  -0.438  22.901  0.00  0.00    +0.103 C 
ATOM     24  C   UNL     1       1.234   1.453  24.048  0.00  0.00    +0.122 C 
ATOM     25  C   UNL     1       0.768  -0.891  23.372  0.00  0.00    +0.122 C 
ATOM     27  C   UNL     1       3.076  -0.044  23.335  0.00  0.00    +0.140 A 
ATOM     29  C   UNL     1       3.913   0.863  22.724  0.00  0.00    +0.154 A 
ATOM     31  C   UNL     1       4.870  -1.381  23.807  0.00  0.00    +0.132 A 
ATOM     32  C   UNL     1       5.707  -0.474  23.196  0.00  0.00    +0.130 A 
ENDBRANCH  15   2
ENDBRANCH  11  15
BRANCH  13  18
ATOM     18  C   UNL     1      -5.874   1.743  26.615  0.00  0.00    +0.105 C 
BRANCH  18  26
ATOM      1  O   UNL     1      -3.870   2.976  25.968  0.00  0.00    -0.419 OA
ATOM      4  N   UNL     1      -5.738   4.207  25.979  0.00  0.00    -0.112 NA
ATOM      5  N   UNL     1      -4.690   5.024  25.599  0.00  0.00    -0.106 NA
ATOM     26  C   UNL     1      -5.213   3.021  26.185  0.00  0.00    +0.218 A 
ATOM     28  C   UNL     1      -3.621   4.264  25.607  0.00  0.00    +0.266 A 
BRANCH  28  30
ATOM      8  N   UNL     1      -1.157   4.124  25.618  0.00  0.00    -0.329 N 
ATOM      9  N   UNL     1      -0.578   5.933  24.469  0.00  0.00    -0.243 NA
ATOM     30  C   UNL     1      -2.328   4.737  25.271  0.00  0.00    +0.125 A 
ATOM     33  C   UNL     1      -1.945   5.852  24.563  0.00  0.00    +0.143 A 
ATOM     34  C   UNL     1      -0.134   4.877  25.115  0.00  0.00    +0.199 A 
ATOM     35  C   UNL     1      -1.001   2.902  26.375  0.00  0.00    +0.150 C 
ENDBRANCH  28  30
ENDBRANCH  18  26
ENDBRANCH  13  18
TORSDOF 6
ENDMDL
MODEL 2
REMARK VINA RESULT:       6.6      1.758      4.773
REMARK  Name = 45784104
REMARK  10 active torsions:
REMARK  status: ('A' for Active; 'I' for Inactive)
REMARK    1  A    between atoms: N_2  and  C_15
REMARK    2  A    between atoms: N_8  and  C_35
REMARK    3  A    between atoms: C_10  and  C_14
REMARK    4  A    between atoms: C_11  and  C_15
REMARK    5  A    between atoms: C_13  and  C_18
REMARK    6  A    between atoms: C_14  and  C_19
REMARK    7  A    between atoms: C_14  and  C_20
REMARK    8  A    between atoms: C_17  and  C_23
REMARK    9  A    between atoms: C_18  and  C_26
REMARK   10  A    between atoms: C_28  and  C_30
REMARK                            x       y       z     vdW  Elec       q    Type
REMARK                         _______ _______ _______ _____ _____    ______ ____
ROOT
ATOM     10  C   UNL     1      -2.214   4.042  23.561  0.00  0.00    +0.000 C 
ATOM     11  C   UNL     1      -1.332   3.117  24.431  0.00  0.00    +0.029 C 
ATOM     12  C   UNL     1      -3.695   3.881  23.934  0.00  0.00    +0.012 C 
ATOM     13  C   UNL     1      -3.983   4.151  25.426  0.00  0.00    +0.024 C 
ATOM     16  C   UNL     1      -1.734   3.133  25.885  0.00  0.00    -0.023 C 
ATOM     17  C   UNL     1      -2.907   3.602  26.349  0.00  0.00    -0.073 C 
ATOM     23  C   UNL     1      -3.170   3.652  27.830  0.00  0.00    +0.039 C 
ENDROOT
BRANCH  10  14
ATOM     14  C   UNL     1      -1.771   5.508  23.674  0.00  0.00    -0.013 C 
ATOM     19  C   UNL     1      -0.779   5.676  24.819  0.00  0.00    +0.007 C 
ATOM     20  C   UNL     1      -2.981   6.416  23.868  0.00  0.00    +0.007 C 
ENDBRANCH  10  14
BRANCH  11  15
ATOM     15  C   UNL     1      -1.351   1.673  23.920  0.00  0.00    +0.092 C 
BRANCH  15   2
ATOM      2  N   UNL     1      -0.047   1.301  23.374  0.00  0.00    -0.299 NA
ATOM      3  N   UNL     1       2.600   0.231  23.444  0.00  0.00    -0.312 N 
ATOM      6  N   UNL     1       4.850   0.483  22.721  0.00  0.00    -0.237 NA
ATOM      7  N   UNL     1       5.447  -1.984  23.914  0.00  0.00    -0.258 NA
ATOM     21  C   UNL     1       0.166  -0.147  23.491  0.00  0.00    +0.103 C 
ATOM     22  C   UNL     1       1.027   2.022  24.068  0.00  0.00    +0.103 C 
ATOM     24  C   UNL     1       1.505  -0.557  22.871  0.00  0.00    +0.122 C 
ATOM     25  C   UNL     1       2.394   1.684  23.468  0.00  0.00    +0.122 C 
ATOM     27  C   UNL     1       3.914  -0.245  23.363  0.00  0.00    +0.140 A 
ATOM     29  C   UNL     1       4.208  -1.457  23.948  0.00  0.00    +0.154 A 
ATOM     31  C   UNL     1       6.089  -0.044  22.687  0.00  0.00    +0.132 A 
ATOM     32  C   UNL     1       6.383  -1.256  23.272  0.00  0.00    +0.130 A 
ENDBRANCH  15   2
ENDBRANCH  11  15
BRANCH  13  18
ATOM     18  C   UNL     1      -5.383   3.619  25.758  0.00  0.00    +0.105 C 
BRANCH  18  26
ATOM      1  O   UNL     1      -4.472   1.408  25.270  0.00  0.00    -0.419 OA
ATOM      4  N   UNL     1      -6.650   1.624  24.806  0.00  0.00    -0.112 NA
ATOM      5  N   UNL     1      -6.270   0.335  24.483  0.00  0.00    -0.106 NA
ATOM     26  C   UNL     1      -5.569   2.214  25.261  0.00  0.00    +0.218 A 
ATOM     28  C   UNL     1      -4.993   0.254  24.770  0.00  0.00    +0.266 A 
BRANCH  28  30
ATOM      8  N   UNL     1      -3.064  -1.212  25.236  0.00  0.00    -0.329 N 
ATOM      9  N   UNL     1      -3.436  -2.926  23.874  0.00  0.00    -0.243 NA
ATOM     30  C   UNL     1      -4.225  -0.921  24.578  0.00  0.00    +0.125 A 
ATOM     33  C   UNL     1      -4.434  -1.994  23.743  0.00  0.00    +0.143 A 
ATOM     34  C   UNL     1      -2.626  -2.425  24.781  0.00  0.00    +0.199 A 
ATOM     35  C   UNL     1      -2.399  -0.405  26.234  0.00  0.00    +0.150 C 
ENDBRANCH  28  30
ENDBRANCH  18  26
ENDBRANCH  13  18
TORSDOF 6
ENDMDL
MODEL 3
REMARK VINA RESULT:       7.8      2.239      3.168
REMARK  Name = 45784104
REMARK  10 active torsions:
REMARK  status: ('A' for Active; 'I' for Inactive)
REMARK    1  A    between atoms: N_2  and  C_15
REMARK    2  A    between atoms: N_8  and  C_35
REMARK    3  A    between atoms: C_10  and  C_14
REMARK    4  A    between atoms: C_11  and  C_15
REMARK    5  A    between atoms: C_13  and  C_18
REMARK    6  A    between atoms: C_14  and  C_19
REMARK    7  A    between atoms: C_14  and  C_20
REMARK    8  A    between atoms: C_17  and  C_23
REMARK    9  A    between atoms: C_18  and  C_26
REMARK   10  A    between atoms: C_28  and  C_30
REMARK                            x       y       z     vdW  Elec       q    Type
REMARK                         _______ _______ _______ _____ _____    ______ ____
ROOT
ATOM     10  C   UNL     1      -2.878   0.203  24.399  0.00  0.00    +0.000 C 
ATOM     11  C   UNL     1      -3.262   0.906  23.077  0.00  0.00    +0.029 C 
ATOM     12  C   UNL     1      -2.510   1.238  25.472  0.00  0.00    +0.012 C 
ATOM     13  C   UNL     1      -3.631   2.263  25.743  0.00  0.00    +0.024 C 
ATOM     16  C   UNL     1      -4.163   2.096  23.294  0.00  0.00    -0.023 C 
ATOM     17  C   UNL     1      -4.350   2.707  24.479  0.00  0.00    -0.073 C 
ATOM     23  C   UNL     1      -5.341   3.833  24.602  0.00  0.00    +0.039 C 
ENDROOT
BRANCH  10  14
ATOM     14  C   UNL     1      -3.998  -0.726  24.887  0.00  0.00    -0.013 C 
ATOM     19  C   UNL     1      -3.587  -1.423  26.179  0.00  0.00    +0.007 C 
ATOM     20  C   UNL     1      -4.349  -1.747  23.809  0.00  0.00    +0.007 C 
ENDBRANCH  10  14
BRANCH  11  15
ATOM     15  C   UNL     1      -2.024   1.349  22.291  0.00  0.00    +0.092 C 
BRANCH  15   2
ATOM      2  N   UNL     1      -0.807   0.815  22.900  0.00  0.00    -0.299 NA
ATOM      3  N   UNL     1       1.994   0.298  23.109  0.00  0.00    -0.312 N 
ATOM      6  N   UNL     1       3.671  -1.286  23.681  0.00  0.00    -0.237 NA
ATOM      7  N   UNL     1       5.605   0.704  23.278  0.00  0.00    -0.258 NA
ATOM     21  C   UNL     1       0.127   1.900  23.222  0.00  0.00    +0.103 C 
ATOM     22  C   UNL     1      -0.162  -0.149  22.001  0.00  0.00    +0.103 C 
ATOM     24  C   UNL     1       1.382   1.360  23.912  0.00  0.00    +0.122 C 
ATOM     25  C   UNL     1       1.083  -0.759  22.650  0.00  0.00    +0.122 C 
ATOM     27  C   UNL     1       3.339  -0.034  23.306  0.00  0.00    +0.140 A 
ATOM     29  C   UNL     1       4.290   0.943  23.109  0.00  0.00    +0.154 A 
ATOM     31  C   UNL     1       4.985  -1.525  23.851  0.00  0.00    +0.132 A 
ATOM     32  C   UNL     1       5.936  -0.548  23.653  0.00  0.00    +0.130 A 
ENDBRANCH  15   2
ENDBRANCH  11  15
BRANCH  13  18
ATOM     18  C   UNL     1      -3.042   3.435  26.537  0.00  0.00    +0.105 C 
BRANCH  18  26
ATOM      1  O   UNL     1      -0.901   3.009  27.629  0.00  0.00    -0.419 OA
ATOM      4  N   UNL     1      -0.724   3.758  25.528  0.00  0.00    -0.112 NA
ATOM      5  N   UNL     1       0.552   3.561  26.021  0.00  0.00    -0.106 NA
ATOM     26  C   UNL     1      -1.540   3.423  26.501  0.00  0.00    +0.218 A 
ATOM     28  C   UNL     1       0.400   3.125  27.249  0.00  0.00    +0.266 A 
BRANCH  28  30
ATOM      8  N   UNL     1       1.388   2.594  29.447  0.00  0.00    -0.329 N 
ATOM      9  N   UNL     1       3.534   2.325  28.945  0.00  0.00    -0.243 NA
ATOM     30  C   UNL     1       1.486   2.804  28.100  0.00  0.00    +0.125 A 
ATOM     33  C   UNL     1       2.820   2.632  27.814  0.00  0.00    +0.143 A 
ATOM     34  C   UNL     1       2.642   2.310  29.911  0.00  0.00    +0.199 A 
ATOM     35  C   UNL     1       0.192   2.654  30.255  0.00  0.00    +0.150 C 
ENDBRANCH  28  30
ENDBRANCH  18  26
ENDBRANCH  13  18
TORSDOF 6
ENDMDL
MODEL 4
REMARK VINA RESULT:       8.5      2.021      6.825
REMARK  Name = 45784104
REMARK  10 active torsions:
REMARK  status: ('A' for Active; 'I' for Inactive)
REMARK    1  A    between atoms: N_2  and  C_15
REMARK    2  A    between atoms: N_8  and  C_35
REMARK    3  A    between atoms: C_10  and  C_14
REMARK    4  A    between atoms: C_11  and  C_15
REMARK    5  A    between atoms: C_13  and  C_18
REMARK    6  A    between atoms: C_14  and  C_19
REMARK    7  A    between atoms: C_14  and  C_20
REMARK    8  A    between atoms: C_17  and  C_23
REMARK    9  A    between atoms: C_18  and  C_26
REMARK   10  A    between atoms: C_28  and  C_30
REMARK                            x       y       z     vdW  Elec       q    Type
REMARK                         _______ _______ _______ _____ _____    ______ ____
ROOT
ATOM     10  C   UNL     1      -2.328   4.357  25.684  0.00  0.00    +0.000 C 
ATOM     11  C   UNL     1      -3.660   4.335  24.899  0.00  0.00    +0.029 C 
ATOM     12  C   UNL     1      -1.690   2.961  25.699  0.00  0.00    +0.012 C 
ATOM     13  C   UNL     1      -1.445   2.384  24.289  0.00  0.00    +0.024 C 
ATOM     16  C   UNL     1      -3.562   3.554  23.613  0.00  0.00    -0.023 C 
ATOM     17  C   UNL     1      -2.574   2.688  23.317  0.00  0.00    -0.073 C 
ATOM     23  C   UNL     1      -2.526   2.026  21.966  0.00  0.00    +0.039 C 
ENDROOT
BRANCH  10  14
ATOM     14  C   UNL     1      -1.360   5.403  25.114  0.00  0.00    -0.013 C 
ATOM     19  C   UNL     1      -2.076   6.299  24.109  0.00  0.00    +0.007 C 
ATOM     20  C   UNL     1      -0.157   4.720  24.471  0.00  0.00    +0.007 C 
ENDBRANCH  10  14
BRANCH  11  15
ATOM     15  C   UNL     1      -4.806   3.770  25.744  0.00  0.00    +0.092 C 
BRANCH  15   2
ATOM      2  N   UNL     1      -4.910   2.322  25.572  0.00  0.00    -0.299 NA
ATOM      3  N   UNL     1      -4.087  -0.265  24.683  0.00  0.00    -0.312 N 
ATOM      6  N   UNL     1      -4.769  -2.338  23.744  0.00  0.00    -0.237 NA
ATOM      7  N   UNL     1      -2.155  -3.289  24.092  0.00  0.00    -0.258 NA
ATOM     21  C   UNL     1      -3.773   1.644  26.208  0.00  0.00    +0.103 C 
ATOM     22  C   UNL     1      -4.965   1.975  24.147  0.00  0.00    +0.103 C 
ATOM     24  C   UNL     1      -3.900   0.124  26.084  0.00  0.00    +0.122 C 
ATOM     25  C   UNL     1      -5.131   0.465  23.954  0.00  0.00    +0.122 C 
ATOM     27  C   UNL     1      -3.797  -1.574  24.282  0.00  0.00    +0.140 A 
ATOM     29  C   UNL     1      -2.513  -2.042  24.452  0.00  0.00    +0.154 A 
ATOM     31  C   UNL     1      -4.411  -3.585  23.384  0.00  0.00    +0.132 A 
ATOM     32  C   UNL     1      -3.126  -4.054  23.555  0.00  0.00    +0.130 A 
ENDBRANCH  15   2
ENDBRANCH  11  15
BRANCH  13  18
ATOM     18  C   UNL     1      -1.156   0.884  24.417  0.00  0.00    +0.105 C 
BRANCH  18  26
ATOM      1  O   UNL     1       1.261   0.750  24.100  0.00  0.00    -0.419 OA
ATOM      4  N   UNL     1       0.067  -0.107  22.413  0.00  0.00    -0.112 NA
ATOM      5  N   UNL     1       1.407  -0.248  22.103  0.00  0.00    -0.106 NA
ATOM     26  C   UNL     1       0.029   0.480  23.586  0.00  0.00    +0.218 A 
ATOM     28  C   UNL     1       2.065   0.266  23.114  0.00  0.00    +0.266 A 
BRANCH  28  30
ATOM      8  N   UNL     1       4.280  -0.722  23.569  0.00  0.00    -0.329 N 
ATOM      9  N   UNL     1       5.652   0.955  23.083  0.00  0.00    -0.243 NA
ATOM     30  C   UNL     1       3.479   0.314  23.177  0.00  0.00    +0.125 A 
ATOM     33  C   UNL     1       4.349   1.338  22.883  0.00  0.00    +0.143 A 
ATOM     34  C   UNL     1       5.575  -0.291  23.497  0.00  0.00    +0.199 A 
ATOM     35  C   UNL     1       3.861  -2.041  23.986  0.00  0.00    +0.150 C 
ENDBRANCH  28  30
ENDBRANCH  18  26
ENDBRANCH  13  18
TORSDOF 6
ENDMDL
MODEL 5
REMARK VINA RESULT:       8.7      2.152      4.821
REMARK  Name = 45784104
REMARK  10 active torsions:
REMARK  status: ('A' for Active; 'I' for Inactive)
REMARK    1  A    between atoms: N_2  and  C_15
REMARK    2  A    between atoms: N_8  and  C_35
REMARK    3  A    between atoms: C_10  and  C_14
REMARK    4  A    between atoms: C_11  and  C_15
REMARK    5  A    between atoms: C_13  and  C_18
REMARK    6  A    between atoms: C_14  and  C_19
REMARK    7  A    between atoms: C_14  and  C_20
REMARK    8  A    between atoms: C_17  and  C_23
REMARK    9  A    between atoms: C_18  and  C_26
REMARK   10  A    between atoms: C_28  and  C_30
REMARK                            x       y       z     vdW  Elec       q    Type
REMARK                         _______ _______ _______ _____ _____    ______ ____
ROOT
ATOM     10  C   UNL     1      -4.204   2.383  24.253  0.00  0.00    +0.000 C 
ATOM     11  C   UNL     1      -3.541   3.163  23.095  0.00  0.00    +0.029 C 
ATOM     12  C   UNL     1      -3.158   1.996  25.309  0.00  0.00    +0.012 C 
ATOM     13  C   UNL     1      -2.388   3.206  25.879  0.00  0.00    +0.024 C 
ATOM     16  C   UNL     1      -2.564   4.203  23.581  0.00  0.00    -0.023 C 
ATOM     17  C   UNL     1      -2.048   4.247  24.824  0.00  0.00    -0.073 C 
ATOM     23  C   UNL     1      -1.147   5.381  25.231  0.00  0.00    +0.039 C 
ENDROOT
BRANCH  10  14
ATOM     14  C   UNL     1      -5.355   3.181  24.880  0.00  0.00    -0.013 C 
ATOM     19  C   UNL     1      -4.885   3.886  26.148  0.00  0.00    +0.007 C 
ATOM     20  C   UNL     1      -6.538   2.264  25.177  0.00  0.00    +0.007 C 
ENDBRANCH  10  14
BRANCH  11  15
ATOM     15  C   UNL     1      -2.830   2.225  22.114  0.00  0.00    +0.092 C 
BRANCH  15   2
ATOM      2  N   UNL     1      -1.661   1.611  22.742  0.00  0.00    -0.299 NA
ATOM      3  N   UNL     1       1.069   0.794  22.933  0.00  0.00    -0.312 N 
ATOM      6  N   UNL     1       2.574  -0.915  23.611  0.00  0.00    -0.237 NA
ATOM      7  N   UNL     1       4.706   0.793  22.979  0.00  0.00    -0.258 NA
ATOM     21  C   UNL     1      -0.600   2.605  22.939  0.00  0.00    +0.103 C 
ATOM     22  C   UNL     1      -1.160   0.501  21.922  0.00  0.00    +0.103 C 
ATOM     24  C   UNL     1       0.608   1.987  23.648  0.00  0.00    +0.122 C 
ATOM     25  C   UNL     1       0.030  -0.187  22.596  0.00  0.00    +0.122 C 
ATOM     27  C   UNL     1       2.374   0.328  23.129  0.00  0.00    +0.140 A 
ATOM     29  C   UNL     1       3.422   1.167  22.819  0.00  0.00    +0.154 A 
ATOM     31  C   UNL     1       3.859  -1.288  23.772  0.00  0.00    +0.132 A 
ATOM     32  C   UNL     1       4.907  -0.449  23.462  0.00  0.00    +0.130 A 
ENDBRANCH  15   2
ENDBRANCH  11  15
BRANCH  13  18
ATOM     18  C   UNL     1      -1.153   2.692  26.629  0.00  0.00    +0.105 C 
BRANCH  18  26
ATOM      1  O   UNL     1      -1.822   0.587  25.591  0.00  0.00    -0.419 OA
ATOM      4  N   UNL     1      -0.192   0.381  27.110  0.00  0.00    -0.112 NA
ATOM      5  N   UNL     1      -0.469  -0.877  26.608  0.00  0.00    -0.106 NA
ATOM     26  C   UNL     1      -1.005   1.203  26.488  0.00  0.00    +0.218 A 
ATOM     28  C   UNL     1      -1.425  -0.709  25.726  0.00  0.00    +0.266 A 
BRANCH  28  30
ATOM      8  N   UNL     1      -3.321  -1.894  24.682  0.00  0.00    -0.329 N 
ATOM      9  N   UNL     1      -2.329  -3.662  23.776  0.00  0.00    -0.243 NA
ATOM     30  C   UNL     1      -1.993  -1.772  24.983  0.00  0.00    +0.125 A 
ATOM     33  C   UNL     1      -1.402  -2.875  24.413  0.00  0.00    +0.143 A 
ATOM     34  C   UNL     1      -3.475  -3.043  23.957  0.00  0.00    +0.199 A 
ATOM     35  C   UNL     1      -4.387  -0.989  25.049  0.00  0.00    +0.150 C 
ENDBRANCH  28  30
ENDBRANCH  18  26
ENDBRANCH  13  18
TORSDOF 6
ENDMDL
MODEL 6
REMARK VINA RESULT:       9.0      2.280      4.061
REMARK  Name = 45784104
REMARK  10 active torsions:
REMARK  status: ('A' for Active; 'I' for Inactive)
REMARK    1  A    between atoms: N_2  and  C_15
REMARK    2  A    between atoms: N_8  and  C_35
REMARK    3  A    between atoms: C_10  and  C_14
REMARK    4  A    between atoms: C_11  and  C_15
REMARK    5  A    between atoms: C_13  and  C_18
REMARK    6  A    between atoms: C_14  and  C_19
REMARK    7  A    between atoms: C_14  and  C_20
REMARK    8  A    between atoms: C_17  and  C_23
REMARK    9  A    between atoms: C_18  and  C_26
REMARK   10  A    between atoms: C_28  and  C_30
REMARK                            x       y       z     vdW  Elec       q    Type
REMARK                         _______ _______ _______ _____ _____    ______ ____
ROOT
ATOM     10  C   UNL     1      -4.399   1.439  25.803  0.00  0.00    +0.000 C 
ATOM     11  C   UNL     1      -3.931   0.381  24.777  0.00  0.00    +0.029 C 
ATOM     12  C   UNL     1      -3.407   2.610  25.858  0.00  0.00    +0.012 C 
ATOM     13  C   UNL     1      -3.182   3.286  24.489  0.00  0.00    +0.024 C 
ATOM     16  C   UNL     1      -3.445   0.997  23.490  0.00  0.00    -0.023 C 
ATOM     17  C   UNL     1      -3.118   2.294  23.339  0.00  0.00    -0.073 C 
ATOM     23  C   UNL     1      -2.727   2.824  21.985  0.00  0.00    +0.039 C 
ENDROOT
BRANCH  10  14
ATOM     14  C   UNL     1      -5.820   1.930  25.494  0.00  0.00    -0.013 C 
ATOM     19  C   UNL     1      -5.841   3.450  25.369  0.00  0.00    +0.007 C 
ATOM     20  C   UNL     1      -6.791   1.461  26.572  0.00  0.00    +0.007 C 
ENDBRANCH  10  14
BRANCH  11  15
ATOM     15  C   UNL     1      -2.831  -0.518  25.352  0.00  0.00    +0.092 C 
BRANCH  15   2
ATOM      2  N   UNL     1      -1.688  -0.580  24.444  0.00  0.00    -0.299 NA
ATOM      3  N   UNL     1       1.061  -0.381  23.694  0.00  0.00    -0.312 N 
ATOM      6  N   UNL     1       2.606   0.321  22.031  0.00  0.00    -0.237 NA
ATOM      7  N   UNL     1       4.670  -0.810  23.555  0.00  0.00    -0.258 NA
ATOM     21  C   UNL     1      -0.717  -1.580  24.905  0.00  0.00    +0.103 C 
ATOM     22  C   UNL     1      -1.040   0.733  24.340  0.00  0.00    +0.103 C 
ATOM     24  C   UNL     1       0.458  -1.695  23.931  0.00  0.00    +0.122 C 
ATOM     25  C   UNL     1       0.124   0.696  23.347  0.00  0.00    +0.122 C 
ATOM     27  C   UNL     1       2.370  -0.295  23.207  0.00  0.00    +0.140 A 
ATOM     29  C   UNL     1       3.385  -0.851  23.955  0.00  0.00    +0.154 A 
ATOM     31  C   UNL     1       3.892   0.361  21.631  0.00  0.00    +0.132 A 
ATOM     32  C   UNL     1       4.907  -0.195  22.379  0.00  0.00    +0.130 A 
ENDBRANCH  15   2
ENDBRANCH  11  15
BRANCH  13  18
ATOM     18  C   UNL     1      -1.936   4.175  24.581  0.00  0.00    +0.105 C 
BRANCH  18  26
ATOM      1  O   UNL     1      -0.866   3.588  26.695  0.00  0.00    -0.419 OA
ATOM      4  N   UNL     1       0.192   2.807  24.885  0.00  0.00    -0.112 NA
ATOM      5  N   UNL     1       0.901   2.404  26.002  0.00  0.00    -0.106 NA
ATOM     26  C   UNL     1      -0.830   3.495  25.337  0.00  0.00    +0.218 A 
ATOM     28  C   UNL     1       0.248   2.883  27.034  0.00  0.00    +0.266 A 
BRANCH  28  30
ATOM      8  N   UNL     1       1.959   2.671  28.799  0.00  0.00    -0.329 N 
ATOM      9  N   UNL     1       0.723   2.333  30.613  0.00  0.00    -0.243 NA
ATOM     30  C   UNL     1       0.660   2.686  28.374  0.00  0.00    +0.125 A 
ATOM     33  C   UNL     1      -0.084   2.475  29.512  0.00  0.00    +0.143 A 
ATOM     34  C   UNL     1       1.947   2.456  30.149  0.00  0.00    +0.199 A 
ATOM     35  C   UNL     1       3.144   2.848  27.991  0.00  0.00    +0.150 C 
ENDBRANCH  28  30
ENDBRANCH  18  26
ENDBRANCH  13  18
TORSDOF 6
ENDMDL
MODEL 7
REMARK VINA RESULT:       9.7      2.119      4.864
REMARK  Name = 45784104
REMARK  10 active torsions:
REMARK  status: ('A' for Active; 'I' for Inactive)
REMARK    1  A    between atoms: N_2  and  C_15
REMARK    2  A    between atoms: N_8  and  C_35
REMARK    3  A    between atoms: C_10  and  C_14
REMARK    4  A    between atoms: C_11  and  C_15
REMARK    5  A    between atoms: C_13  and  C_18
REMARK    6  A    between atoms: C_14  and  C_19
REMARK    7  A    between atoms: C_14  and  C_20
REMARK    8  A    between atoms: C_17  and  C_23
REMARK    9  A    between atoms: C_18  and  C_26
REMARK   10  A    between atoms: C_28  and  C_30
REMARK                            x       y       z     vdW  Elec       q    Type
REMARK                         _______ _______ _______ _____ _____    ______ ____
ROOT
ATOM     10  C   UNL     1      -3.595   3.358  24.144  0.00  0.00    +0.000 C 
ATOM     11  C   UNL     1      -3.585   4.005  25.548  0.00  0.00    +0.029 C 
ATOM     12  C   UNL     1      -4.136   1.923  24.217  0.00  0.00    +0.012 C 
ATOM     13  C   UNL     1      -5.547   1.832  24.834  0.00  0.00    +0.024 C 
ATOM     16  C   UNL     1      -4.851   3.732  26.321  0.00  0.00    -0.023 C 
ATOM     17  C   UNL     1      -5.745   2.774  26.010  0.00  0.00    -0.073 C 
ATOM     23  C   UNL     1      -7.020   2.645  26.799  0.00  0.00    +0.039 C 
ENDROOT
BRANCH  10  14
ATOM     14  C   UNL     1      -4.396   4.202  23.143  0.00  0.00    -0.013 C 
ATOM     19  C   UNL     1      -4.167   3.701  21.722  0.00  0.00    +0.007 C 
ATOM     20  C   UNL     1      -4.017   5.674  23.266  0.00  0.00    +0.007 C 
ENDBRANCH  10  14
BRANCH  11  15
ATOM     15  C   UNL     1      -2.381   3.544  26.375  0.00  0.00    +0.092 C 
BRANCH  15   2
ATOM      2  N   UNL     1      -1.221   3.315  25.516  0.00  0.00    -0.299 NA
ATOM      3  N   UNL     1       0.696   1.756  24.081  0.00  0.00    -0.312 N 
ATOM      6  N   UNL     1       2.977   1.516  23.462  0.00  0.00    -0.237 NA
ATOM      7  N   UNL     1       2.246  -0.646  21.833  0.00  0.00    -0.258 NA
ATOM     21  C   UNL     1      -1.613   2.586  24.303  0.00  0.00    +0.103 C 
ATOM     22  C   UNL     1      -0.185   2.565  26.237  0.00  0.00    +0.103 C 
ATOM     24  C   UNL     1      -0.417   2.390  23.368  0.00  0.00    +0.122 C 
ATOM     25  C   UNL     1       1.059   2.368  25.366  0.00  0.00    +0.122 C 
ATOM     27  C   UNL     1       1.699   1.100  23.360  0.00  0.00    +0.140 A 
ATOM     29  C   UNL     1       1.341   0.037  22.559  0.00  0.00    +0.154 A 
ATOM     31  C   UNL     1       3.883   0.833  22.735  0.00  0.00    +0.132 A 
ATOM     32  C   UNL     1       3.524  -0.230  21.935  0.00  0.00    +0.130 A 
ENDBRANCH  15   2
ENDBRANCH  11  15
BRANCH  13  18
ATOM     18  C   UNL     1      -5.833   0.367  25.189  0.00  0.00    +0.105 C 
BRANCH  18  26
ATOM      1  O   UNL     1      -3.625  -0.657  25.364  0.00  0.00    -0.419 OA
ATOM      4  N   UNL     1      -4.780  -1.276  23.551  0.00  0.00    -0.112 NA
ATOM      5  N   UNL     1      -3.560  -1.925  23.522  0.00  0.00    -0.106 NA
ATOM     26  C   UNL     1      -4.774  -0.547  24.643  0.00  0.00    +0.218 A 
ATOM     28  C   UNL     1      -2.920  -1.534  24.598  0.00  0.00    +0.266 A 
BRANCH  28  30
ATOM      8  N   UNL     1      -0.790  -1.369  25.832  0.00  0.00    -0.329 N 
ATOM      9  N   UNL     1       0.332  -3.129  25.072  0.00  0.00    -0.243 NA
ATOM     30  C   UNL     1      -1.619  -1.981  24.934  0.00  0.00    +0.125 A 
ATOM     33  C   UNL     1      -0.904  -3.064  24.478  0.00  0.00    +0.143 A 
ATOM     34  C   UNL     1       0.369  -2.093  25.882  0.00  0.00    +0.199 A 
ATOM     35  C   UNL     1      -1.063  -0.177  26.602  0.00  0.00    +0.150 C 
ENDBRANCH  28  30
ENDBRANCH  18  26
ENDBRANCH  13  18
TORSDOF 6
ENDMDL
