MODEL 1
REMARK VINA RESULT:      -2.7      0.000      0.000
REMARK  Name = 38030355
REMARK  10 active torsions:
REMARK  status: ('A' for Active; 'I' for Inactive)
REMARK    1  A    between atoms: N_3  and  C_12
REMARK    2  A    between atoms: C_7  and  C_11
REMARK    3  A    between atoms: C_8  and  C_12
REMARK    4  A    between atoms: C_10  and  C_17
REMARK    5  A    between atoms: C_11  and  C_21
REMARK    6  A    between atoms: C_11  and  C_22
REMARK    7  A    between atoms: C_14  and  C_23
REMARK    8  A    between atoms: C_17  and  C_24
REMARK    9  A    between atoms: C_18  and  C_25
REMARK   10  A    between atoms: C_26  and  C_27
REMARK                            x       y       z     vdW  Elec       q    Type
REMARK                         _______ _______ _______ _____ _____    ______ ____
ROOT
ATOM      7  C   UNL     1      13.929  -9.442  30.125  0.00  0.00    +0.000 C 
ATOM      8  C   UNL     1      13.518 -10.003  31.506  0.00  0.00    +0.029 C 
ATOM      9  C   UNL     1      15.161  -8.535  30.258  0.00  0.00    +0.012 C 
ATOM     10  C   UNL     1      16.372  -9.239  30.907  0.00  0.00    +0.024 C 
ATOM     13  C   UNL     1      14.700 -10.478  32.313  0.00  0.00    -0.023 C 
ATOM     14  C   UNL     1      15.981 -10.159  32.054  0.00  0.00    -0.073 C 
ATOM     23  C   UNL     1      17.092 -10.758  32.872  0.00  0.00    +0.039 C 
ENDROOT
BRANCH   7  11
ATOM     11  C   UNL     1      14.178 -10.569  29.113  0.00  0.00    -0.013 C 
ATOM     21  C   UNL     1      15.399 -10.254  28.256  0.00  0.00    +0.007 C 
ATOM     22  C   UNL     1      12.944 -10.781  28.241  0.00  0.00    +0.007 C 
ENDBRANCH   7  11
BRANCH   8  12
ATOM     12  C   UNL     1      12.730  -8.975  32.323  0.00  0.00    +0.092 C 
BRANCH  12   3
ATOM      3  N   UNL     1      11.323  -9.362  32.421  0.00  0.00    -0.302 NA
ATOM     15  C   UNL     1      10.978 -10.320  31.363  0.00  0.00    +0.085 C 
ATOM     16  C   UNL     1      10.458  -8.175  32.364  0.00  0.00    +0.085 C 
ATOM     18  C   UNL     1       8.566  -9.586  31.472  0.00  0.00    +0.077 C 
ATOM     19  C   UNL     1       9.523 -10.777  31.483  0.00  0.00    +0.028 C 
ATOM     20  C   UNL     1       8.986  -8.558  32.521  0.00  0.00    +0.028 C 
BRANCH  18  25
ATOM      2  O   UNL     1       6.697 -10.082  32.873  0.00  0.00    -0.276 OA
ATOM      5  N   UNL     1       6.502 -10.479  30.615  0.00  0.00    -0.329 N 
ATOM     25  C   UNL     1       7.172 -10.060  31.741  0.00  0.00    +0.214 C 
ATOM     33  H   UNL     1       6.923 -10.462  29.693  0.00  0.00    +0.145 HD
ATOM     34  H   UNL     1       5.550 -10.825  30.675  0.00  0.00    +0.145 HD
ENDBRANCH  18  25
ENDBRANCH  12   3
ENDBRANCH   8  12
BRANCH  10  17
ATOM     17  C   UNL     1      17.396  -8.174  31.318  0.00  0.00    +0.105 C 
BRANCH  17  24
ATOM      1  O   UNL     1      17.187  -5.744  31.425  0.00  0.00    -0.420 OA
ATOM      4  N   UNL     1      15.728  -6.848  32.715  0.00  0.00    -0.112 NA
ATOM      6  N   UNL     1      15.499  -5.494  32.872  0.00  0.00    -0.107 NA
ATOM     24  C   UNL     1      16.722  -6.947  31.862  0.00  0.00    +0.218 A 
ATOM     26  C   UNL     1      16.373  -4.888  32.102  0.00  0.00    +0.248 A 
BRANCH  26  27
ATOM     27  C   UNL     1      16.597  -3.491  31.866  0.00  0.00    +0.038 A 
ATOM     28  C   UNL     1      16.263  -2.931  30.633  0.00  0.00    +0.013 A 
ATOM     29  C   UNL     1      17.147  -2.694  32.869  0.00  0.00    +0.013 A 
ATOM     30  C   UNL     1      16.481  -1.572  30.404  0.00  0.00    +0.001 A 
ATOM     31  C   UNL     1      17.364  -1.335  32.640  0.00  0.00    +0.001 A 
ATOM     32  C   UNL     1      17.031  -0.775  31.407  0.00  0.00    +0.000 A 
ENDBRANCH  26  27
ENDBRANCH  17  24
ENDBRANCH  10  17
TORSDOF 7
ENDMDL
MODEL 2
REMARK VINA RESULT:       0.6     16.144     19.635
REMARK  Name = 38030355
REMARK  10 active torsions:
REMARK  status: ('A' for Active; 'I' for Inactive)
REMARK    1  A    between atoms: N_3  and  C_12
REMARK    2  A    between atoms: C_7  and  C_11
REMARK    3  A    between atoms: C_8  and  C_12
REMARK    4  A    between atoms: C_10  and  C_17
REMARK    5  A    between atoms: C_11  and  C_21
REMARK    6  A    between atoms: C_11  and  C_22
REMARK    7  A    between atoms: C_14  and  C_23
REMARK    8  A    between atoms: C_17  and  C_24
REMARK    9  A    between atoms: C_18  and  C_25
REMARK   10  A    between atoms: C_26  and  C_27
REMARK                            x       y       z     vdW  Elec       q    Type
REMARK                         _______ _______ _______ _____ _____    ______ ____
ROOT
ATOM      7  C   UNL     1      -2.509   3.117  25.677  0.00  0.00    +0.000 C 
ATOM      8  C   UNL     1      -4.023   3.199  25.371  0.00  0.00    +0.029 C 
ATOM      9  C   UNL     1      -1.803   2.209  24.660  0.00  0.00    +0.012 C 
ATOM     10  C   UNL     1      -2.007   2.655  23.196  0.00  0.00    +0.024 C 
ATOM     13  C   UNL     1      -4.307   3.377  23.901  0.00  0.00    -0.023 C 
ATOM     14  C   UNL     1      -3.418   3.152  22.917  0.00  0.00    -0.073 C 
ATOM     23  C   UNL     1      -3.780   3.445  21.486  0.00  0.00    +0.039 C 
ENDROOT
BRANCH   7  11
ATOM     11  C   UNL     1      -1.869   4.511  25.714  0.00  0.00    -0.013 C 
ATOM     21  C   UNL     1      -2.878   5.572  25.286  0.00  0.00    +0.007 C 
ATOM     22  C   UNL     1      -0.631   4.551  24.823  0.00  0.00    +0.007 C 
ENDBRANCH   7  11
BRANCH   8  12
ATOM     12  C   UNL     1      -4.772   1.965  25.883  0.00  0.00    +0.092 C 
BRANCH  12   3
ATOM      3  N   UNL     1      -4.147   0.739  25.389  0.00  0.00    -0.302 NA
ATOM     15  C   UNL     1      -4.927   0.176  24.279  0.00  0.00    +0.085 C 
ATOM     16  C   UNL     1      -3.995  -0.236  26.478  0.00  0.00    +0.085 C 
ATOM     18  C   UNL     1      -4.030  -2.124  24.805  0.00  0.00    +0.077 C 
ATOM     19  C   UNL     1      -4.257  -1.079  23.714  0.00  0.00    +0.028 C 
ATOM     20  C   UNL     1      -3.292  -1.503  25.990  0.00  0.00    +0.028 C 
BRANCH  18  25
ATOM      2  O   UNL     1      -3.780  -4.300  23.853  0.00  0.00    -0.276 OA
ATOM      5  N   UNL     1      -1.884  -3.055  24.240  0.00  0.00    -0.329 N 
ATOM     25  C   UNL     1      -3.243  -3.268  24.247  0.00  0.00    +0.214 C 
ATOM     33  H   UNL     1      -1.466  -2.197  24.583  0.00  0.00    +0.145 HD
ATOM     34  H   UNL     1      -1.248  -3.763  23.888  0.00  0.00    +0.145 HD
ENDBRANCH  18  25
ENDBRANCH  12   3
ENDBRANCH   8  12
BRANCH  10  17
ATOM     17  C   UNL     1      -1.584   1.508  22.271  0.00  0.00    +0.105 C 
BRANCH  17  24
ATOM      1  O   UNL     1       0.726   0.843  22.692  0.00  0.00    -0.420 OA
ATOM      4  N   UNL     1      -0.796  -0.413  23.747  0.00  0.00    -0.112 NA
ATOM      6  N   UNL     1       0.457  -0.897  24.072  0.00  0.00    -0.107 NA
ATOM     24  C   UNL     1      -0.590   0.603  22.940  0.00  0.00    +0.218 A 
ATOM     26  C   UNL     1       1.315  -0.135  23.434  0.00  0.00    +0.248 A 
BRANCH  26  27
ATOM     27  C   UNL     1       2.748  -0.171  23.400  0.00  0.00    +0.038 A 
ATOM     28  C   UNL     1       3.463   0.944  22.962  0.00  0.00    +0.013 A 
ATOM     29  C   UNL     1       3.427  -1.320  23.806  0.00  0.00    +0.013 A 
ATOM     30  C   UNL     1       4.857   0.908  22.929  0.00  0.00    +0.001 A 
ATOM     31  C   UNL     1       4.821  -1.355  23.774  0.00  0.00    +0.001 A 
ATOM     32  C   UNL     1       5.536  -0.241  23.334  0.00  0.00    +0.000 A 
ENDBRANCH  26  27
ENDBRANCH  17  24
ENDBRANCH  10  17
TORSDOF 7
ENDMDL
MODEL 3
REMARK VINA RESULT:       0.6     16.768     21.120
REMARK  Name = 38030355
REMARK  10 active torsions:
REMARK  status: ('A' for Active; 'I' for Inactive)
REMARK    1  A    between atoms: N_3  and  C_12
REMARK    2  A    between atoms: C_7  and  C_11
REMARK    3  A    between atoms: C_8  and  C_12
REMARK    4  A    between atoms: C_10  and  C_17
REMARK    5  A    between atoms: C_11  and  C_21
REMARK    6  A    between atoms: C_11  and  C_22
REMARK    7  A    between atoms: C_14  and  C_23
REMARK    8  A    between atoms: C_17  and  C_24
REMARK    9  A    between atoms: C_18  and  C_25
REMARK   10  A    between atoms: C_26  and  C_27
REMARK                            x       y       z     vdW  Elec       q    Type
REMARK                         _______ _______ _______ _____ _____    ______ ____
ROOT
ATOM      7  C   UNL     1      -2.015   3.957  23.713  0.00  0.00    +0.000 C 
ATOM      8  C   UNL     1      -1.242   3.089  24.733  0.00  0.00    +0.029 C 
ATOM      9  C   UNL     1      -3.526   3.872  23.970  0.00  0.00    +0.012 C 
ATOM     10  C   UNL     1      -3.927   4.284  25.403  0.00  0.00    +0.024 C 
ATOM     13  C   UNL     1      -1.760   3.249  26.139  0.00  0.00    -0.023 C 
ATOM     14  C   UNL     1      -2.949   3.791  26.460  0.00  0.00    -0.073 C 
ATOM     23  C   UNL     1      -3.332   3.982  27.902  0.00  0.00    +0.039 C 
ENDROOT
BRANCH   7  11
ATOM     11  C   UNL     1      -1.530   5.413  23.735  0.00  0.00    -0.013 C 
ATOM     21  C   UNL     1      -0.563   5.634  24.893  0.00  0.00    +0.007 C 
ATOM     22  C   UNL     1      -2.717   6.367  23.831  0.00  0.00    +0.007 C 
ENDBRANCH   7  11
BRANCH   8  12
ATOM     12  C   UNL     1      -1.270   1.606  24.351  0.00  0.00    +0.092 C 
BRANCH  12   3
ATOM      3  N   UNL     1       0.088   1.073  24.247  0.00  0.00    -0.302 NA
ATOM     15  C   UNL     1       1.008   2.105  23.750  0.00  0.00    +0.085 C 
ATOM     16  C   UNL     1       0.110  -0.116  23.384  0.00  0.00    +0.085 C 
ATOM     18  C   UNL     1       2.534   0.315  22.836  0.00  0.00    +0.077 C 
ATOM     19  C   UNL     1       2.445   1.580  23.687  0.00  0.00    +0.028 C 
ATOM     20  C   UNL     1       1.513  -0.718  23.310  0.00  0.00    +0.028 C 
BRANCH  18  25
ATOM      2  O   UNL     1       4.863   0.244  22.310  0.00  0.00    -0.276 OA
ATOM      5  N   UNL     1       4.014  -1.365  23.719  0.00  0.00    -0.329 N 
ATOM     25  C   UNL     1       3.918  -0.250  22.921  0.00  0.00    +0.214 C 
ATOM     33  H   UNL     1       3.214  -1.759  24.203  0.00  0.00    +0.145 HD
ATOM     34  H   UNL     1       4.903  -1.837  23.850  0.00  0.00    +0.145 HD
ENDBRANCH  18  25
ENDBRANCH  12   3
ENDBRANCH   8  12
BRANCH  10  17
ATOM     17  C   UNL     1      -5.367   3.824  25.661  0.00  0.00    +0.105 C 
BRANCH  17  24
ATOM      1  O   UNL     1      -4.498   1.571  25.305  0.00  0.00    -0.420 OA
ATOM      4  N   UNL     1      -6.657   1.816  24.770  0.00  0.00    -0.112 NA
ATOM      6  N   UNL     1      -6.300   0.504  24.520  0.00  0.00    -0.107 NA
ATOM     24  C   UNL     1      -5.574   2.402  25.227  0.00  0.00    +0.218 A 
ATOM     26  C   UNL     1      -5.033   0.407  24.847  0.00  0.00    +0.248 A 
BRANCH  26  27
ATOM     27  C   UNL     1      -4.142  -0.716  24.797  0.00  0.00    +0.038 A 
ATOM     28  C   UNL     1      -3.023  -0.754  25.629  0.00  0.00    +0.013 A 
ATOM     29  C   UNL     1      -4.395  -1.769  23.919  0.00  0.00    +0.013 A 
ATOM     30  C   UNL     1      -2.156  -1.847  25.581  0.00  0.00    +0.001 A 
ATOM     31  C   UNL     1      -3.529  -2.862  23.872  0.00  0.00    +0.001 A 
ATOM     32  C   UNL     1      -2.409  -2.900  24.703  0.00  0.00    +0.000 A 
ENDBRANCH  26  27
ENDBRANCH  17  24
ENDBRANCH  10  17
TORSDOF 7
ENDMDL
