MODEL 1
REMARK VINA RESULT:       0.1      0.000      0.000
REMARK  Name = 75367690
REMARK  6 active torsions:
REMARK  status: ('A' for Active; 'I' for Inactive)
REMARK    1  A    between atoms: S_1  and  C_20
REMARK    2  A    between atoms: S_1  and  C_25
REMARK    3  A    between atoms: O_3  and  C_10
REMARK    4  A    between atoms: O_3  and  C_16
REMARK    5  A    between atoms: C_15  and  C_17
REMARK    6  A    between atoms: C_24  and  C_26
REMARK                            x       y       z     vdW  Elec       q    Type
REMARK                         _______ _______ _______ _____ _____    ______ ____
ROOT
ATOM      2  O   UNL     1      -3.762   5.010  24.487  0.00  0.00    -0.375 OA
ATOM      4  O   UNL     1      -6.294   0.901  24.418  0.00  0.00    -0.268 OA
ATOM      8  N   UNL     1      -4.572   2.131  25.424  0.00  0.00    -0.290 N 
ATOM     10  C   UNL     1      -2.506   3.529  25.964  0.00  0.00    +0.216 C 
ATOM     11  C   UNL     1      -3.205   2.167  25.958  0.00  0.00    +0.155 C 
ATOM     12  C   UNL     1      -5.342   3.376  25.398  0.00  0.00    +0.136 C 
ATOM     13  C   UNL     1      -2.569   4.244  24.615  0.00  0.00    +0.206 C 
ATOM     14  C   UNL     1      -4.933   4.247  24.216  0.00  0.00    +0.179 C 
ATOM     15  C   UNL     1      -5.165   0.970  24.903  0.00  0.00    +0.268 C 
ENDROOT
BRANCH  15  17
ATOM      5  O   UNL     1      -3.301  -1.952  25.767  0.00  0.00    -0.359 OA
ATOM      9  N   UNL     1      -3.992  -0.793  26.099  0.00  0.00    -0.073 NA
ATOM     17  C   UNL     1      -4.392  -0.282  24.931  0.00  0.00    +0.168 A 
ATOM     23  C   UNL     1      -3.986  -1.068  23.838  0.00  0.00    +0.080 A 
ATOM     24  C   UNL     1      -3.304  -2.105  24.418  0.00  0.00    +0.135 A 
ATOM     26  C   UNL     1      -2.612  -3.287  23.890  0.00  0.00    +0.089 C 
ENDBRANCH  15  17
BRANCH  10   3
ATOM      3  O   UNL     1      -1.138   3.289  26.300  0.00  0.00    -0.485 OA
BRANCH   3  16
ATOM     16  C   UNL     1      -0.436   2.474  25.455  0.00  0.00    +0.121 A 
ATOM     18  C   UNL     1       0.501   3.019  24.578  0.00  0.00    +0.047 A 
ATOM     19  C   UNL     1      -0.654   1.096  25.474  0.00  0.00    +0.047 A 
ATOM     20  C   UNL     1       0.999   0.811  23.735  0.00  0.00    +0.088 A 
ATOM     21  C   UNL     1       1.218   2.189  23.718  0.00  0.00    +0.030 A 
ATOM     22  C   UNL     1       0.063   0.264  24.613  0.00  0.00    +0.030 A 
BRANCH  20   1
ATOM      1  S   UNL     1       1.900  -0.230  22.660  0.00  0.00    -0.006 S 
ATOM      6  O   UNL     1       2.320  -1.416  23.395  0.00  0.00    -0.170 OA
ATOM      7  O   UNL     1       1.134  -0.375  21.431  0.00  0.00    -0.170 OA
ATOM     25  C   UNL     1       3.372   0.693  22.282  0.00  0.00    +0.200 C 
ENDBRANCH  20   1
ENDBRANCH   3  16
ENDBRANCH  10   3
TORSDOF 4
ENDMDL
MODEL 2
REMARK VINA RESULT:       0.2     14.113     16.944
REMARK  Name = 75367690
REMARK  6 active torsions:
REMARK  status: ('A' for Active; 'I' for Inactive)
REMARK    1  A    between atoms: S_1  and  C_20
REMARK    2  A    between atoms: S_1  and  C_25
REMARK    3  A    between atoms: O_3  and  C_10
REMARK    4  A    between atoms: O_3  and  C_16
REMARK    5  A    between atoms: C_15  and  C_17
REMARK    6  A    between atoms: C_24  and  C_26
REMARK                            x       y       z     vdW  Elec       q    Type
REMARK                         _______ _______ _______ _____ _____    ______ ____
ROOT
ATOM      2  O   UNL     1      -4.834  -9.235  17.395  0.00  0.00    -0.375 OA
ATOM      4  O   UNL     1      -9.649  -9.429  17.104  0.00  0.00    -0.268 OA
ATOM      8  N   UNL     1      -7.599 -10.254  16.326  0.00  0.00    -0.290 N 
ATOM     10  C   UNL     1      -5.242 -10.582  15.403  0.00  0.00    +0.216 C 
ATOM     11  C   UNL     1      -6.757 -10.650  15.191  0.00  0.00    +0.155 C 
ATOM     12  C   UNL     1      -7.021 -10.303  17.671  0.00  0.00    +0.136 C 
ATOM     13  C   UNL     1      -4.773  -9.245  15.973  0.00  0.00    +0.206 C 
ATOM     14  C   UNL     1      -6.144  -9.085  17.933  0.00  0.00    +0.179 C 
ATOM     15  C   UNL     1      -8.919  -9.798  16.185  0.00  0.00    +0.268 C 
ENDROOT
BRANCH  15  17
ATOM      5  O   UNL     1     -10.511  -8.928  13.108  0.00  0.00    -0.359 OA
ATOM      9  N   UNL     1     -10.078  -8.629  14.395  0.00  0.00    -0.073 NA
ATOM     17  C   UNL     1      -9.501  -9.752  14.833  0.00  0.00    +0.168 A 
ATOM     23  C   UNL     1      -9.538 -10.781  13.877  0.00  0.00    +0.080 A 
ATOM     24  C   UNL     1     -10.184 -10.211  12.812  0.00  0.00    +0.135 A 
ATOM     26  C   UNL     1     -10.570 -10.696  11.480  0.00  0.00    +0.089 C 
ENDBRANCH  15  17
BRANCH  10   3
ATOM      3  O   UNL     1      -4.638 -10.780  14.123  0.00  0.00    -0.485 OA
BRANCH   3  16
ATOM     16  C   UNL     1      -5.331 -10.314  13.041  0.00  0.00    +0.121 A 
ATOM     18  C   UNL     1      -4.985 -10.732  11.757  0.00  0.00    +0.047 A 
ATOM     19  C   UNL     1      -6.388  -9.421  13.223  0.00  0.00    +0.047 A 
ATOM     20  C   UNL     1      -6.748  -9.363  10.834  0.00  0.00    +0.088 A 
ATOM     21  C   UNL     1      -5.692 -10.257  10.653  0.00  0.00    +0.030 A 
ATOM     22  C   UNL     1      -7.096  -8.945  12.118  0.00  0.00    +0.030 A 
BRANCH  20   1
ATOM      1  S   UNL     1      -7.637  -8.771   9.452  0.00  0.00    -0.006 S 
ATOM      6  O   UNL     1      -8.714  -7.907   9.919  0.00  0.00    -0.170 OA
ATOM      7  O   UNL     1      -6.674  -8.267   8.483  0.00  0.00    -0.170 OA
ATOM     25  C   UNL     1      -8.400 -10.222   8.762  0.00  0.00    +0.200 C 
ENDBRANCH  20   1
ENDBRANCH   3  16
ENDBRANCH  10   3
TORSDOF 4
ENDMDL
MODEL 3
REMARK VINA RESULT:       0.7      2.208      3.268
REMARK  Name = 75367690
REMARK  6 active torsions:
REMARK  status: ('A' for Active; 'I' for Inactive)
REMARK    1  A    between atoms: S_1  and  C_20
REMARK    2  A    between atoms: S_1  and  C_25
REMARK    3  A    between atoms: O_3  and  C_10
REMARK    4  A    between atoms: O_3  and  C_16
REMARK    5  A    between atoms: C_15  and  C_17
REMARK    6  A    between atoms: C_24  and  C_26
REMARK                            x       y       z     vdW  Elec       q    Type
REMARK                         _______ _______ _______ _____ _____    ______ ____
ROOT
ATOM      2  O   UNL     1      -1.001   6.090  24.739  0.00  0.00    -0.375 OA
ATOM      4  O   UNL     1      -5.343   4.129  25.518  0.00  0.00    -0.268 OA
ATOM      8  N   UNL     1      -3.019   3.902  25.720  0.00  0.00    -0.290 N 
ATOM     10  C   UNL     1      -0.494   3.787  25.366  0.00  0.00    +0.216 C 
ATOM     11  C   UNL     1      -1.825   3.061  25.576  0.00  0.00    +0.155 C 
ATOM     12  C   UNL     1      -2.843   5.293  26.142  0.00  0.00    +0.136 C 
ATOM     13  C   UNL     1      -0.547   4.831  24.252  0.00  0.00    +0.206 C 
ATOM     14  C   UNL     1      -2.403   6.167  24.973  0.00  0.00    +0.179 C 
ATOM     15  C   UNL     1      -4.319   3.451  25.441  0.00  0.00    +0.268 C 
ENDROOT
BRANCH  15  17
ATOM      5  O   UNL     1      -5.321   0.053  24.984  0.00  0.00    -0.359 OA
ATOM      9  N   UNL     1      -5.421   1.289  25.610  0.00  0.00    -0.073 NA
ATOM     17  C   UNL     1      -4.496   2.051  25.019  0.00  0.00    +0.168 A 
ATOM     23  C   UNL     1      -3.789   1.357  24.022  0.00  0.00    +0.080 A 
ATOM     24  C   UNL     1      -4.346   0.106  24.041  0.00  0.00    +0.135 A 
ATOM     26  C   UNL     1      -4.104  -1.125  23.277  0.00  0.00    +0.089 C 
ENDBRANCH  15  17
BRANCH  10   3
ATOM      3  O   UNL     1       0.470   2.790  25.025  0.00  0.00    -0.485 OA
BRANCH   3  16
ATOM     16  C   UNL     1       0.021   1.499  24.970  0.00  0.00    +0.121 A 
ATOM     18  C   UNL     1       0.202   0.747  23.810  0.00  0.00    +0.047 A 
ATOM     19  C   UNL     1      -0.616   0.936  26.076  0.00  0.00    +0.047 A 
ATOM     20  C   UNL     1      -0.893  -1.134  24.859  0.00  0.00    +0.088 A 
ATOM     21  C   UNL     1      -0.255  -0.570  23.754  0.00  0.00    +0.030 A 
ATOM     22  C   UNL     1      -1.073  -0.381  26.020  0.00  0.00    +0.030 A 
BRANCH  20   1
ATOM      1  S   UNL     1      -1.462  -2.784  24.791  0.00  0.00    -0.006 S 
ATOM      6  O   UNL     1      -1.744  -3.128  23.404  0.00  0.00    -0.170 OA
ATOM      7  O   UNL     1      -0.545  -3.606  25.568  0.00  0.00    -0.170 OA
ATOM     25  C   UNL     1      -3.023  -2.749  25.644  0.00  0.00    +0.200 C 
ENDBRANCH  20   1
ENDBRANCH   3  16
ENDBRANCH  10   3
TORSDOF 4
ENDMDL
MODEL 4
REMARK VINA RESULT:       1.0      2.430      4.542
REMARK  Name = 75367690
REMARK  6 active torsions:
REMARK  status: ('A' for Active; 'I' for Inactive)
REMARK    1  A    between atoms: S_1  and  C_20
REMARK    2  A    between atoms: S_1  and  C_25
REMARK    3  A    between atoms: O_3  and  C_10
REMARK    4  A    between atoms: O_3  and  C_16
REMARK    5  A    between atoms: C_15  and  C_17
REMARK    6  A    between atoms: C_24  and  C_26
REMARK                            x       y       z     vdW  Elec       q    Type
REMARK                         _______ _______ _______ _____ _____    ______ ____
ROOT
ATOM      2  O   UNL     1       0.587   4.158  23.684  0.00  0.00    -0.375 OA
ATOM      4  O   UNL     1      -4.092   5.303  23.994  0.00  0.00    -0.268 OA
ATOM      8  N   UNL     1      -2.249   4.274  25.012  0.00  0.00    -0.290 N 
ATOM     10  C   UNL     1      -0.198   2.874  25.603  0.00  0.00    +0.216 C 
ATOM     11  C   UNL     1      -1.702   3.127  25.745  0.00  0.00    +0.155 C 
ATOM     12  C   UNL     1      -1.336   5.350  24.621  0.00  0.00    +0.136 C 
ATOM     13  C   UNL     1       0.273   2.850  24.150  0.00  0.00    +0.206 C 
ATOM     14  C   UNL     1      -0.543   4.969  23.377  0.00  0.00    +0.179 C 
ATOM     15  C   UNL     1      -3.598   4.376  24.635  0.00  0.00    +0.268 C 
ENDROOT
BRANCH  15  17
ATOM      5  O   UNL     1      -5.616   1.440  24.883  0.00  0.00    -0.359 OA
ATOM      9  N   UNL     1      -4.709   2.254  24.215  0.00  0.00    -0.073 NA
ATOM     17  C   UNL     1      -4.517   3.296  25.030  0.00  0.00    +0.168 A 
ATOM     23  C   UNL     1      -5.268   3.195  26.213  0.00  0.00    +0.080 A 
ATOM     24  C   UNL     1      -5.941   2.010  26.070  0.00  0.00    +0.135 A 
ATOM     26  C   UNL     1      -6.897   1.278  26.910  0.00  0.00    +0.089 C 
ENDBRANCH  15  17
BRANCH  10   3
ATOM      3  O   UNL     1       0.063   1.602  26.198  0.00  0.00    -0.485 OA
BRANCH   3  16
ATOM     16  C   UNL     1      -0.694   0.552  25.755  0.00  0.00    +0.121 A 
ATOM     18  C   UNL     1      -2.012   0.412  26.185  0.00  0.00    +0.047 A 
ATOM     19  C   UNL     1      -0.146  -0.377  24.870  0.00  0.00    +0.047 A 
ATOM     20  C   UNL     1      -2.237  -1.588  24.849  0.00  0.00    +0.088 A 
ATOM     21  C   UNL     1      -2.784  -0.658  25.733  0.00  0.00    +0.030 A 
ATOM     22  C   UNL     1      -0.918  -1.448  24.418  0.00  0.00    +0.030 A 
BRANCH  20   1
ATOM      1  S   UNL     1      -3.204  -2.926  24.280  0.00  0.00    -0.006 S 
ATOM      6  O   UNL     1      -2.447  -3.662  23.275  0.00  0.00    -0.170 OA
ATOM      7  O   UNL     1      -3.732  -3.625  25.443  0.00  0.00    -0.170 OA
ATOM     25  C   UNL     1      -4.569  -2.157  23.438  0.00  0.00    +0.200 C 
ENDBRANCH  20   1
ENDBRANCH   3  16
ENDBRANCH  10   3
TORSDOF 4
ENDMDL
MODEL 5
REMARK VINA RESULT:       1.1      2.525      5.930
REMARK  Name = 75367690
REMARK  6 active torsions:
REMARK  status: ('A' for Active; 'I' for Inactive)
REMARK    1  A    between atoms: S_1  and  C_20
REMARK    2  A    between atoms: S_1  and  C_25
REMARK    3  A    between atoms: O_3  and  C_10
REMARK    4  A    between atoms: O_3  and  C_16
REMARK    5  A    between atoms: C_15  and  C_17
REMARK    6  A    between atoms: C_24  and  C_26
REMARK                            x       y       z     vdW  Elec       q    Type
REMARK                         _______ _______ _______ _____ _____    ______ ____
ROOT
ATOM      2  O   UNL     1      -4.607  -2.950  23.703  0.00  0.00    -0.375 OA
ATOM      4  O   UNL     1      -0.108  -2.203  25.287  0.00  0.00    -0.268 OA
ATOM      8  N   UNL     1      -2.349  -1.519  25.339  0.00  0.00    -0.290 N 
ATOM     10  C   UNL     1      -4.734  -0.779  24.809  0.00  0.00    +0.216 C 
ATOM     11  C   UNL     1      -3.326  -0.425  25.297  0.00  0.00    +0.155 C 
ATOM     12  C   UNL     1      -2.847  -2.894  25.404  0.00  0.00    +0.136 C 
ATOM     13  C   UNL     1      -4.738  -1.548  23.489  0.00  0.00    +0.206 C 
ATOM     14  C   UNL     1      -3.290  -3.381  24.030  0.00  0.00    +0.179 C 
ATOM     15  C   UNL     1      -0.960  -1.316  25.285  0.00  0.00    +0.268 C 
ENDROOT
BRANCH  15  17
ATOM      5  O   UNL     1       0.472   1.830  24.385  0.00  0.00    -0.359 OA
ATOM      9  N   UNL     1       0.127   0.512  24.106  0.00  0.00    -0.073 NA
ATOM     17  C   UNL     1      -0.460   0.067  25.221  0.00  0.00    +0.168 A 
ATOM     23  C   UNL     1      -0.514   1.049  26.226  0.00  0.00    +0.080 A 
ATOM     24  C   UNL     1       0.086   2.137  25.649  0.00  0.00    +0.135 A 
ATOM     26  C   UNL     1       0.376   3.500  26.111  0.00  0.00    +0.089 C 
ENDBRANCH  15  17
BRANCH  10   3
ATOM      3  O   UNL     1      -5.431   0.455  24.631  0.00  0.00    -0.485 OA
BRANCH   3  16
ATOM     16  C   UNL     1      -4.666   1.587  24.581  0.00  0.00    +0.121 A 
ATOM     18  C   UNL     1      -3.647   1.700  23.636  0.00  0.00    +0.047 A 
ATOM     19  C   UNL     1      -4.908   2.631  25.474  0.00  0.00    +0.047 A 
ATOM     20  C   UNL     1      -3.108   3.899  24.478  0.00  0.00    +0.088 A 
ATOM     21  C   UNL     1      -2.867   2.855  23.584  0.00  0.00    +0.030 A 
ATOM     22  C   UNL     1      -4.128   3.787  25.423  0.00  0.00    +0.030 A 
BRANCH  20   1
ATOM      1  S   UNL     1      -2.134   5.347  24.411  0.00  0.00    -0.006 S 
ATOM      6  O   UNL     1      -2.805   6.328  23.567  0.00  0.00    -0.170 OA
ATOM      7  O   UNL     1      -1.762   5.701  25.773  0.00  0.00    -0.170 OA
ATOM     25  C   UNL     1      -0.659   4.849  23.552  0.00  0.00    +0.200 C 
ENDBRANCH  20   1
ENDBRANCH   3  16
ENDBRANCH  10   3
TORSDOF 4
ENDMDL
MODEL 6
REMARK VINA RESULT:       1.1      2.255      4.401
REMARK  Name = 75367690
REMARK  6 active torsions:
REMARK  status: ('A' for Active; 'I' for Inactive)
REMARK    1  A    between atoms: S_1  and  C_20
REMARK    2  A    between atoms: S_1  and  C_25
REMARK    3  A    between atoms: O_3  and  C_10
REMARK    4  A    between atoms: O_3  and  C_16
REMARK    5  A    between atoms: C_15  and  C_17
REMARK    6  A    between atoms: C_24  and  C_26
REMARK                            x       y       z     vdW  Elec       q    Type
REMARK                         _______ _______ _______ _____ _____    ______ ____
ROOT
ATOM      2  O   UNL     1      -6.491   4.051  25.994  0.00  0.00    -0.375 OA
ATOM      4  O   UNL     1      -1.981   5.627  25.298  0.00  0.00    -0.268 OA
ATOM      8  N   UNL     1      -3.644   4.094  24.684  0.00  0.00    -0.290 N 
ATOM     10  C   UNL     1      -5.482   2.325  24.596  0.00  0.00    +0.216 C 
ATOM     11  C   UNL     1      -4.018   2.710  24.369  0.00  0.00    +0.155 C 
ATOM     12  C   UNL     1      -4.698   5.111  24.707  0.00  0.00    +0.136 C 
ATOM     13  C   UNL     1      -6.000   2.715  25.979  0.00  0.00    +0.206 C 
ATOM     14  C   UNL     1      -5.482   5.056  26.012  0.00  0.00    +0.179 C 
ATOM     15  C   UNL     1      -2.333   4.486  24.999  0.00  0.00    +0.268 C 
ENDROOT
BRANCH  15  17
ATOM      5  O   UNL     1       0.009   1.883  25.701  0.00  0.00    -0.359 OA
ATOM      9  N   UNL     1      -1.030   2.731  26.064  0.00  0.00    -0.073 NA
ATOM     17  C   UNL     1      -1.274   3.464  24.974  0.00  0.00    +0.168 A 
ATOM     23  C   UNL     1      -0.429   3.127  23.903  0.00  0.00    +0.080 A 
ATOM     24  C   UNL     1       0.358   2.128  24.412  0.00  0.00    +0.135 A 
ATOM     26  C   UNL     1       1.450   1.315  23.861  0.00  0.00    +0.089 C 
ENDBRANCH  15  17
BRANCH  10   3
ATOM      3  O   UNL     1      -5.562   0.906  24.452  0.00  0.00    -0.485 OA
BRANCH   3  16
ATOM     16  C   UNL     1      -4.388   0.214  24.556  0.00  0.00    +0.121 A 
ATOM     18  C   UNL     1      -4.154  -0.602  25.662  0.00  0.00    +0.047 A 
ATOM     19  C   UNL     1      -3.424   0.322  23.553  0.00  0.00    +0.047 A 
ATOM     20  C   UNL     1      -1.992  -1.200  24.767  0.00  0.00    +0.088 A 
ATOM     21  C   UNL     1      -2.957  -1.309  25.769  0.00  0.00    +0.030 A 
ATOM     22  C   UNL     1      -2.225  -0.384  23.659  0.00  0.00    +0.030 A 
BRANCH  20   1
ATOM      1  S   UNL     1      -0.494  -2.088  24.898  0.00  0.00    -0.006 S 
ATOM      6  O   UNL     1       0.091  -1.835  26.208  0.00  0.00    -0.170 OA
ATOM      7  O   UNL     1      -0.745  -3.457  24.470  0.00  0.00    -0.170 OA
ATOM     25  C   UNL     1       0.577  -1.327  23.698  0.00  0.00    +0.200 C 
ENDBRANCH  20   1
ENDBRANCH   3  16
ENDBRANCH  10   3
TORSDOF 4
ENDMDL
MODEL 7
REMARK VINA RESULT:       1.2      2.386      5.447
REMARK  Name = 75367690
REMARK  6 active torsions:
REMARK  status: ('A' for Active; 'I' for Inactive)
REMARK    1  A    between atoms: S_1  and  C_20
REMARK    2  A    between atoms: S_1  and  C_25
REMARK    3  A    between atoms: O_3  and  C_10
REMARK    4  A    between atoms: O_3  and  C_16
REMARK    5  A    between atoms: C_15  and  C_17
REMARK    6  A    between atoms: C_24  and  C_26
REMARK                            x       y       z     vdW  Elec       q    Type
REMARK                         _______ _______ _______ _____ _____    ______ ____
ROOT
ATOM      2  O   UNL     1      -0.288  -3.136  25.315  0.00  0.00    -0.375 OA
ATOM      4  O   UNL     1      -4.866  -2.036  24.248  0.00  0.00    -0.268 OA
ATOM      8  N   UNL     1      -2.602  -1.497  23.978  0.00  0.00    -0.290 N 
ATOM     10  C   UNL     1      -0.129  -0.935  24.274  0.00  0.00    +0.216 C 
ATOM     11  C   UNL     1      -1.553  -0.471  23.952  0.00  0.00    +0.155 C 
ATOM     12  C   UNL     1      -2.209  -2.898  23.814  0.00  0.00    +0.136 C 
ATOM     13  C   UNL     1      -0.040  -1.756  25.559  0.00  0.00    +0.206 C 
ATOM     14  C   UNL     1      -1.659  -3.468  25.116  0.00  0.00    +0.179 C 
ATOM     15  C   UNL     1      -3.960  -1.207  24.188  0.00  0.00    +0.268 C 
ENDROOT
BRANCH  15  17
ATOM      5  O   UNL     1      -4.486   2.315  23.913  0.00  0.00    -0.359 OA
ATOM      9  N   UNL     1      -3.943   1.116  23.467  0.00  0.00    -0.073 NA
ATOM     17  C   UNL     1      -4.355   0.202  24.351  0.00  0.00    +0.168 A 
ATOM     23  C   UNL     1      -5.152   0.760  25.365  0.00  0.00    +0.080 A 
ATOM     24  C   UNL     1      -5.203   2.090  25.043  0.00  0.00    +0.135 A 
ATOM     26  C   UNL     1      -5.850   3.259  25.653  0.00  0.00    +0.089 C 
ENDBRANCH  15  17
BRANCH  10   3
ATOM      3  O   UNL     1       0.665   0.243  24.417  0.00  0.00    -0.485 OA
BRANCH   3  16
ATOM     16  C   UNL     1      -0.010   1.416  24.613  0.00  0.00    +0.121 A 
ATOM     18  C   UNL     1      -0.395   2.191  23.520  0.00  0.00    +0.047 A 
ATOM     19  C   UNL     1      -0.315   1.836  25.908  0.00  0.00    +0.047 A 
ATOM     20  C   UNL     1      -1.388   3.807  25.014  0.00  0.00    +0.088 A 
ATOM     21  C   UNL     1      -1.083   3.386  23.719  0.00  0.00    +0.030 A 
ATOM     22  C   UNL     1      -1.004   3.033  26.108  0.00  0.00    +0.030 A 
BRANCH  20   1
ATOM      1  S   UNL     1      -2.254   5.303  25.265  0.00  0.00    -0.006 S 
ATOM      6  O   UNL     1      -3.035   5.197  26.491  0.00  0.00    -0.170 OA
ATOM      7  O   UNL     1      -1.310   6.400  25.102  0.00  0.00    -0.170 OA
ATOM     25  C   UNL     1      -3.413   5.374  23.917  0.00  0.00    +0.200 C 
ENDBRANCH  20   1
ENDBRANCH   3  16
ENDBRANCH  10   3
TORSDOF 4
ENDMDL
MODEL 8
REMARK VINA RESULT:       1.3      2.221      4.828
REMARK  Name = 75367690
REMARK  6 active torsions:
REMARK  status: ('A' for Active; 'I' for Inactive)
REMARK    1  A    between atoms: S_1  and  C_20
REMARK    2  A    between atoms: S_1  and  C_25
REMARK    3  A    between atoms: O_3  and  C_10
REMARK    4  A    between atoms: O_3  and  C_16
REMARK    5  A    between atoms: C_15  and  C_17
REMARK    6  A    between atoms: C_24  and  C_26
REMARK                            x       y       z     vdW  Elec       q    Type
REMARK                         _______ _______ _______ _____ _____    ______ ____
ROOT
ATOM      2  O   UNL     1      -4.180   5.096  26.498  0.00  0.00    -0.375 OA
ATOM      4  O   UNL     1       0.487   4.137  25.721  0.00  0.00    -0.268 OA
ATOM      8  N   UNL     1      -1.705   4.026  24.901  0.00  0.00    -0.290 N 
ATOM     10  C   UNL     1      -4.203   3.655  24.531  0.00  0.00    +0.216 C 
ATOM     11  C   UNL     1      -2.757   3.244  24.240  0.00  0.00    +0.155 C 
ATOM     12  C   UNL     1      -2.028   5.377  25.363  0.00  0.00    +0.136 C 
ATOM     13  C   UNL     1      -4.501   3.794  26.022  0.00  0.00    +0.206 C 
ATOM     14  C   UNL     1      -2.788   5.336  26.683  0.00  0.00    +0.179 C 
ATOM     15  C   UNL     1      -0.414   3.530  25.145  0.00  0.00    +0.268 C 
ENDROOT
BRANCH  15  17
ATOM      5  O   UNL     1      -0.070   0.010  24.644  0.00  0.00    -0.359 OA
ATOM      9  N   UNL     1      -0.558   1.110  25.339  0.00  0.00    -0.073 NA
ATOM     17  C   UNL     1      -0.088   2.172  24.678  0.00  0.00    +0.168 A 
ATOM     23  C   UNL     1       0.695   1.808  23.569  0.00  0.00    +0.080 A 
ATOM     24  C   UNL     1       0.674   0.439  23.593  0.00  0.00    +0.135 A 
ATOM     26  C   UNL     1       1.271  -0.601  22.744  0.00  0.00    +0.089 C 
ENDBRANCH  15  17
BRANCH  10   3
ATOM      3  O   UNL     1      -5.039   2.635  23.982  0.00  0.00    -0.485 OA
BRANCH   3  16
ATOM     16  C   UNL     1      -4.616   1.345  24.143  0.00  0.00    +0.121 A 
ATOM     18  C   UNL     1      -3.817   0.745  23.170  0.00  0.00    +0.047 A 
ATOM     19  C   UNL     1      -4.981   0.629  25.284  0.00  0.00    +0.047 A 
ATOM     20  C   UNL     1      -3.751  -1.287  24.475  0.00  0.00    +0.088 A 
ATOM     21  C   UNL     1      -3.385  -0.570  23.335  0.00  0.00    +0.030 A 
ATOM     22  C   UNL     1      -4.549  -0.687  25.449  0.00  0.00    +0.030 A 
BRANCH  20   1
ATOM      1  S   UNL     1      -3.207  -2.933  24.684  0.00  0.00    -0.006 S 
ATOM      6  O   UNL     1      -3.221  -3.258  26.104  0.00  0.00    -0.170 OA
ATOM      7  O   UNL     1      -3.939  -3.770  23.743  0.00  0.00    -0.170 OA
ATOM     25  C   UNL     1      -1.502  -2.903  24.177  0.00  0.00    +0.200 C 
ENDBRANCH  20   1
ENDBRANCH   3  16
ENDBRANCH  10   3
TORSDOF 4
ENDMDL
MODEL 9
REMARK VINA RESULT:       1.4      2.657      6.752
REMARK  Name = 75367690
REMARK  6 active torsions:
REMARK  status: ('A' for Active; 'I' for Inactive)
REMARK    1  A    between atoms: S_1  and  C_20
REMARK    2  A    between atoms: S_1  and  C_25
REMARK    3  A    between atoms: O_3  and  C_10
REMARK    4  A    between atoms: O_3  and  C_16
REMARK    5  A    between atoms: C_15  and  C_17
REMARK    6  A    between atoms: C_24  and  C_26
REMARK                            x       y       z     vdW  Elec       q    Type
REMARK                         _______ _______ _______ _____ _____    ______ ____
ROOT
ATOM      2  O   UNL     1      -2.778  -3.630  23.770  0.00  0.00    -0.375 OA
ATOM      4  O   UNL     1       0.913  -0.554  24.240  0.00  0.00    -0.268 OA
ATOM      8  N   UNL     1      -1.288  -1.090  24.842  0.00  0.00    -0.290 N 
ATOM     10  C   UNL     1      -3.762  -1.713  24.914  0.00  0.00    +0.216 C 
ATOM     11  C   UNL     1      -2.671  -0.648  25.056  0.00  0.00    +0.155 C 
ATOM     12  C   UNL     1      -0.979  -2.512  25.000  0.00  0.00    +0.136 C 
ATOM     13  C   UNL     1      -3.654  -2.517  23.620  0.00  0.00    +0.206 C 
ATOM     14  C   UNL     1      -1.392  -3.302  23.764  0.00  0.00    +0.179 C 
ATOM     15  C   UNL     1      -0.251  -0.222  24.459  0.00  0.00    +0.268 C 
ENDROOT
BRANCH  15  17
ATOM      5  O   UNL     1      -1.237   3.024  23.342  0.00  0.00    -0.359 OA
ATOM      9  N   UNL     1      -1.068   1.657  23.151  0.00  0.00    -0.073 NA
ATOM     17  C   UNL     1      -0.561   1.208  24.302  0.00  0.00    +0.168 A 
ATOM     23  C   UNL     1      -0.389   2.234  25.247  0.00  0.00    +0.080 A 
ATOM     24  C   UNL     1      -0.829   3.355  24.594  0.00  0.00    +0.135 A 
ATOM     26  C   UNL     1      -0.938   4.771  24.966  0.00  0.00    +0.089 C 
ENDBRANCH  15  17
BRANCH  10   3
ATOM      3  O   UNL     1      -5.013  -1.025  24.932  0.00  0.00    -0.485 OA
BRANCH   3  16
ATOM     16  C   UNL     1      -4.960   0.340  24.996  0.00  0.00    +0.121 A 
ATOM     18  C   UNL     1      -5.587   1.015  26.042  0.00  0.00    +0.047 A 
ATOM     19  C   UNL     1      -4.276   1.057  24.014  0.00  0.00    +0.047 A 
ATOM     20  C   UNL     1      -4.849   3.124  25.126  0.00  0.00    +0.088 A 
ATOM     21  C   UNL     1      -5.532   2.406  26.108  0.00  0.00    +0.030 A 
ATOM     22  C   UNL     1      -4.221   2.450  24.078  0.00  0.00    +0.030 A 
BRANCH  20   1
ATOM      1  S   UNL     1      -4.777   4.867  25.210  0.00  0.00    -0.006 S 
ATOM      6  O   UNL     1      -4.156   5.373  23.992  0.00  0.00    -0.170 OA
ATOM      7  O   UNL     1      -6.092   5.352  25.605  0.00  0.00    -0.170 OA
ATOM     25  C   UNL     1      -3.648   5.199  26.543  0.00  0.00    +0.200 C 
ENDBRANCH  20   1
ENDBRANCH   3  16
ENDBRANCH  10   3
TORSDOF 4
ENDMDL
MODEL 10
REMARK VINA RESULT:       1.5      2.654      5.784
REMARK  Name = 75367690
REMARK  6 active torsions:
REMARK  status: ('A' for Active; 'I' for Inactive)
REMARK    1  A    between atoms: S_1  and  C_20
REMARK    2  A    between atoms: S_1  and  C_25
REMARK    3  A    between atoms: O_3  and  C_10
REMARK    4  A    between atoms: O_3  and  C_16
REMARK    5  A    between atoms: C_15  and  C_17
REMARK    6  A    between atoms: C_24  and  C_26
REMARK                            x       y       z     vdW  Elec       q    Type
REMARK                         _______ _______ _______ _____ _____    ______ ____
ROOT
ATOM      2  O   UNL     1       2.616   1.192  23.285  0.00  0.00    -0.375 OA
ATOM      4  O   UNL     1      -0.558  -2.435  23.560  0.00  0.00    -0.268 OA
ATOM      8  N   UNL     1      -0.224  -0.135  23.263  0.00  0.00    -0.290 N 
ATOM     10  C   UNL     1       0.457   2.319  23.433  0.00  0.00    +0.216 C 
ATOM     11  C   UNL     1      -0.619   1.241  23.587  0.00  0.00    +0.155 C 
ATOM     12  C   UNL     1       0.930  -0.338  22.384  0.00  0.00    +0.136 C 
ATOM     13  C   UNL     1       1.769   1.964  24.130  0.00  0.00    +0.206 C 
ATOM     14  C   UNL     1       2.236  -0.174  23.150  0.00  0.00    +0.179 C 
ATOM     15  C   UNL     1      -0.874  -1.267  23.780  0.00  0.00    +0.268 C 
ENDROOT
BRANCH  15  17
ATOM      5  O   UNL     1      -3.198  -1.064  26.485  0.00  0.00    -0.359 OA
ATOM      9  N   UNL     1      -1.951  -1.377  25.958  0.00  0.00    -0.073 NA
ATOM     17  C   UNL     1      -2.035  -1.062  24.662  0.00  0.00    +0.168 A 
ATOM     23  C   UNL     1      -3.298  -0.551  24.317  0.00  0.00    +0.080 A 
ATOM     24  C   UNL     1      -3.991  -0.574  25.498  0.00  0.00    +0.135 A 
ATOM     26  C   UNL     1      -5.355  -0.190  25.883  0.00  0.00    +0.089 C 
ENDBRANCH  15  17
BRANCH  10   3
ATOM      3  O   UNL     1      -0.070   3.513  24.014  0.00  0.00    -0.485 OA
BRANCH   3  16
ATOM     16  C   UNL     1      -1.375   3.470  24.421  0.00  0.00    +0.121 A 
ATOM     18  C   UNL     1      -1.714   3.848  25.720  0.00  0.00    +0.047 A 
ATOM     19  C   UNL     1      -2.368   3.050  23.535  0.00  0.00    +0.047 A 
ATOM     20  C   UNL     1      -4.037   3.384  25.250  0.00  0.00    +0.088 A 
ATOM     21  C   UNL     1      -3.044   3.805  26.135  0.00  0.00    +0.030 A 
ATOM     22  C   UNL     1      -3.699   3.006  23.950  0.00  0.00    +0.030 A 
BRANCH  20   1
ATOM      1  S   UNL     1      -5.705   3.333  25.768  0.00  0.00    -0.006 S 
ATOM      6  O   UNL     1      -5.773   2.693  27.076  0.00  0.00    -0.170 OA
ATOM      7  O   UNL     1      -6.272   4.661  25.583  0.00  0.00    -0.170 OA
ATOM     25  C   UNL     1      -6.494   2.235  24.613  0.00  0.00    +0.200 C 
ENDBRANCH  20   1
ENDBRANCH   3  16
ENDBRANCH  10   3
TORSDOF 4
ENDMDL
