MODEL 1
REMARK VINA RESULT:      17.1      0.000      0.000
REMARK  Name = 11882867
REMARK  9 active torsions:
REMARK  status: ('A' for Active; 'I' for Inactive)
REMARK    1  A    between atoms: O_3  and  C_15
REMARK    2  A    between atoms: O_4  and  C_20
REMARK    3  A    between atoms: N_8  and  C_26
REMARK    4  A    between atoms: C_10  and  C_18
REMARK    5  A    between atoms: C_12  and  C_20
REMARK    6  A    between atoms: C_12  and  C_21
REMARK    7  A    between atoms: C_13  and  C_23
REMARK    8  A    between atoms: C_23  and  C_24
REMARK    9  A    between atoms: C_27  and  C_30
REMARK                            x       y       z     vdW  Elec       q    Type
REMARK                         _______ _______ _______ _____ _____    ______ ____
ROOT
ATOM      1  S   UNL     1       0.251   2.223  25.942  0.00  0.00    -0.057 S 
ATOM      6  O   UNL     1       1.846   0.319  22.005  0.00  0.00    -0.270 OA
ATOM      7  N   UNL     1      -0.375   1.544  23.526  0.00  0.00    -0.229 NA
ATOM      9  N   UNL     1       1.888   1.103  24.227  0.00  0.00    -0.261 N 
ATOM     10  C   UNL     1      -4.020   2.506  24.341  0.00  0.00    -0.019 C 
ATOM     11  C   UNL     1      -3.574   3.634  25.372  0.00  0.00    +0.011 C 
ATOM     12  C   UNL     1      -4.720   4.359  26.178  0.00  0.00    +0.021 C 
ATOM     13  C   UNL     1      -2.795   2.232  23.350  0.00  0.00    +0.054 C 
ATOM     14  C   UNL     1      -5.221   3.018  23.503  0.00  0.00    +0.010 C 
ATOM     15  C   UNL     1      -5.859   4.762  25.199  0.00  0.00    +0.123 C 
ATOM     16  C   UNL     1      -2.388   3.157  26.260  0.00  0.00    +0.049 C 
ATOM     17  C   UNL     1      -6.350   3.603  24.339  0.00  0.00    +0.032 C 
ATOM     18  C   UNL     1      -4.425   1.182  25.034  0.00  0.00    +0.012 C 
ATOM     19  C   UNL     1      -1.504   2.087  24.112  0.00  0.00    +0.058 A 
ATOM     21  C   UNL     1      -4.154   5.671  26.794  0.00  0.00    +0.016 C 
ATOM     22  C   UNL     1      -1.337   2.526  25.410  0.00  0.00    +0.015 A 
ATOM     25  C   UNL     1       0.607   1.556  24.400  0.00  0.00    +0.165 A 
ATOM     27  C   UNL     1       2.425   0.523  23.066  0.00  0.00    +0.250 C 
ATOM     42  H   UNL     1       2.484   1.263  25.033  0.00  0.00    +0.157 HD
ENDROOT
BRANCH  27  30
ATOM      2  F   UNL     1       7.819  -0.885  23.375  0.00  0.00    -0.205 F 
ATOM     30  C   UNL     1       3.861   0.147  23.147  0.00  0.00    +0.037 A 
ATOM     33  C   UNL     1       4.812   1.080  22.793  0.00  0.00    +0.016 A 
ATOM     34  C   UNL     1       4.194  -1.120  23.576  0.00  0.00    +0.016 A 
ATOM     36  C   UNL     1       6.160   0.729  22.871  0.00  0.00    +0.039 A 
ATOM     37  C   UNL     1       5.542  -1.472  23.654  0.00  0.00    +0.039 A 
ATOM     38  C   UNL     1       6.525  -0.547  23.301  0.00  0.00    +0.123 A 
ENDBRANCH  27  30
BRANCH  15   3
ATOM      3  O   UNL     1      -6.968   5.306  25.915  0.00  0.00    -0.391 OA
ATOM     39  H   UNL     1      -6.665   5.541  26.806  0.00  0.00    +0.210 HD
ENDBRANCH  15   3
BRANCH  12  20
ATOM     20  C   UNL     1      -5.278   3.548  27.368  0.00  0.00    +0.165 C 
BRANCH  20   4
ATOM      4  O   UNL     1      -6.278   2.687  26.871  0.00  0.00    -0.394 OA
ATOM     40  H   UNL     1      -7.127   2.951  27.265  0.00  0.00    +0.209 HD
ENDBRANCH  20   4
ENDBRANCH  12  20
BRANCH  13  23
ATOM     23  C   UNL     1      -3.009   1.063  22.378  0.00  0.00    +0.106 C 
BRANCH  23  24
ATOM      5  O   UNL     1      -3.977  -1.022  23.096  0.00  0.00    -0.275 OA
ATOM      8  N   UNL     1      -1.764  -0.492  23.683  0.00  0.00    -0.285 N 
ATOM     24  C   UNL     1      -3.002  -0.276  23.085  0.00  0.00    +0.218 C 
ATOM     41  H   UNL     1      -1.058   0.234  23.588  0.00  0.00    +0.155 HD
BRANCH   8  26
ATOM     26  C   UNL     1      -1.355  -1.618  24.436  0.00  0.00    +0.033 A 
ATOM     28  C   UNL     1      -0.033  -1.721  24.836  0.00  0.00    +0.023 A 
ATOM     29  C   UNL     1      -2.285  -2.593  24.758  0.00  0.00    +0.023 A 
ATOM     31  C   UNL     1       0.370  -2.831  25.578  0.00  0.00    +0.002 A 
ATOM     32  C   UNL     1      -1.881  -3.703  25.500  0.00  0.00    +0.002 A 
ATOM     35  C   UNL     1      -0.553  -3.822  25.910  0.00  0.00    +0.000 A 
ENDBRANCH   8  26
ENDBRANCH  23  24
ENDBRANCH  13  23
TORSDOF 7
ENDMDL
MODEL 2
REMARK VINA RESULT:      19.7      2.803      5.018
REMARK  Name = 11882867
REMARK  9 active torsions:
REMARK  status: ('A' for Active; 'I' for Inactive)
REMARK    1  A    between atoms: O_3  and  C_15
REMARK    2  A    between atoms: O_4  and  C_20
REMARK    3  A    between atoms: N_8  and  C_26
REMARK    4  A    between atoms: C_10  and  C_18
REMARK    5  A    between atoms: C_12  and  C_20
REMARK    6  A    between atoms: C_12  and  C_21
REMARK    7  A    between atoms: C_13  and  C_23
REMARK    8  A    between atoms: C_23  and  C_24
REMARK    9  A    between atoms: C_27  and  C_30
REMARK                            x       y       z     vdW  Elec       q    Type
REMARK                         _______ _______ _______ _____ _____    ______ ____
ROOT
ATOM      1  S   UNL     1       1.546  -1.631  22.886  0.00  0.00    -0.057 S 
ATOM      6  O   UNL     1       4.606   1.648  24.134  0.00  0.00    -0.270 OA
ATOM      7  N   UNL     1       1.809   0.701  23.974  0.00  0.00    -0.229 NA
ATOM      9  N   UNL     1       3.828  -0.389  23.238  0.00  0.00    -0.261 N 
ATOM     10  C   UNL     1      -2.039   0.952  24.052  0.00  0.00    -0.019 C 
ATOM     11  C   UNL     1      -2.216  -0.622  24.217  0.00  0.00    +0.011 C 
ATOM     12  C   UNL     1      -3.691  -1.182  24.190  0.00  0.00    +0.021 C 
ATOM     13  C   UNL     1      -0.566   1.335  24.541  0.00  0.00    +0.054 C 
ATOM     14  C   UNL     1      -3.061   1.684  24.960  0.00  0.00    +0.010 C 
ATOM     15  C   UNL     1      -4.588  -0.309  25.113  0.00  0.00    +0.123 C 
ATOM     16  C   UNL     1      -1.232  -1.405  23.300  0.00  0.00    +0.049 C 
ATOM     17  C   UNL     1      -4.490   1.182  24.810  0.00  0.00    +0.032 C 
ATOM     18  C   UNL     1      -2.237   1.431  22.593  0.00  0.00    +0.012 C 
ATOM     19  C   UNL     1       0.460   0.397  23.959  0.00  0.00    +0.058 A 
ATOM     21  C   UNL     1      -3.696  -2.625  24.771  0.00  0.00    +0.016 C 
ATOM     22  C   UNL     1       0.142  -0.835  23.425  0.00  0.00    +0.015 A 
ATOM     25  C   UNL     1       2.475  -0.292  23.427  0.00  0.00    +0.165 A 
ATOM     27  C   UNL     1       4.797   0.565  23.594  0.00  0.00    +0.250 C 
ATOM     42  H   UNL     1       4.116  -1.274  22.835  0.00  0.00    +0.157 HD
ENDROOT
BRANCH  27  30
ATOM      2  F   UNL     1      10.078  -0.867  22.486  0.00  0.00    -0.205 F 
ATOM     30  C   UNL     1       6.203   0.184  23.298  0.00  0.00    +0.037 A 
ATOM     33  C   UNL     1       7.223   0.942  23.833  0.00  0.00    +0.016 A 
ATOM     34  C   UNL     1       6.441  -0.915  22.499  0.00  0.00    +0.016 A 
ATOM     36  C   UNL     1       8.543   0.583  23.556  0.00  0.00    +0.039 A 
ATOM     37  C   UNL     1       7.761  -1.273  22.223  0.00  0.00    +0.039 A 
ATOM     38  C   UNL     1       8.812  -0.523  22.752  0.00  0.00    +0.123 A 
ENDBRANCH  27  30
BRANCH  15   3
ATOM      3  O   UNL     1      -5.954  -0.710  25.011  0.00  0.00    -0.391 OA
ATOM     39  H   UNL     1      -6.043  -1.583  25.425  0.00  0.00    +0.210 HD
ENDBRANCH  15   3
BRANCH  12  20
ATOM     20  C   UNL     1      -4.305  -1.301  22.777  0.00  0.00    +0.165 C 
BRANCH  20   4
ATOM      4  O   UNL     1      -4.722  -2.636  22.600  0.00  0.00    -0.394 OA
ATOM     40  H   UNL     1      -3.988  -3.218  22.859  0.00  0.00    +0.209 HD
ENDBRANCH  20   4
ENDBRANCH  12  20
BRANCH  13  23
ATOM     23  C   UNL     1      -0.180   2.803  24.312  0.00  0.00    +0.106 C 
BRANCH  23  24
ATOM      5  O   UNL     1       0.305   4.694  25.723  0.00  0.00    -0.275 OA
ATOM      8  N   UNL     1       0.694   2.513  26.508  0.00  0.00    -0.285 N 
ATOM     24  C   UNL     1       0.295   3.474  25.584  0.00  0.00    +0.218 C 
ATOM     41  H   UNL     1       0.633   1.536  26.234  0.00  0.00    +0.155 HD
BRANCH   8  26
ATOM     26  C   UNL     1       1.201   2.729  27.813  0.00  0.00    +0.033 A 
ATOM     28  C   UNL     1       2.507   3.163  27.969  0.00  0.00    +0.023 A 
ATOM     29  C   UNL     1       0.379   2.501  28.905  0.00  0.00    +0.023 A 
ATOM     31  C   UNL     1       3.006   3.375  29.254  0.00  0.00    +0.002 A 
ATOM     32  C   UNL     1       0.879   2.714  30.189  0.00  0.00    +0.002 A 
ATOM     35  C   UNL     1       2.192   3.150  30.364  0.00  0.00    +0.000 A 
ENDBRANCH   8  26
ENDBRANCH  23  24
ENDBRANCH  13  23
TORSDOF 7
ENDMDL
MODEL 3
REMARK VINA RESULT:      20.3      2.681      4.167
REMARK  Name = 11882867
REMARK  9 active torsions:
REMARK  status: ('A' for Active; 'I' for Inactive)
REMARK    1  A    between atoms: O_3  and  C_15
REMARK    2  A    between atoms: O_4  and  C_20
REMARK    3  A    between atoms: N_8  and  C_26
REMARK    4  A    between atoms: C_10  and  C_18
REMARK    5  A    between atoms: C_12  and  C_20
REMARK    6  A    between atoms: C_12  and  C_21
REMARK    7  A    between atoms: C_13  and  C_23
REMARK    8  A    between atoms: C_23  and  C_24
REMARK    9  A    between atoms: C_27  and  C_30
REMARK                            x       y       z     vdW  Elec       q    Type
REMARK                         _______ _______ _______ _____ _____    ______ ____
ROOT
ATOM      1  S   UNL     1      -0.780  -0.767  23.331  0.00  0.00    -0.057 S 
ATOM      6  O   UNL     1       3.119   1.597  24.268  0.00  0.00    -0.270 OA
ATOM      7  N   UNL     1       0.169   1.403  24.370  0.00  0.00    -0.229 NA
ATOM      9  N   UNL     1       1.766  -0.159  23.465  0.00  0.00    -0.261 N 
ATOM     10  C   UNL     1      -3.461   2.633  24.792  0.00  0.00    -0.019 C 
ATOM     11  C   UNL     1      -4.022   1.156  24.988  0.00  0.00    +0.011 C 
ATOM     12  C   UNL     1      -5.587   0.994  25.099  0.00  0.00    +0.021 C 
ATOM     13  C   UNL     1      -1.901   2.618  25.143  0.00  0.00    +0.054 C 
ATOM     14  C   UNL     1      -4.175   3.591  25.782  0.00  0.00    +0.010 C 
ATOM     15  C   UNL     1      -6.143   2.055  26.091  0.00  0.00    +0.123 C 
ATOM     16  C   UNL     1      -3.358   0.160  23.993  0.00  0.00    +0.049 C 
ATOM     17  C   UNL     1      -5.692   3.475  25.766  0.00  0.00    +0.032 C 
ATOM     18  C   UNL     1      -3.659   3.168  23.353  0.00  0.00    +0.012 C 
ATOM     19  C   UNL     1      -1.208   1.457  24.479  0.00  0.00    +0.058 A 
ATOM     21  C   UNL     1      -5.911  -0.407  25.691  0.00  0.00    +0.016 C 
ATOM     22  C   UNL     1      -1.879   0.356  23.988  0.00  0.00    +0.015 A 
ATOM     25  C   UNL     1       0.506   0.280  23.774  0.00  0.00    +0.165 A 
ATOM     27  C   UNL     1       2.975   0.509  23.723  0.00  0.00    +0.250 C 
ATOM     42  H   UNL     1       1.779  -1.083  23.046  0.00  0.00    +0.157 HD
ENDROOT
BRANCH  27  30
ATOM      2  F   UNL     1       7.592  -2.212  22.155  0.00  0.00    -0.205 F 
ATOM     30  C   UNL     1       4.204  -0.216  23.305  0.00  0.00    +0.037 A 
ATOM     33  C   UNL     1       5.068   0.395  22.420  0.00  0.00    +0.016 A 
ATOM     34  C   UNL     1       4.441  -1.475  23.816  0.00  0.00    +0.016 A 
ATOM     36  C   UNL     1       6.222  -0.285  22.029  0.00  0.00    +0.039 A 
ATOM     37  C   UNL     1       5.595  -2.155  23.425  0.00  0.00    +0.039 A 
ATOM     38  C   UNL     1       6.485  -1.559  22.531  0.00  0.00    +0.123 A 
ENDBRANCH  27  30
BRANCH  15   3
ATOM      3  O   UNL     1      -7.569   2.020  26.116  0.00  0.00    -0.391 OA
ATOM     39  H   UNL     1      -7.882   1.821  25.220  0.00  0.00    +0.210 HD
ENDBRANCH  15   3
BRANCH  12  20
ATOM     20  C   UNL     1      -6.335   1.057  23.748  0.00  0.00    +0.165 C 
BRANCH  20   4
ATOM      4  O   UNL     1      -7.619   1.588  23.991  0.00  0.00    -0.394 OA
ATOM     40  H   UNL     1      -8.241   1.168  23.374  0.00  0.00    +0.209 HD
ENDBRANCH  20   4
ENDBRANCH  12  20
BRANCH  13  23
ATOM     23  C   UNL     1      -1.172   3.941  24.866  0.00  0.00    +0.106 C 
BRANCH  23  24
ATOM      5  O   UNL     1       0.741   5.128  25.720  0.00  0.00    -0.275 OA
ATOM      8  N   UNL     1       0.047   3.130  26.744  0.00  0.00    -0.285 N 
ATOM     24  C   UNL     1      -0.010   4.161  25.811  0.00  0.00    +0.218 C 
ATOM     41  H   UNL     1      -0.649   2.392  26.679  0.00  0.00    +0.155 HD
BRANCH   8  26
ATOM     26  C   UNL     1       0.984   2.967  27.793  0.00  0.00    +0.033 A 
ATOM     28  C   UNL     1       2.318   3.253  27.560  0.00  0.00    +0.023 A 
ATOM     29  C   UNL     1       0.545   2.524  29.030  0.00  0.00    +0.023 A 
ATOM     31  C   UNL     1       3.241   3.092  28.593  0.00  0.00    +0.002 A 
ATOM     32  C   UNL     1       1.469   2.363  30.063  0.00  0.00    +0.002 A 
ATOM     35  C   UNL     1       2.817   2.646  29.845  0.00  0.00    +0.000 A 
ENDBRANCH   8  26
ENDBRANCH  23  24
ENDBRANCH  13  23
TORSDOF 7
ENDMDL
