MODEL 1
REMARK VINA RESULT:       7.6      0.000      0.000
REMARK  Name = 11883065
REMARK  9 active torsions:
REMARK  status: ('A' for Active; 'I' for Inactive)
REMARK    1  A    between atoms: O_3  and  C_15
REMARK    2  A    between atoms: O_4  and  C_20
REMARK    3  A    between atoms: O_5  and  C_24
REMARK    4  A    between atoms: C_10  and  C_18
REMARK    5  A    between atoms: C_12  and  C_20
REMARK    6  A    between atoms: C_12  and  C_21
REMARK    7  A    between atoms: C_13  and  C_23
REMARK    8  A    between atoms: C_23  and  C_24
REMARK    9  A    between atoms: C_26  and  C_27
REMARK                            x       y       z     vdW  Elec       q    Type
REMARK                         _______ _______ _______ _____ _____    ______ ____
ROOT
ATOM      1  S   UNL     1       0.749   2.319  24.478  0.00  0.00    -0.057 S 
ATOM      7  O   UNL     1       2.964  -1.601  23.295  0.00  0.00    -0.270 OA
ATOM      8  N   UNL     1       0.439  -0.183  23.898  0.00  0.00    -0.229 NA
ATOM      9  N   UNL     1       2.694   0.667  23.879  0.00  0.00    -0.261 N 
ATOM     10  C   UNL     1      -3.293   0.208  24.784  0.00  0.00    -0.019 C 
ATOM     11  C   UNL     1      -3.324   1.732  24.325  0.00  0.00    +0.011 C 
ATOM     12  C   UNL     1      -4.663   2.528  24.574  0.00  0.00    +0.021 C 
ATOM     13  C   UNL     1      -2.058  -0.501  24.060  0.00  0.00    +0.055 C 
ATOM     14  C   UNL     1      -4.598  -0.495  24.326  0.00  0.00    +0.010 C 
ATOM     15  C   UNL     1      -5.867   1.665  24.104  0.00  0.00    +0.123 C 
ATOM     16  C   UNL     1      -2.047   2.491  24.788  0.00  0.00    +0.049 C 
ATOM     17  C   UNL     1      -5.867   0.259  24.696  0.00  0.00    +0.032 C 
ATOM     18  C   UNL     1      -3.152   0.045  26.318  0.00  0.00    +0.012 C 
ATOM     19  C   UNL     1      -0.813   0.341  24.162  0.00  0.00    +0.058 A 
ATOM     21  C   UNL     1      -4.653   3.820  23.709  0.00  0.00    +0.016 C 
ATOM     22  C   UNL     1      -0.832   1.686  24.473  0.00  0.00    +0.015 A 
ATOM     25  C   UNL     1       1.339   0.767  24.040  0.00  0.00    +0.165 A 
ATOM     26  C   UNL     1       3.415  -0.485  23.524  0.00  0.00    +0.250 C 
ATOM     35  H   UNL     1       3.180   1.550  23.998  0.00  0.00    +0.157 HD
ENDROOT
BRANCH  26  27
ATOM      2  F   UNL     1       8.934   0.208  23.023  0.00  0.00    -0.205 F 
ATOM     27  C   UNL     1       4.885  -0.299  23.389  0.00  0.00    +0.037 A 
ATOM     28  C   UNL     1       5.468   0.819  23.945  0.00  0.00    +0.016 A 
ATOM     29  C   UNL     1       5.617  -1.253  22.713  0.00  0.00    +0.016 A 
ATOM     30  C   UNL     1       6.846   0.993  23.820  0.00  0.00    +0.039 A 
ATOM     31  C   UNL     1       6.995  -1.080  22.588  0.00  0.00    +0.039 A 
ATOM     32  C   UNL     1       7.610   0.043  23.142  0.00  0.00    +0.123 A 
ENDBRANCH  26  27
BRANCH  15   3
ATOM      3  O   UNL     1      -7.101   2.301  24.434  0.00  0.00    -0.391 OA
ATOM     33  H   UNL     1      -7.749   2.077  23.746  0.00  0.00    +0.210 HD
ENDBRANCH  15   3
BRANCH  12  20
ATOM     20  C   UNL     1      -4.862   3.005  26.031  0.00  0.00    +0.165 C 
BRANCH  20   4
ATOM      4  O   UNL     1      -5.791   4.066  26.014  0.00  0.00    -0.394 OA
ATOM     34  H   UNL     1      -6.619   3.736  25.625  0.00  0.00    +0.209 HD
ENDBRANCH  20   4
ENDBRANCH  12  20
BRANCH  13  23
ATOM     23  C   UNL     1      -1.799  -1.945  24.508  0.00  0.00    +0.130 C 
BRANCH  23  24
ATOM      6  O   UNL     1      -3.677  -3.051  23.415  0.00  0.00    -0.251 OA
ATOM     24  C   UNL     1      -3.046  -2.778  24.425  0.00  0.00    +0.305 C 
BRANCH  24   5
ATOM      5  O   UNL     1      -3.391  -3.202  25.668  0.00  0.00    -0.481 OA
ATOM     36  H   UNL     1      -3.987  -3.980  25.636  0.00  0.00    +0.295 HD
ENDBRANCH  24   5
ENDBRANCH  23  24
ENDBRANCH  13  23
TORSDOF 7
ENDMDL
MODEL 2
REMARK VINA RESULT:      10.1      2.191      3.923
REMARK  Name = 11883065
REMARK  9 active torsions:
REMARK  status: ('A' for Active; 'I' for Inactive)
REMARK    1  A    between atoms: O_3  and  C_15
REMARK    2  A    between atoms: O_4  and  C_20
REMARK    3  A    between atoms: O_5  and  C_24
REMARK    4  A    between atoms: C_10  and  C_18
REMARK    5  A    between atoms: C_12  and  C_20
REMARK    6  A    between atoms: C_12  and  C_21
REMARK    7  A    between atoms: C_13  and  C_23
REMARK    8  A    between atoms: C_23  and  C_24
REMARK    9  A    between atoms: C_26  and  C_27
REMARK                            x       y       z     vdW  Elec       q    Type
REMARK                         _______ _______ _______ _____ _____    ______ ____
ROOT
ATOM      1  S   UNL     1      -0.471  -0.606  24.024  0.00  0.00    -0.057 S 
ATOM      7  O   UNL     1       3.052   2.388  23.485  0.00  0.00    -0.270 OA
ATOM      8  N   UNL     1       0.194   1.893  24.065  0.00  0.00    -0.229 NA
ATOM      9  N   UNL     1       1.942   0.310  23.569  0.00  0.00    -0.261 N 
ATOM     10  C   UNL     1      -3.538   2.745  24.525  0.00  0.00    -0.019 C 
ATOM     11  C   UNL     1      -3.831   1.395  25.316  0.00  0.00    +0.011 C 
ATOM     12  C   UNL     1      -5.332   1.100  25.699  0.00  0.00    +0.021 C 
ATOM     13  C   UNL     1      -1.974   3.051  24.633  0.00  0.00    +0.055 C 
ATOM     14  C   UNL     1      -4.312   3.912  25.193  0.00  0.00    +0.010 C 
ATOM     15  C   UNL     1      -5.966   2.381  26.309  0.00  0.00    +0.123 C 
ATOM     16  C   UNL     1      -3.099   0.185  24.665  0.00  0.00    +0.049 C 
ATOM     17  C   UNL     1      -5.786   3.617  25.434  0.00  0.00    +0.032 C 
ATOM     18  C   UNL     1      -3.946   2.668  23.033  0.00  0.00    +0.012 C 
ATOM     19  C   UNL     1      -1.159   1.818  24.343  0.00  0.00    +0.058 A 
ATOM     21  C   UNL     1      -5.369  -0.003  26.796  0.00  0.00    +0.016 C 
ATOM     22  C   UNL     1      -1.679   0.541  24.380  0.00  0.00    +0.015 A 
ATOM     25  C   UNL     1       0.659   0.678  23.874  0.00  0.00    +0.165 A 
ATOM     26  C   UNL     1       3.042   1.166  23.395  0.00  0.00    +0.250 C 
ATOM     35  H   UNL     1       2.071  -0.695  23.514  0.00  0.00    +0.157 HD
ENDROOT
BRANCH  26  27
ATOM      2  F   UNL     1       7.893  -1.364  22.277  0.00  0.00    -0.205 F 
ATOM     27  C   UNL     1       4.334   0.490  23.098  0.00  0.00    +0.037 A 
ATOM     28  C   UNL     1       4.575   0.053  21.813  0.00  0.00    +0.016 A 
ATOM     29  C   UNL     1       5.248   0.325  24.116  0.00  0.00    +0.016 A 
ATOM     30  C   UNL     1       5.786  -0.579  21.533  0.00  0.00    +0.039 A 
ATOM     31  C   UNL     1       6.460  -0.306  23.837  0.00  0.00    +0.039 A 
ATOM     32  C   UNL     1       6.729  -0.759  22.545  0.00  0.00    +0.123 A 
ENDBRANCH  26  27
BRANCH  15   3
ATOM      3  O   UNL     1      -7.360   2.187  26.546  0.00  0.00    -0.391 OA
ATOM     33  H   UNL     1      -7.672   1.483  25.953  0.00  0.00    +0.210 HD
ENDBRANCH  15   3
BRANCH  12  20
ATOM     20  C   UNL     1      -6.194   0.557  24.537  0.00  0.00    +0.165 C 
BRANCH  20   4
ATOM      4  O   UNL     1      -7.177   1.523  24.242  0.00  0.00    -0.394 OA
ATOM     34  H   UNL     1      -6.727   2.363  24.049  0.00  0.00    +0.209 HD
ENDBRANCH  20   4
ENDBRANCH  12  20
BRANCH  13  23
ATOM     23  C   UNL     1      -1.499   4.248  23.798  0.00  0.00    +0.130 C 
BRANCH  23  24
ATOM      6  O   UNL     1       0.267   5.673  24.689  0.00  0.00    -0.251 OA
ATOM     24  C   UNL     1      -0.902   5.320  24.665  0.00  0.00    +0.305 C 
BRANCH  24   5
ATOM      5  O   UNL     1      -1.870   5.861  25.448  0.00  0.00    -0.481 OA
ATOM     36  H   UNL     1      -2.768   5.683  25.095  0.00  0.00    +0.295 HD
ENDBRANCH  24   5
ENDBRANCH  23  24
ENDBRANCH  13  23
TORSDOF 7
ENDMDL
