MODEL 1
REMARK VINA RESULT:      -4.5      0.000      0.000
REMARK  Name = 40779157
REMARK  9 active torsions:
REMARK  status: ('A' for Active; 'I' for Inactive)
REMARK    1  A    between atoms: O_1  and  C_15
REMARK    2  A    between atoms: O_1  and  C_24
REMARK    3  A    between atoms: N_4  and  C_23
REMARK    4  A    between atoms: N_6  and  C_25
REMARK    5  A    between atoms: C_8  and  C_14
REMARK    6  A    between atoms: C_10  and  C_15
REMARK    7  A    between atoms: C_17  and  C_18
REMARK    8  A    between atoms: C_25  and  C_26
REMARK    9  A    between atoms: C_25  and  C_27
REMARK                            x       y       z     vdW  Elec       q    Type
REMARK                         _______ _______ _______ _____ _____    ______ ____
ROOT
ATOM      3  N   UNL     1      -3.632  -0.053  25.614  0.00  0.00    -0.296 NA
ATOM      7  C   UNL     1      -2.475  -1.867  24.146  0.00  0.00    +0.002 C 
ATOM      8  C   UNL     1      -1.417  -1.061  24.950  0.00  0.00    +0.055 C 
ATOM      9  C   UNL     1      -3.313  -0.895  23.290  0.00  0.00    +0.026 C 
ATOM     10  C   UNL     1      -4.132   0.028  24.218  0.00  0.00    +0.095 C 
ATOM     11  C   UNL     1      -2.158   0.121  25.638  0.00  0.00    +0.094 C 
ATOM     12  C   UNL     1      -3.430  -2.501  25.180  0.00  0.00    +0.019 C 
ATOM     13  C   UNL     1      -3.946  -1.407  26.131  0.00  0.00    +0.085 C 
ENDROOT
BRANCH   8  14
ATOM      4  N   UNL     1      -0.063   0.580  23.565  0.00  0.00    -0.271 N 
ATOM      5  N   UNL     1       1.135   0.791  22.994  0.00  0.00    -0.176 NA
ATOM     14  C   UNL     1      -0.156  -0.609  24.227  0.00  0.00    +0.044 A 
ATOM     16  C   UNL     1       1.066  -1.219  24.078  0.00  0.00    +0.048 A 
ATOM     18  C   UNL     1       1.821  -0.310  23.311  0.00  0.00    +0.066 A 
ATOM     23  C   UNL     1      -1.095   1.582  23.433  0.00  0.00    +0.172 C 
BRANCH  18  17
ATOM     17  C   UNL     1       3.251  -0.465  22.844  0.00  0.00    +0.040 C 
ATOM     19  C   UNL     1       4.012   0.872  22.820  0.00  0.00    +0.010 C 
ATOM     20  C   UNL     1       4.106  -1.417  23.706  0.00  0.00    +0.010 C 
ATOM     21  C   UNL     1       5.434   0.515  23.226  0.00  0.00    +0.001 C 
ATOM     22  C   UNL     1       5.230  -0.561  24.277  0.00  0.00    +0.001 C 
ENDBRANCH  18  17
ENDBRANCH   8  14
BRANCH  10  15
ATOM     15  C   UNL     1      -4.176   1.466  23.697  0.00  0.00    +0.252 C 
BRANCH  15   1
ATOM      1  O   UNL     1      -5.055   2.212  24.516  0.00  0.00    -0.449 OA
BRANCH   1  24
ATOM      2  O   UNL     1      -5.056   3.499  26.419  0.00  0.00    -0.226 OA
ATOM      6  N   UNL     1      -3.165   3.313  25.086  0.00  0.00    -0.279 N 
ATOM     24  C   UNL     1      -4.474   3.053  25.435  0.00  0.00    +0.401 C 
ATOM     28  H   UNL     1      -2.792   2.840  24.269  0.00  0.00    +0.152 HD
BRANCH   6  25
ATOM     25  C   UNL     1      -2.285   4.164  25.853  0.00  0.00    +0.070 C 
ATOM     26  C   UNL     1      -1.719   5.270  24.972  0.00  0.00    +0.027 C 
ATOM     27  C   UNL     1      -1.172   3.345  26.494  0.00  0.00    +0.027 C 
ENDBRANCH   6  25
ENDBRANCH   1  24
ENDBRANCH  15   1
ENDBRANCH  10  15
TORSDOF 6
ENDMDL
MODEL 2
REMARK VINA RESULT:      -3.5      2.110      6.558
REMARK  Name = 40779157
REMARK  9 active torsions:
REMARK  status: ('A' for Active; 'I' for Inactive)
REMARK    1  A    between atoms: O_1  and  C_15
REMARK    2  A    between atoms: O_1  and  C_24
REMARK    3  A    between atoms: N_4  and  C_23
REMARK    4  A    between atoms: N_6  and  C_25
REMARK    5  A    between atoms: C_8  and  C_14
REMARK    6  A    between atoms: C_10  and  C_15
REMARK    7  A    between atoms: C_17  and  C_18
REMARK    8  A    between atoms: C_25  and  C_26
REMARK    9  A    between atoms: C_25  and  C_27
REMARK                            x       y       z     vdW  Elec       q    Type
REMARK                         _______ _______ _______ _____ _____    ______ ____
ROOT
ATOM      3  N   UNL     1      -1.045   4.579  25.502  0.00  0.00    -0.296 NA
ATOM      7  C   UNL     1      -2.951   4.112  23.788  0.00  0.00    +0.002 C 
ATOM      8  C   UNL     1      -3.308   3.511  25.176  0.00  0.00    +0.055 C 
ATOM      9  C   UNL     1      -1.604   3.529  23.311  0.00  0.00    +0.026 C 
ATOM     10  C   UNL     1      -0.478   4.003  24.256  0.00  0.00    +0.095 C 
ATOM     11  C   UNL     1      -2.049   3.651  26.080  0.00  0.00    +0.094 C 
ATOM     12  C   UNL     1      -2.739   5.627  24.000  0.00  0.00    +0.019 C 
ATOM     13  C   UNL     1      -1.735   5.843  25.146  0.00  0.00    +0.085 C 
ENDROOT
BRANCH   8  14
ATOM      4  N   UNL     1      -5.213   1.863  25.490  0.00  0.00    -0.271 N 
ATOM      5  N   UNL     1      -5.534   0.558  25.483  0.00  0.00    -0.176 NA
ATOM     14  C   UNL     1      -3.898   2.109  25.222  0.00  0.00    +0.044 A 
ATOM     16  C   UNL     1      -3.319   0.879  25.027  0.00  0.00    +0.048 A 
ATOM     18  C   UNL     1      -4.373  -0.038  25.199  0.00  0.00    +0.066 A 
ATOM     23  C   UNL     1      -6.239   2.840  25.768  0.00  0.00    +0.172 C 
BRANCH  18  17
ATOM     17  C   UNL     1      -4.308  -1.546  25.097  0.00  0.00    +0.040 C 
ATOM     19  C   UNL     1      -4.308  -2.039  23.639  0.00  0.00    +0.010 C 
ATOM     20  C   UNL     1      -3.062  -2.178  25.751  0.00  0.00    +0.010 C 
ATOM     21  C   UNL     1      -3.401  -3.260  23.644  0.00  0.00    +0.001 C 
ATOM     22  C   UNL     1      -2.308  -2.870  24.622  0.00  0.00    +0.001 C 
ENDBRANCH  18  17
ENDBRANCH   8  14
BRANCH  10  15
ATOM     15  C   UNL     1       0.537   2.892  24.536  0.00  0.00    +0.252 C 
BRANCH  15   1
ATOM      1  O   UNL     1      -0.135   1.649  24.480  0.00  0.00    -0.449 OA
BRANCH   1  24
ATOM      2  O   UNL     1       0.104  -0.532  23.800  0.00  0.00    -0.226 OA
ATOM      6  N   UNL     1       1.791   1.027  23.473  0.00  0.00    -0.279 N 
ATOM     24  C   UNL     1       0.551   0.606  23.904  0.00  0.00    +0.401 C 
ATOM     28  H   UNL     1       2.018   2.011  23.579  0.00  0.00    +0.152 HD
BRANCH   6  25
ATOM     25  C   UNL     1       2.750   0.164  22.825  0.00  0.00    +0.070 C 
ATOM     26  C   UNL     1       4.104   0.856  22.728  0.00  0.00    +0.027 C 
ATOM     27  C   UNL     1       2.247  -0.260  21.451  0.00  0.00    +0.027 C 
ENDBRANCH   6  25
ENDBRANCH   1  24
ENDBRANCH  15   1
ENDBRANCH  10  15
TORSDOF 6
ENDMDL
MODEL 3
REMARK VINA RESULT:      -2.8      2.103      5.902
REMARK  Name = 40779157
REMARK  9 active torsions:
REMARK  status: ('A' for Active; 'I' for Inactive)
REMARK    1  A    between atoms: O_1  and  C_15
REMARK    2  A    between atoms: O_1  and  C_24
REMARK    3  A    between atoms: N_4  and  C_23
REMARK    4  A    between atoms: N_6  and  C_25
REMARK    5  A    between atoms: C_8  and  C_14
REMARK    6  A    between atoms: C_10  and  C_15
REMARK    7  A    between atoms: C_17  and  C_18
REMARK    8  A    between atoms: C_25  and  C_26
REMARK    9  A    between atoms: C_25  and  C_27
REMARK                            x       y       z     vdW  Elec       q    Type
REMARK                         _______ _______ _______ _____ _____    ______ ____
ROOT
ATOM      3  N   UNL     1      -2.375  -2.373  23.900  0.00  0.00    -0.296 NA
ATOM      7  C   UNL     1      -3.114  -1.137  26.071  0.00  0.00    +0.002 C 
ATOM      8  C   UNL     1      -3.782  -0.494  24.824  0.00  0.00    +0.055 C 
ATOM      9  C   UNL     1      -1.581  -1.112  25.898  0.00  0.00    +0.026 C 
ATOM     10  C   UNL     1      -1.184  -2.022  24.716  0.00  0.00    +0.095 C 
ATOM     11  C   UNL     1      -3.142  -1.147  23.565  0.00  0.00    +0.094 C 
ATOM     12  C   UNL     1      -3.544  -2.620  26.090  0.00  0.00    +0.019 C 
ATOM     13  C   UNL     1      -3.243  -3.252  24.719  0.00  0.00    +0.085 C 
ENDROOT
BRANCH   8  14
ATOM      4  N   UNL     1      -4.936   1.761  24.989  0.00  0.00    -0.271 N 
ATOM      5  N   UNL     1      -4.759   3.086  24.852  0.00  0.00    -0.176 NA
ATOM     14  C   UNL     1      -3.817   1.025  24.731  0.00  0.00    +0.044 A 
ATOM     16  C   UNL     1      -2.840   1.932  24.401  0.00  0.00    +0.048 A 
ATOM     18  C   UNL     1      -3.476   3.185  24.493  0.00  0.00    +0.066 A 
ATOM     23  C   UNL     1      -6.234   1.260  25.377  0.00  0.00    +0.172 C 
BRANCH  18  17
ATOM     17  C   UNL     1      -2.870   4.546  24.236  0.00  0.00    +0.040 C 
ATOM     19  C   UNL     1      -2.714   5.375  25.523  0.00  0.00    +0.010 C 
ATOM     20  C   UNL     1      -1.470   4.512  23.589  0.00  0.00    +0.010 C 
ATOM     21  C   UNL     1      -1.426   6.159  25.324  0.00  0.00    +0.001 C 
ATOM     22  C   UNL     1      -0.533   5.172  24.594  0.00  0.00    +0.001 C 
ENDBRANCH  18  17
ENDBRANCH   8  14
BRANCH  10  15
ATOM     15  C   UNL     1      -0.062  -1.408  23.876  0.00  0.00    +0.252 C 
BRANCH  15   1
ATOM      1  O   UNL     1      -0.215  -0.002  23.885  0.00  0.00    -0.449 OA
BRANCH   1  24
ATOM      2  O   UNL     1       1.032   1.920  24.049  0.00  0.00    -0.226 OA
ATOM      6  N   UNL     1       1.923  -0.025  23.151  0.00  0.00    -0.279 N 
ATOM     24  C   UNL     1       0.930   0.741  23.724  0.00  0.00    +0.401 C 
ATOM     28  H   UNL     1       1.720  -1.004  22.974  0.00  0.00    +0.152 HD
BRANCH   6  25
ATOM     25  C   UNL     1       3.247   0.470  22.853  0.00  0.00    +0.070 C 
ATOM     26  C   UNL     1       3.518   0.386  21.357  0.00  0.00    +0.027 C 
ATOM     27  C   UNL     1       4.296  -0.295  23.649  0.00  0.00    +0.027 C 
ENDBRANCH   6  25
ENDBRANCH   1  24
ENDBRANCH  15   1
ENDBRANCH  10  15
TORSDOF 6
ENDMDL
MODEL 4
REMARK VINA RESULT:      -2.4      1.516      4.190
REMARK  Name = 40779157
REMARK  9 active torsions:
REMARK  status: ('A' for Active; 'I' for Inactive)
REMARK    1  A    between atoms: O_1  and  C_15
REMARK    2  A    between atoms: O_1  and  C_24
REMARK    3  A    between atoms: N_4  and  C_23
REMARK    4  A    between atoms: N_6  and  C_25
REMARK    5  A    between atoms: C_8  and  C_14
REMARK    6  A    between atoms: C_10  and  C_15
REMARK    7  A    between atoms: C_17  and  C_18
REMARK    8  A    between atoms: C_25  and  C_26
REMARK    9  A    between atoms: C_25  and  C_27
REMARK                            x       y       z     vdW  Elec       q    Type
REMARK                         _______ _______ _______ _____ _____    ______ ____
ROOT
ATOM      3  N   UNL     1      -2.931   3.405  24.024  0.00  0.00    -0.296 NA
ATOM      7  C   UNL     1      -0.886   3.014  25.589  0.00  0.00    +0.002 C 
ATOM      8  C   UNL     1      -0.459   2.909  24.098  0.00  0.00    +0.055 C 
ATOM      9  C   UNL     1      -2.015   2.001  25.868  0.00  0.00    +0.026 C 
ATOM     10  C   UNL     1      -3.271   2.398  25.062  0.00  0.00    +0.095 C 
ATOM     11  C   UNL     1      -1.755   2.951  23.239  0.00  0.00    +0.094 C 
ATOM     12  C   UNL     1      -1.484   4.425  25.781  0.00  0.00    +0.019 C 
ATOM     13  C   UNL     1      -2.567   4.665  24.714  0.00  0.00    +0.085 C 
ENDROOT
BRANCH   8  14
ATOM      4  N   UNL     1       0.026   0.493  23.489  0.00  0.00    -0.271 N 
ATOM      5  N   UNL     1       0.998  -0.366  23.138  0.00  0.00    -0.176 NA
ATOM     14  C   UNL     1       0.464   1.768  23.694  0.00  0.00    +0.044 A 
ATOM     16  C   UNL     1       1.818   1.741  23.462  0.00  0.00    +0.048 A 
ATOM     18  C   UNL     1       2.090   0.402  23.122  0.00  0.00    +0.066 A 
ATOM     23  C   UNL     1      -1.330   0.011  23.613  0.00  0.00    +0.172 C 
BRANCH  18  17
ATOM     17  C   UNL     1       3.429  -0.203  22.764  0.00  0.00    +0.040 C 
ATOM     19  C   UNL     1       4.562   0.839  22.750  0.00  0.00    +0.010 C 
ATOM     20  C   UNL     1       3.902  -1.320  23.717  0.00  0.00    +0.010 C 
ATOM     21  C   UNL     1       5.781   0.091  23.268  0.00  0.00    +0.001 C 
ATOM     22  C   UNL     1       5.198  -0.815  24.338  0.00  0.00    +0.001 C 
ENDBRANCH  18  17
ENDBRANCH   8  14
BRANCH  10  15
ATOM     15  C   UNL     1      -3.984   1.177  24.478  0.00  0.00    +0.252 C 
BRANCH  15   1
ATOM      1  O   UNL     1      -4.500   0.408  25.547  0.00  0.00    -0.449 OA
BRANCH   1  24
ATOM      2  O   UNL     1      -3.412  -1.186  26.793  0.00  0.00    -0.226 OA
ATOM      6  N   UNL     1      -4.043  -1.592  24.598  0.00  0.00    -0.279 N 
ATOM     24  C   UNL     1      -3.935  -0.830  25.741  0.00  0.00    +0.401 C 
ATOM     28  H   UNL     1      -4.543  -1.192  23.809  0.00  0.00    +0.152 HD
BRANCH   6  25
ATOM     25  C   UNL     1      -3.544  -2.943  24.484  0.00  0.00    +0.070 C 
ATOM     26  C   UNL     1      -2.031  -2.936  24.312  0.00  0.00    +0.027 C 
ATOM     27  C   UNL     1      -4.227  -3.671  23.333  0.00  0.00    +0.027 C 
ENDBRANCH   6  25
ENDBRANCH   1  24
ENDBRANCH  15   1
ENDBRANCH  10  15
TORSDOF 6
ENDMDL
MODEL 5
REMARK VINA RESULT:      -1.8      1.802      4.090
REMARK  Name = 40779157
REMARK  9 active torsions:
REMARK  status: ('A' for Active; 'I' for Inactive)
REMARK    1  A    between atoms: O_1  and  C_15
REMARK    2  A    between atoms: O_1  and  C_24
REMARK    3  A    between atoms: N_4  and  C_23
REMARK    4  A    between atoms: N_6  and  C_25
REMARK    5  A    between atoms: C_8  and  C_14
REMARK    6  A    between atoms: C_10  and  C_15
REMARK    7  A    between atoms: C_17  and  C_18
REMARK    8  A    between atoms: C_25  and  C_26
REMARK    9  A    between atoms: C_25  and  C_27
REMARK                            x       y       z     vdW  Elec       q    Type
REMARK                         _______ _______ _______ _____ _____    ______ ____
ROOT
ATOM      3  N   UNL     1      -4.469   2.669  23.878  0.00  0.00    -0.296 NA
ATOM      7  C   UNL     1      -2.689   3.132  25.723  0.00  0.00    +0.002 C 
ATOM      8  C   UNL     1      -2.025   3.118  24.318  0.00  0.00    +0.055 C 
ATOM      9  C   UNL     1      -3.414   1.790  25.958  0.00  0.00    +0.026 C 
ATOM     10  C   UNL     1      -4.587   1.660  24.961  0.00  0.00    +0.095 C 
ATOM     11  C   UNL     1      -3.101   2.640  23.301  0.00  0.00    +0.094 C 
ATOM     12  C   UNL     1      -3.772   4.233  25.692  0.00  0.00    +0.019 C 
ATOM     13  C   UNL     1      -4.689   4.007  24.477  0.00  0.00    +0.085 C 
ENDROOT
BRANCH   8  14
ATOM      4  N   UNL     1       0.176   2.192  25.178  0.00  0.00    -0.271 N 
ATOM      5  N   UNL     1       1.281   1.511  24.828  0.00  0.00    -0.176 NA
ATOM     14  C   UNL     1      -0.706   2.376  24.155  0.00  0.00    +0.044 A 
ATOM     16  C   UNL     1      -0.139   1.774  23.058  0.00  0.00    +0.048 A 
ATOM     18  C   UNL     1       1.082   1.258  23.532  0.00  0.00    +0.066 A 
ATOM     23  C   UNL     1       0.031   2.647  26.542  0.00  0.00    +0.172 C 
BRANCH  18  17
ATOM     17  C   UNL     1       2.124   0.491  22.748  0.00  0.00    +0.040 C 
ATOM     19  C   UNL     1       3.483   1.211  22.710  0.00  0.00    +0.010 C 
ATOM     20  C   UNL     1       2.416  -0.924  23.288  0.00  0.00    +0.010 C 
ATOM     21  C   UNL     1       4.514   0.094  22.751  0.00  0.00    +0.001 C 
ATOM     22  C   UNL     1       3.886  -0.918  23.692  0.00  0.00    +0.001 C 
ENDBRANCH  18  17
ENDBRANCH   8  14
BRANCH  10  15
ATOM     15  C   UNL     1      -4.719   0.235  24.420  0.00  0.00    +0.252 C 
BRANCH  15   1
ATOM      1  O   UNL     1      -4.428  -0.670  25.467  0.00  0.00    -0.449 OA
BRANCH   1  24
ATOM      2  O   UNL     1      -3.528  -2.783  25.461  0.00  0.00    -0.226 OA
ATOM      6  N   UNL     1      -2.318  -0.952  24.707  0.00  0.00    -0.279 N 
ATOM     24  C   UNL     1      -3.427  -1.582  25.230  0.00  0.00    +0.401 C 
ATOM     28  H   UNL     1      -2.385   0.044  24.521  0.00  0.00    +0.152 HD
BRANCH   6  25
ATOM     25  C   UNL     1      -1.099  -1.640  24.351  0.00  0.00    +0.070 C 
ATOM     26  C   UNL     1      -1.417  -2.999  23.741  0.00  0.00    +0.027 C 
ATOM     27  C   UNL     1      -0.188  -1.779  25.564  0.00  0.00    +0.027 C 
ENDBRANCH   6  25
ENDBRANCH   1  24
ENDBRANCH  15   1
ENDBRANCH  10  15
TORSDOF 6
ENDMDL
MODEL 6
REMARK VINA RESULT:      -1.5      1.540      2.620
REMARK  Name = 40779157
REMARK  9 active torsions:
REMARK  status: ('A' for Active; 'I' for Inactive)
REMARK    1  A    between atoms: O_1  and  C_15
REMARK    2  A    between atoms: O_1  and  C_24
REMARK    3  A    between atoms: N_4  and  C_23
REMARK    4  A    between atoms: N_6  and  C_25
REMARK    5  A    between atoms: C_8  and  C_14
REMARK    6  A    between atoms: C_10  and  C_15
REMARK    7  A    between atoms: C_17  and  C_18
REMARK    8  A    between atoms: C_25  and  C_26
REMARK    9  A    between atoms: C_25  and  C_27
REMARK                            x       y       z     vdW  Elec       q    Type
REMARK                         _______ _______ _______ _____ _____    ______ ____
ROOT
ATOM      3  N   UNL     1      -3.100   1.221  25.540  0.00  0.00    -0.296 NA
ATOM      7  C   UNL     1      -2.403   0.491  23.139  0.00  0.00    +0.002 C 
ATOM      8  C   UNL     1      -1.332   0.049  24.175  0.00  0.00    +0.055 C 
ATOM      9  C   UNL     1      -2.602   2.018  23.231  0.00  0.00    +0.026 C 
ATOM     10  C   UNL     1      -3.205   2.373  24.608  0.00  0.00    +0.095 C 
ATOM     11  C   UNL     1      -1.714   0.691  25.540  0.00  0.00    +0.094 C 
ATOM     12  C   UNL     1      -3.733  -0.167  23.567  0.00  0.00    +0.019 C 
ATOM     13  C   UNL     1      -4.004   0.154  25.047  0.00  0.00    +0.085 C 
ENDROOT
BRANCH   8  14
ATOM      4  N   UNL     1       0.744   1.481  23.886  0.00  0.00    -0.271 N 
ATOM      5  N   UNL     1       2.043   1.457  23.541  0.00  0.00    -0.176 NA
ATOM     14  C   UNL     1       0.135   0.262  23.828  0.00  0.00    +0.044 A 
ATOM     16  C   UNL     1       1.102  -0.621  23.414  0.00  0.00    +0.048 A 
ATOM     18  C   UNL     1       2.256   0.170  23.254  0.00  0.00    +0.066 A 
ATOM     23  C   UNL     1       0.139   2.736  24.269  0.00  0.00    +0.172 C 
BRANCH  18  17
ATOM     17  C   UNL     1       3.629  -0.284  22.813  0.00  0.00    +0.040 C 
ATOM     19  C   UNL     1       4.670   0.848  22.867  0.00  0.00    +0.010 C 
ATOM     20  C   UNL     1       4.222  -1.436  23.649  0.00  0.00    +0.010 C 
ATOM     21  C   UNL     1       5.963   0.165  23.287  0.00  0.00    +0.001 C 
ATOM     22  C   UNL     1       5.490  -0.878  24.284  0.00  0.00    +0.001 C 
ENDBRANCH  18  17
ENDBRANCH   8  14
BRANCH  10  15
ATOM     15  C   UNL     1      -2.591   3.650  25.187  0.00  0.00    +0.252 C 
BRANCH  15   1
ATOM      1  O   UNL     1      -3.533   4.242  26.060  0.00  0.00    -0.449 OA
BRANCH   1  24
ATOM      2  O   UNL     1      -5.565   4.768  25.127  0.00  0.00    -0.226 OA
ATOM      6  N   UNL     1      -5.263   2.816  26.345  0.00  0.00    -0.279 N 
ATOM     24  C   UNL     1      -4.859   4.008  25.783  0.00  0.00    +0.401 C 
ATOM     28  H   UNL     1      -4.563   2.259  26.825  0.00  0.00    +0.152 HD
BRANCH   6  25
ATOM     25  C   UNL     1      -6.604   2.290  26.232  0.00  0.00    +0.070 C 
ATOM     26  C   UNL     1      -6.868   1.274  27.336  0.00  0.00    +0.027 C 
ATOM     27  C   UNL     1      -6.825   1.679  24.855  0.00  0.00    +0.027 C 
ENDBRANCH   6  25
ENDBRANCH   1  24
ENDBRANCH  15   1
ENDBRANCH  10  15
TORSDOF 6
ENDMDL
MODEL 7
REMARK VINA RESULT:      -1.2      1.986      4.605
REMARK  Name = 40779157
REMARK  9 active torsions:
REMARK  status: ('A' for Active; 'I' for Inactive)
REMARK    1  A    between atoms: O_1  and  C_15
REMARK    2  A    between atoms: O_1  and  C_24
REMARK    3  A    between atoms: N_4  and  C_23
REMARK    4  A    between atoms: N_6  and  C_25
REMARK    5  A    between atoms: C_8  and  C_14
REMARK    6  A    between atoms: C_10  and  C_15
REMARK    7  A    between atoms: C_17  and  C_18
REMARK    8  A    between atoms: C_25  and  C_26
REMARK    9  A    between atoms: C_25  and  C_27
REMARK                            x       y       z     vdW  Elec       q    Type
REMARK                         _______ _______ _______ _____ _____    ______ ____
ROOT
ATOM      3  N   UNL     1      -5.536   3.190  24.468  0.00  0.00    -0.296 NA
ATOM      7  C   UNL     1      -3.606   3.819  26.101  0.00  0.00    +0.002 C 
ATOM      8  C   UNL     1      -3.080   3.743  24.641  0.00  0.00    +0.055 C 
ATOM      9  C   UNL     1      -4.254   2.471  26.480  0.00  0.00    +0.026 C 
ATOM     10  C   UNL     1      -5.511   2.243  25.613  0.00  0.00    +0.095 C 
ATOM     11  C   UNL     1      -4.230   3.171  23.762  0.00  0.00    +0.094 C 
ATOM     12  C   UNL     1      -4.728   4.880  26.115  0.00  0.00    +0.019 C 
ATOM     13  C   UNL     1      -5.748   4.554  25.010  0.00  0.00    +0.085 C 
ENDROOT
BRANCH   8  14
ATOM      4  N   UNL     1      -0.550   3.670  24.454  0.00  0.00    -0.271 N 
ATOM      5  N   UNL     1       0.499   2.869  24.201  0.00  0.00    -0.176 NA
ATOM     14  C   UNL     1      -1.756   3.036  24.390  0.00  0.00    +0.044 A 
ATOM     16  C   UNL     1      -1.476   1.730  24.072  0.00  0.00    +0.048 A 
ATOM     18  C   UNL     1      -0.073   1.685  23.969  0.00  0.00    +0.066 A 
ATOM     23  C   UNL     1      -0.317   5.064  24.755  0.00  0.00    +0.172 C 
BRANCH  18  17
ATOM     17  C   UNL     1       0.789   0.487  23.638  0.00  0.00    +0.040 C 
ATOM     19  C   UNL     1       0.412  -0.157  22.292  0.00  0.00    +0.010 C 
ATOM     20  C   UNL     1       2.299   0.790  23.548  0.00  0.00    +0.010 C 
ATOM     21  C   UNL     1       1.734  -0.631  21.707  0.00  0.00    +0.001 C 
ATOM     22  C   UNL     1       2.701   0.466  22.113  0.00  0.00    +0.001 C 
ENDBRANCH  18  17
ENDBRANCH   8  14
BRANCH  10  15
ATOM     15  C   UNL     1      -5.639   0.786  25.167  0.00  0.00    +0.252 C 
BRANCH  15   1
ATOM      1  O   UNL     1      -4.546   0.059  25.692  0.00  0.00    -0.449 OA
BRANCH   1  24
ATOM      2  O   UNL     1      -4.301  -1.092  23.720  0.00  0.00    -0.226 OA
ATOM      6  N   UNL     1      -2.632  -1.088  25.331  0.00  0.00    -0.279 N 
ATOM     24  C   UNL     1      -3.861  -0.743  24.810  0.00  0.00    +0.401 C 
ATOM     28  H   UNL     1      -2.372  -0.691  26.229  0.00  0.00    +0.152 HD
BRANCH   6  25
ATOM     25  C   UNL     1      -1.676  -1.925  24.644  0.00  0.00    +0.070 C 
ATOM     26  C   UNL     1      -2.280  -3.294  24.360  0.00  0.00    +0.027 C 
ATOM     27  C   UNL     1      -0.391  -2.045  25.452  0.00  0.00    +0.027 C 
ENDBRANCH   6  25
ENDBRANCH   1  24
ENDBRANCH  15   1
ENDBRANCH  10  15
TORSDOF 6
ENDMDL
MODEL 8
REMARK VINA RESULT:      -0.7      1.899      5.300
REMARK  Name = 40779157
REMARK  9 active torsions:
REMARK  status: ('A' for Active; 'I' for Inactive)
REMARK    1  A    between atoms: O_1  and  C_15
REMARK    2  A    between atoms: O_1  and  C_24
REMARK    3  A    between atoms: N_4  and  C_23
REMARK    4  A    between atoms: N_6  and  C_25
REMARK    5  A    between atoms: C_8  and  C_14
REMARK    6  A    between atoms: C_10  and  C_15
REMARK    7  A    between atoms: C_17  and  C_18
REMARK    8  A    between atoms: C_25  and  C_26
REMARK    9  A    between atoms: C_25  and  C_27
REMARK                            x       y       z     vdW  Elec       q    Type
REMARK                         _______ _______ _______ _____ _____    ______ ____
ROOT
ATOM      3  N   UNL     1      -2.241   4.511  24.686  0.00  0.00    -0.296 NA
ATOM      7  C   UNL     1       0.125   3.463  24.984  0.00  0.00    +0.002 C 
ATOM      8  C   UNL     1      -0.710   2.641  23.963  0.00  0.00    +0.055 C 
ATOM      9  C   UNL     1      -0.636   3.535  26.324  0.00  0.00    +0.026 C 
ATOM     10  C   UNL     1      -1.939   4.340  26.131  0.00  0.00    +0.095 C 
ATOM     11  C   UNL     1      -2.161   3.202  23.991  0.00  0.00    +0.094 C 
ATOM     12  C   UNL     1       0.209   4.903  24.433  0.00  0.00    +0.019 C 
ATOM     13  C   UNL     1      -1.209   5.406  24.109  0.00  0.00    +0.085 C 
ENDROOT
BRANCH   8  14
ATOM      4  N   UNL     1       0.404   0.376  23.693  0.00  0.00    -0.271 N 
ATOM      5  N   UNL     1       0.234  -0.946  23.861  0.00  0.00    -0.176 NA
ATOM     14  C   UNL     1      -0.676   1.123  24.064  0.00  0.00    +0.044 A 
ATOM     16  C   UNL     1      -1.618   0.226  24.504  0.00  0.00    +0.048 A 
ATOM     18  C   UNL     1      -1.003  -1.032  24.357  0.00  0.00    +0.066 A 
ATOM     23  C   UNL     1       1.654   0.864  23.159  0.00  0.00    +0.172 C 
BRANCH  18  17
ATOM     17  C   UNL     1      -1.587  -2.386  24.691  0.00  0.00    +0.040 C 
ATOM     19  C   UNL     1      -2.659  -2.311  25.793  0.00  0.00    +0.010 C 
ATOM     20  C   UNL     1      -2.259  -3.105  23.503  0.00  0.00    +0.010 C 
ATOM     21  C   UNL     1      -3.683  -3.368  25.408  0.00  0.00    +0.001 C 
ATOM     22  C   UNL     1      -3.723  -3.269  23.894  0.00  0.00    +0.001 C 
ENDBRANCH  18  17
ENDBRANCH   8  14
BRANCH  10  15
ATOM     15  C   UNL     1      -3.109   3.725  26.902  0.00  0.00    +0.252 C 
BRANCH  15   1
ATOM      1  O   UNL     1      -4.284   4.442  26.578  0.00  0.00    -0.449 OA
BRANCH   1  24
ATOM      2  O   UNL     1      -6.314   4.240  25.523  0.00  0.00    -0.226 OA
ATOM      6  N   UNL     1      -4.718   2.561  25.402  0.00  0.00    -0.279 N 
ATOM     24  C   UNL     1      -5.210   3.784  25.804  0.00  0.00    +0.401 C 
ATOM     28  H   UNL     1      -3.766   2.325  25.667  0.00  0.00    +0.152 HD
BRANCH   6  25
ATOM     25  C   UNL     1      -5.453   1.632  24.576  0.00  0.00    +0.070 C 
ATOM     26  C   UNL     1      -6.878   1.478  25.093  0.00  0.00    +0.027 C 
ATOM     27  C   UNL     1      -4.739   0.288  24.514  0.00  0.00    +0.027 C 
ENDBRANCH   6  25
ENDBRANCH   1  24
ENDBRANCH  15   1
ENDBRANCH  10  15
TORSDOF 6
ENDMDL
