MODEL 1
REMARK VINA RESULT:       1.6      0.000      0.000
REMARK  Name = 7144102
REMARK  7 active torsions:
REMARK  status: ('A' for Active; 'I' for Inactive)
REMARK    1  A    between atoms: O_3  and  C_21
REMARK    2  A    between atoms: O_3  and  C_27
REMARK    3  A    between atoms: O_4  and  C_26
REMARK    4  A    between atoms: O_4  and  C_28
REMARK    5  A    between atoms: C_14  and  C_19
REMARK    6  A    between atoms: C_16  and  C_20
REMARK    7  A    between atoms: C_20  and  C_21
REMARK                            x       y       z     vdW  Elec       q    Type
REMARK                         _______ _______ _______ _____ _____    ______ ____
ROOT
ATOM      1  O   UNL     1      -3.185   4.681  26.892  0.00  0.00    -0.268 OA
ATOM      2  O   UNL     1      -5.386   0.010  25.854  0.00  0.00    -0.276 OA
ATOM      5  N   UNL     1      -4.029   0.648  24.080  0.00  0.00    -0.300 N 
ATOM      6  N   UNL     1      -2.683   3.376  25.013  0.00  0.00    -0.311 N 
ATOM      7  C   UNL     1      -4.424   2.937  23.183  0.00  0.00    +0.027 C 
ATOM      8  C   UNL     1      -2.185   1.936  23.013  0.00  0.00    +0.054 C 
ATOM      9  C   UNL     1      -3.216   2.786  22.271  0.00  0.00    +0.018 C 
ATOM     10  C   UNL     1      -5.025   1.564  23.525  0.00  0.00    +0.113 C 
ATOM     11  C   UNL     1      -3.995   3.702  24.435  0.00  0.00    +0.130 C 
ATOM     12  C   UNL     1      -2.784   0.545  23.307  0.00  0.00    +0.117 C 
ATOM     13  C   UNL     1      -1.733   2.605  24.314  0.00  0.00    +0.034 A 
ATOM     14  C   UNL     1      -0.481   2.456  24.818  0.00  0.00    +0.002 A 
ATOM     15  C   UNL     1      -2.399   3.986  26.248  0.00  0.00    +0.252 A 
ATOM     16  C   UNL     1      -4.333  -0.095  25.221  0.00  0.00    +0.218 C 
ATOM     17  C   UNL     1      -0.152   3.066  26.091  0.00  0.00    +0.015 A 
ATOM     18  C   UNL     1      -1.037   3.777  26.790  0.00  0.00    +0.071 A 
ENDROOT
BRANCH  14  19
ATOM     19  C   UNL     1       0.555   1.670  24.112  0.00  0.00    -0.016 A 
ATOM     22  C   UNL     1       1.745   2.280  23.728  0.00  0.00    +0.012 A 
ATOM     23  C   UNL     1       0.332   0.323  23.838  0.00  0.00    +0.012 A 
ATOM     24  C   UNL     1       2.722   1.538  23.064  0.00  0.00    +0.046 A 
ATOM     25  C   UNL     1       1.308  -0.419  23.174  0.00  0.00    +0.046 A 
ATOM     26  C   UNL     1       2.503   0.188  22.786  0.00  0.00    +0.120 A 
BRANCH  26   4
ATOM      4  O   UNL     1       3.456  -0.536  22.139  0.00  0.00    -0.495 OA
ATOM     28  C   UNL     1       4.814  -0.301  22.510  0.00  0.00    +0.277 C 
ENDBRANCH  26   4
ENDBRANCH  14  19
BRANCH  16  20
ATOM     20  C   UNL     1      -3.284  -1.071  25.691  0.00  0.00    +0.124 C 
BRANCH  20  21
ATOM     21  C   UNL     1      -3.544  -2.429  25.075  0.00  0.00    +0.168 C 
BRANCH  21   3
ATOM      3  O   UNL     1      -2.472  -2.771  24.206  0.00  0.00    -0.382 OA
ATOM     27  C   UNL     1      -1.212  -2.489  24.798  0.00  0.00    +0.194 C 
ENDBRANCH  21   3
ENDBRANCH  20  21
ENDBRANCH  16  20
TORSDOF 5
ENDMDL
MODEL 2
REMARK VINA RESULT:       5.2      2.658      5.112
REMARK  Name = 7144102
REMARK  7 active torsions:
REMARK  status: ('A' for Active; 'I' for Inactive)
REMARK    1  A    between atoms: O_3  and  C_21
REMARK    2  A    between atoms: O_3  and  C_27
REMARK    3  A    between atoms: O_4  and  C_26
REMARK    4  A    between atoms: O_4  and  C_28
REMARK    5  A    between atoms: C_14  and  C_19
REMARK    6  A    between atoms: C_16  and  C_20
REMARK    7  A    between atoms: C_20  and  C_21
REMARK                            x       y       z     vdW  Elec       q    Type
REMARK                         _______ _______ _______ _____ _____    ______ ____
ROOT
ATOM      1  O   UNL     1       1.171   2.944  27.866  0.00  0.00    -0.268 OA
ATOM      2  O   UNL     1      -3.283   5.334  26.385  0.00  0.00    -0.276 OA
ATOM      5  N   UNL     1      -2.661   3.773  24.782  0.00  0.00    -0.300 N 
ATOM      6  N   UNL     1      -0.079   2.349  25.977  0.00  0.00    -0.311 N 
ATOM      7  C   UNL     1      -0.311   3.929  23.971  0.00  0.00    +0.027 C 
ATOM      8  C   UNL     1      -1.458   1.754  23.960  0.00  0.00    +0.054 C 
ATOM      9  C   UNL     1      -0.505   2.650  23.171  0.00  0.00    +0.018 C 
ATOM     10  C   UNL     1      -1.654   4.649  24.184  0.00  0.00    +0.113 C 
ATOM     11  C   UNL     1       0.364   3.574  25.296  0.00  0.00    +0.130 C 
ATOM     12  C   UNL     1      -2.816   2.468  24.125  0.00  0.00    +0.117 C 
ATOM     13  C   UNL     1      -0.883   1.388  25.331  0.00  0.00    +0.034 A 
ATOM     14  C   UNL     1      -1.142   0.203  25.942  0.00  0.00    +0.002 A 
ATOM     15  C   UNL     1       0.453   2.146  27.263  0.00  0.00    +0.252 A 
ATOM     16  C   UNL     1      -3.432   4.234  25.849  0.00  0.00    +0.218 C 
ATOM     17  C   UNL     1      -0.614  -0.040  27.271  0.00  0.00    +0.015 A 
ATOM     18  C   UNL     1       0.125   0.860  27.919  0.00  0.00    +0.071 A 
ENDROOT
BRANCH  14  19
ATOM     19  C   UNL     1      -1.965  -0.843  25.296  0.00  0.00    -0.016 A 
ATOM     22  C   UNL     1      -1.351  -1.946  24.713  0.00  0.00    +0.012 A 
ATOM     23  C   UNL     1      -3.352  -0.717  25.279  0.00  0.00    +0.012 A 
ATOM     24  C   UNL     1      -2.127  -2.933  24.106  0.00  0.00    +0.046 A 
ATOM     25  C   UNL     1      -4.129  -1.703  24.673  0.00  0.00    +0.046 A 
ATOM     26  C   UNL     1      -3.518  -2.811  24.085  0.00  0.00    +0.120 A 
BRANCH  26   4
ATOM      4  O   UNL     1      -4.276  -3.773  23.494  0.00  0.00    -0.495 OA
ATOM     28  C   UNL     1      -5.584  -3.398  23.066  0.00  0.00    +0.277 C 
ENDBRANCH  26   4
ENDBRANCH  14  19
BRANCH  16  20
ATOM     20  C   UNL     1      -4.499   3.301  26.364  0.00  0.00    +0.124 C 
BRANCH  20  21
ATOM     21  C   UNL     1      -5.791   3.548  25.615  0.00  0.00    +0.168 C 
BRANCH  21   3
ATOM      3  O   UNL     1      -6.156   2.376  24.897  0.00  0.00    -0.382 OA
ATOM     27  C   UNL     1      -6.171   1.233  25.740  0.00  0.00    +0.194 C 
ENDBRANCH  21   3
ENDBRANCH  20  21
ENDBRANCH  16  20
TORSDOF 5
ENDMDL
