MODEL 1
REMARK VINA RESULT:      -1.6      0.000      0.000
REMARK  Name = 26743118
REMARK  9 active torsions:
REMARK  status: ('A' for Active; 'I' for Inactive)
REMARK    1  A    between atoms: S_1  and  C_21
REMARK    2  A    between atoms: S_1  and  C_28
REMARK    3  A    between atoms: N_7  and  C_20
REMARK    4  A    between atoms: C_9  and  C_15
REMARK    5  A    between atoms: C_10  and  C_14
REMARK    6  A    between atoms: C_14  and  C_16
REMARK    7  A    between atoms: C_15  and  C_17
REMARK    8  A    between atoms: C_19  and  C_21
REMARK    9  A    between atoms: C_20  and  C_22
REMARK                            x       y       z     vdW  Elec       q    Type
REMARK                         _______ _______ _______ _____ _____    ______ ____
ROOT
ATOM      6  N   UNL     1      -3.593  -3.408  24.649  0.00  0.00    -0.316 NA
ATOM      9  C   UNL     1      -3.128  -0.648  25.581  0.00  0.00    +0.004 C 
ATOM     10  C   UNL     1      -3.616  -0.976  24.150  0.00  0.00    +0.012 C 
ATOM     11  C   UNL     1      -3.521  -1.799  26.522  0.00  0.00    +0.019 C 
ATOM     12  C   UNL     1      -3.164  -2.376  23.704  0.00  0.00    +0.085 C 
ATOM     13  C   UNL     1      -3.075  -3.162  25.993  0.00  0.00    +0.081 C 
ATOM     35  H   UNL     1      -3.270  -4.319  24.324  0.00  0.00    +0.122 HD
ENDROOT
BRANCH  10  14
ATOM     14  C   UNL     1      -3.202   0.075  23.119  0.00  0.00    +0.064 C 
BRANCH  14  16
ATOM      3  O   UNL     1      -3.857   3.599  23.443  0.00  0.00    -0.359 OA
ATOM      8  N   UNL     1      -3.334   2.503  22.769  0.00  0.00    -0.083 NA
ATOM     16  C   UNL     1      -3.621   1.452  23.543  0.00  0.00    +0.084 A 
ATOM     18  C   UNL     1      -4.318   1.821  24.706  0.00  0.00    +0.071 A 
ATOM     19  C   UNL     1      -4.440   3.181  24.596  0.00  0.00    +0.148 A 
BRANCH  19  21
ATOM     21  C   UNL     1      -5.047   4.219  25.437  0.00  0.00    +0.151 C 
BRANCH  21   1
ATOM      1  S   UNL     1      -3.891   4.920  26.666  0.00  0.00    -0.117 S 
BRANCH   1  28
ATOM     28  C   UNL     1      -2.318   4.422  25.978  0.00  0.00    +0.008 A 
ATOM     30  C   UNL     1      -1.649   5.262  25.089  0.00  0.00    +0.015 A 
ATOM     31  C   UNL     1      -1.762   3.192  26.330  0.00  0.00    +0.015 A 
ATOM     32  C   UNL     1      -0.421   4.872  24.552  0.00  0.00    +0.001 A 
ATOM     33  C   UNL     1      -0.535   2.803  25.794  0.00  0.00    +0.001 A 
ATOM     34  C   UNL     1       0.136   3.643  24.904  0.00  0.00    +0.000 A 
ENDBRANCH   1  28
ENDBRANCH  21   1
ENDBRANCH  19  21
ENDBRANCH  14  16
ENDBRANCH  10  14
BRANCH   9  15
ATOM     15  C   UNL     1      -1.626  -0.353  25.676  0.00  0.00    +0.099 C 
BRANCH  15  17
ATOM      2  O   UNL     1      -0.746  -2.196  24.380  0.00  0.00    -0.276 OA
ATOM      7  N   UNL     1      -0.268  -0.015  23.733  0.00  0.00    -0.311 N 
ATOM     17  C   UNL     1      -0.846  -0.982  24.543  0.00  0.00    +0.214 C 
ATOM     36  H   UNL     1      -0.400   0.968  23.951  0.00  0.00    +0.149 HD
BRANCH   7  20
ATOM     20  C   UNL     1       0.536  -0.332  22.576  0.00  0.00    +0.139 C 
BRANCH  20  22
ATOM      4  O   UNL     1       5.021  -1.753  24.099  0.00  0.00    -0.453 OA
ATOM      5  O   UNL     1       6.007   0.380  23.565  0.00  0.00    -0.453 OA
ATOM     22  C   UNL     1       1.999  -0.106  22.830  0.00  0.00    -0.027 A 
ATOM     23  C   UNL     1       2.775  -1.134  23.369  0.00  0.00    +0.054 A 
ATOM     24  C   UNL     1       2.574   1.139  22.519  0.00  0.00    +0.009 A 
ATOM     25  C   UNL     1       4.115  -0.879  23.582  0.00  0.00    +0.167 A 
ATOM     26  C   UNL     1       4.678   0.339  23.279  0.00  0.00    +0.166 A 
ATOM     27  C   UNL     1       3.932   1.370  22.744  0.00  0.00    +0.050 A 
ATOM     29  C   UNL     1       6.218  -0.949  24.085  0.00  0.00    +0.466 C 
ENDBRANCH  20  22
ENDBRANCH   7  20
ENDBRANCH  15  17
ENDBRANCH   9  15
TORSDOF 9
ENDMDL
MODEL 2
REMARK VINA RESULT:      -1.1      1.425      2.219
REMARK  Name = 26743118
REMARK  9 active torsions:
REMARK  status: ('A' for Active; 'I' for Inactive)
REMARK    1  A    between atoms: S_1  and  C_21
REMARK    2  A    between atoms: S_1  and  C_28
REMARK    3  A    between atoms: N_7  and  C_20
REMARK    4  A    between atoms: C_9  and  C_15
REMARK    5  A    between atoms: C_10  and  C_14
REMARK    6  A    between atoms: C_14  and  C_16
REMARK    7  A    between atoms: C_15  and  C_17
REMARK    8  A    between atoms: C_19  and  C_21
REMARK    9  A    between atoms: C_20  and  C_22
REMARK                            x       y       z     vdW  Elec       q    Type
REMARK                         _______ _______ _______ _____ _____    ______ ____
ROOT
ATOM      6  N   UNL     1      -2.758  -3.199  25.030  0.00  0.00    -0.316 NA
ATOM      9  C   UNL     1      -2.728  -0.268  24.694  0.00  0.00    +0.004 C 
ATOM     10  C   UNL     1      -4.012  -1.056  25.049  0.00  0.00    +0.012 C 
ATOM     11  C   UNL     1      -1.501  -1.076  25.148  0.00  0.00    +0.019 C 
ATOM     12  C   UNL     1      -3.948  -2.505  24.538  0.00  0.00    +0.085 C 
ATOM     13  C   UNL     1      -1.528  -2.515  24.635  0.00  0.00    +0.081 C 
ATOM     35  H   UNL     1      -2.747  -4.151  24.665  0.00  0.00    +0.122 HD
ENDROOT
BRANCH  10  14
ATOM     14  C   UNL     1      -5.290  -0.372  24.564  0.00  0.00    +0.064 C 
BRANCH  14  16
ATOM      3  O   UNL     1      -5.895   2.685  26.366  0.00  0.00    -0.359 OA
ATOM      8  N   UNL     1      -6.002   1.309  26.209  0.00  0.00    -0.083 NA
ATOM     16  C   UNL     1      -5.375   1.042  25.059  0.00  0.00    +0.084 A 
ATOM     18  C   UNL     1      -4.858   2.200  24.453  0.00  0.00    +0.071 A 
ATOM     19  C   UNL     1      -5.213   3.205  25.314  0.00  0.00    +0.148 A 
BRANCH  19  21
ATOM     21  C   UNL     1      -5.008   4.658  25.320  0.00  0.00    +0.151 C 
BRANCH  21   1
ATOM      1  S   UNL     1      -3.847   5.217  26.616  0.00  0.00    -0.117 S 
BRANCH   1  28
ATOM     28  C   UNL     1      -2.310   4.530  26.017  0.00  0.00    +0.008 A 
ATOM     30  C   UNL     1      -1.883   3.281  26.466  0.00  0.00    +0.015 A 
ATOM     31  C   UNL     1      -1.537   5.244  25.101  0.00  0.00    +0.015 A 
ATOM     32  C   UNL     1      -0.682   2.745  25.999  0.00  0.00    +0.001 A 
ATOM     33  C   UNL     1      -0.337   4.708  24.634  0.00  0.00    +0.001 A 
ATOM     34  C   UNL     1       0.090   3.458  25.083  0.00  0.00    +0.000 A 
ENDBRANCH   1  28
ENDBRANCH  21   1
ENDBRANCH  19  21
ENDBRANCH  14  16
ENDBRANCH  10  14
BRANCH   9  15
ATOM     15  C   UNL     1      -2.617   0.106  23.211  0.00  0.00    +0.099 C 
BRANCH  15  17
ATOM      2  O   UNL     1      -1.813   2.333  22.716  0.00  0.00    -0.276 OA
ATOM      7  N   UNL     1      -0.283   0.615  23.047  0.00  0.00    -0.311 N 
ATOM     17  C   UNL     1      -1.558   1.157  22.962  0.00  0.00    +0.214 C 
ATOM     36  H   UNL     1      -0.168  -0.373  23.249  0.00  0.00    +0.149 HD
BRANCH   7  20
ATOM     20  C   UNL     1       0.919   1.392  22.851  0.00  0.00    +0.139 C 
BRANCH  20  22
ATOM      4  O   UNL     1       5.807   0.863  23.386  0.00  0.00    -0.453 OA
ATOM      5  O   UNL     1       5.619  -1.494  23.849  0.00  0.00    -0.453 OA
ATOM     22  C   UNL     1       2.158   0.588  23.121  0.00  0.00    -0.027 A 
ATOM     23  C   UNL     1       3.407   1.212  23.105  0.00  0.00    +0.054 A 
ATOM     24  C   UNL     1       2.049  -0.788  23.391  0.00  0.00    +0.009 A 
ATOM     25  C   UNL     1       4.517   0.432  23.361  0.00  0.00    +0.167 A 
ATOM     26  C   UNL     1       4.410  -0.914  23.625  0.00  0.00    +0.166 A 
ATOM     27  C   UNL     1       3.188  -1.555  23.647  0.00  0.00    +0.050 A 
ATOM     29  C   UNL     1       6.500  -0.362  23.696  0.00  0.00    +0.466 C 
ENDBRANCH  20  22
ENDBRANCH   7  20
ENDBRANCH  15  17
ENDBRANCH   9  15
TORSDOF 9
ENDMDL
MODEL 3
REMARK VINA RESULT:      -0.5      2.649      6.393
REMARK  Name = 26743118
REMARK  9 active torsions:
REMARK  status: ('A' for Active; 'I' for Inactive)
REMARK    1  A    between atoms: S_1  and  C_21
REMARK    2  A    between atoms: S_1  and  C_28
REMARK    3  A    between atoms: N_7  and  C_20
REMARK    4  A    between atoms: C_9  and  C_15
REMARK    5  A    between atoms: C_10  and  C_14
REMARK    6  A    between atoms: C_14  and  C_16
REMARK    7  A    between atoms: C_15  and  C_17
REMARK    8  A    between atoms: C_19  and  C_21
REMARK    9  A    between atoms: C_20  and  C_22
REMARK                            x       y       z     vdW  Elec       q    Type
REMARK                         _______ _______ _______ _____ _____    ______ ____
ROOT
ATOM      6  N   UNL     1      -3.573  -3.972  24.819  0.00  0.00    -0.316 NA
ATOM      9  C   UNL     1      -3.828  -1.161  23.962  0.00  0.00    +0.004 C 
ATOM     10  C   UNL     1      -2.760  -1.632  24.978  0.00  0.00    +0.012 C 
ATOM     11  C   UNL     1      -4.241  -2.351  23.080  0.00  0.00    +0.019 C 
ATOM     12  C   UNL     1      -3.213  -2.890  25.736  0.00  0.00    +0.085 C 
ATOM     13  C   UNL     1      -4.639  -3.575  23.902  0.00  0.00    +0.081 C 
ATOM     35  H   UNL     1      -3.874  -4.784  25.356  0.00  0.00    +0.122 HD
ENDROOT
BRANCH  10  14
ATOM     14  C   UNL     1      -2.341  -0.536  25.959  0.00  0.00    +0.064 C 
BRANCH  14  16
ATOM      3  O   UNL     1       0.322   1.810  25.360  0.00  0.00    -0.359 OA
ATOM      8  N   UNL     1      -0.705   1.288  26.136  0.00  0.00    -0.083 NA
ATOM     16  C   UNL     1      -1.199   0.274  25.419  0.00  0.00    +0.084 A 
ATOM     18  C   UNL     1      -0.530   0.112  24.194  0.00  0.00    +0.071 A 
ATOM     19  C   UNL     1       0.416   1.102  24.205  0.00  0.00    +0.148 A 
BRANCH  19  21
ATOM     21  C   UNL     1       1.458   1.524  23.261  0.00  0.00    +0.151 C 
BRANCH  21   1
ATOM      1  S   UNL     1       2.098   0.155  22.234  0.00  0.00    -0.117 S 
BRANCH   1  28
ATOM     28  C   UNL     1       3.674  -0.152  23.018  0.00  0.00    +0.008 A 
ATOM     30  C   UNL     1       4.612   0.875  23.123  0.00  0.00    +0.015 A 
ATOM     31  C   UNL     1       3.967  -1.419  23.523  0.00  0.00    +0.015 A 
ATOM     32  C   UNL     1       5.843   0.635  23.734  0.00  0.00    +0.001 A 
ATOM     33  C   UNL     1       5.197  -1.658  24.134  0.00  0.00    +0.001 A 
ATOM     34  C   UNL     1       6.136  -0.631  24.240  0.00  0.00    +0.000 A 
ENDBRANCH   1  28
ENDBRANCH  21   1
ENDBRANCH  19  21
ENDBRANCH  14  16
ENDBRANCH  10  14
BRANCH   9  15
ATOM     15  C   UNL     1      -5.057  -0.507  24.607  0.00  0.00    +0.099 C 
BRANCH  15  17
ATOM      2  O   UNL     1      -4.648   1.610  23.511  0.00  0.00    -0.276 OA
ATOM      7  N   UNL     1      -5.452   1.591  25.692  0.00  0.00    -0.311 N 
ATOM     17  C   UNL     1      -5.019   1.002  24.512  0.00  0.00    +0.214 C 
ATOM     36  H   UNL     1      -5.734   1.006  26.473  0.00  0.00    +0.149 HD
BRANCH   7  20
ATOM     20  C   UNL     1      -5.517   3.022  25.883  0.00  0.00    +0.139 C 
BRANCH  20  22
ATOM      4  O   UNL     1      -1.301   3.751  23.405  0.00  0.00    -0.453 OA
ATOM      5  O   UNL     1      -0.524   5.401  24.980  0.00  0.00    -0.453 OA
ATOM     22  C   UNL     1      -4.184   3.678  25.672  0.00  0.00    -0.027 A 
ATOM     23  C   UNL     1      -3.407   3.329  24.565  0.00  0.00    +0.054 A 
ATOM     24  C   UNL     1      -3.730   4.640  26.592  0.00  0.00    +0.009 A 
ATOM     25  C   UNL     1      -2.189   3.962  24.414  0.00  0.00    +0.167 A 
ATOM     26  C   UNL     1      -1.745   4.903  25.313  0.00  0.00    +0.166 A 
ATOM     27  C   UNL     1      -2.494   5.265  26.414  0.00  0.00    +0.050 A 
ATOM     29  C   UNL     1      -0.248   4.667  23.769  0.00  0.00    +0.466 C 
ENDBRANCH  20  22
ENDBRANCH   7  20
ENDBRANCH  15  17
ENDBRANCH   9  15
TORSDOF 9
ENDMDL
MODEL 4
REMARK VINA RESULT:       0.6      2.531      7.363
REMARK  Name = 26743118
REMARK  9 active torsions:
REMARK  status: ('A' for Active; 'I' for Inactive)
REMARK    1  A    between atoms: S_1  and  C_21
REMARK    2  A    between atoms: S_1  and  C_28
REMARK    3  A    between atoms: N_7  and  C_20
REMARK    4  A    between atoms: C_9  and  C_15
REMARK    5  A    between atoms: C_10  and  C_14
REMARK    6  A    between atoms: C_14  and  C_16
REMARK    7  A    between atoms: C_15  and  C_17
REMARK    8  A    between atoms: C_19  and  C_21
REMARK    9  A    between atoms: C_20  and  C_22
REMARK                            x       y       z     vdW  Elec       q    Type
REMARK                         _______ _______ _______ _____ _____    ______ ____
ROOT
ATOM      6  N   UNL     1       3.903   0.071  21.473  0.00  0.00    -0.316 NA
ATOM      9  C   UNL     1       2.141   0.898  23.690  0.00  0.00    +0.004 C 
ATOM     10  C   UNL     1       1.777  -0.247  22.715  0.00  0.00    +0.012 C 
ATOM     11  C   UNL     1       3.670   1.062  23.723  0.00  0.00    +0.019 C 
ATOM     12  C   UNL     1       2.451  -0.063  21.346  0.00  0.00    +0.085 C 
ATOM     13  C   UNL     1       4.272   1.199  22.325  0.00  0.00    +0.081 C 
ATOM     35  H   UNL     1       4.312   0.198  20.548  0.00  0.00    +0.122 HD
ENDROOT
BRANCH  10  14
ATOM     14  C   UNL     1       0.269  -0.438  22.549  0.00  0.00    +0.064 C 
BRANCH  14  16
ATOM      3  O   UNL     1      -1.855   0.325  25.353  0.00  0.00    -0.359 OA
ATOM      8  N   UNL     1      -1.425   0.524  24.047  0.00  0.00    -0.083 NA
ATOM     16  C   UNL     1      -0.441  -0.363  23.869  0.00  0.00    +0.084 A 
ATOM     18  C   UNL     1      -0.208  -1.140  25.018  0.00  0.00    +0.071 A 
ATOM     19  C   UNL     1      -1.123  -0.667  25.921  0.00  0.00    +0.148 A 
BRANCH  19  21
ATOM     21  C   UNL     1      -1.449  -1.007  27.311  0.00  0.00    +0.151 C 
BRANCH  21   1
ATOM      1  S   UNL     1      -3.119  -1.722  27.507  0.00  0.00    -0.117 S 
BRANCH   1  28
ATOM     28  C   UNL     1      -3.608  -1.919  25.799  0.00  0.00    +0.008 A 
ATOM     30  C   UNL     1      -3.321  -3.105  25.125  0.00  0.00    +0.015 A 
ATOM     31  C   UNL     1      -4.275  -0.885  25.141  0.00  0.00    +0.015 A 
ATOM     32  C   UNL     1      -3.702  -3.259  23.791  0.00  0.00    +0.001 A 
ATOM     33  C   UNL     1      -4.656  -1.039  23.808  0.00  0.00    +0.001 A 
ATOM     34  C   UNL     1      -4.370  -2.227  23.133  0.00  0.00    +0.000 A 
ENDBRANCH   1  28
ENDBRANCH  21   1
ENDBRANCH  19  21
ENDBRANCH  14  16
ENDBRANCH  10  14
BRANCH   9  15
ATOM     15  C   UNL     1       1.455   2.231  23.369  0.00  0.00    +0.099 C 
BRANCH  15  17
ATOM      2  O   UNL     1       0.670   2.291  25.656  0.00  0.00    -0.276 OA
ATOM      7  N   UNL     1      -0.308   3.689  24.077  0.00  0.00    -0.311 N 
ATOM     17  C   UNL     1       0.584   2.717  24.507  0.00  0.00    +0.214 C 
ATOM     36  H   UNL     1      -0.310   3.975  23.103  0.00  0.00    +0.149 HD
BRANCH   7  20
ATOM     20  C   UNL     1      -1.262   4.328  24.954  0.00  0.00    +0.139 C 
BRANCH  20  22
ATOM      4  O   UNL     1      -5.556   2.814  26.883  0.00  0.00    -0.453 OA
ATOM      5  O   UNL     1      -6.346   1.977  24.766  0.00  0.00    -0.453 OA
ATOM     22  C   UNL     1      -2.618   3.691  24.868  0.00  0.00    -0.027 A 
ATOM     23  C   UNL     1      -3.411   3.591  26.013  0.00  0.00    +0.054 A 
ATOM     24  C   UNL     1      -3.079   3.202  23.633  0.00  0.00    +0.009 A 
ATOM     25  C   UNL     1      -4.652   2.999  25.883  0.00  0.00    +0.167 A 
ATOM     26  C   UNL     1      -5.103   2.520  24.675  0.00  0.00    +0.166 A 
ATOM     27  C   UNL     1      -4.339   2.608  23.529  0.00  0.00    +0.050 A 
ATOM     29  C   UNL     1      -6.627   2.166  26.168  0.00  0.00    +0.466 C 
ENDBRANCH  20  22
ENDBRANCH   7  20
ENDBRANCH  15  17
ENDBRANCH   9  15
TORSDOF 9
ENDMDL
