MODEL 1
REMARK VINA RESULT:      -3.6      0.000      0.000
REMARK  Name = 45783544
REMARK  9 active torsions:
REMARK  status: ('A' for Active; 'I' for Inactive)
REMARK    1  A    between atoms: O_3  and  C_26
REMARK    2  A    between atoms: O_3  and  C_27
REMARK    3  A    between atoms: O_4  and  C_28
REMARK    4  A    between atoms: O_4  and  C_29
REMARK    5  A    between atoms: N_5  and  C_13
REMARK    6  A    between atoms: C_9  and  C_14
REMARK    7  A    between atoms: C_13  and  C_15
REMARK    8  A    between atoms: C_18  and  C_21
REMARK    9  A    between atoms: C_27  and  C_28
REMARK                            x       y       z     vdW  Elec       q    Type
REMARK                         _______ _______ _______ _____ _____    ______ ____
ROOT
ATOM      2  O   UNL     1      16.323  -5.996  30.756  0.00  0.00    -0.336 OA
ATOM      6  N   UNL     1      15.914  -7.307  28.987  0.00  0.00    -0.190 NA
ATOM      7  N   UNL     1      16.721  -5.265  29.630  0.00  0.00    -0.056 NA
ATOM     14  C   UNL     1      15.860  -7.185  30.289  0.00  0.00    +0.245 A 
ATOM     18  C   UNL     1      16.449  -6.104  28.626  0.00  0.00    +0.204 A 
ENDROOT
BRANCH  18  21
ATOM      8  N   UNL     1      16.894  -6.499  24.956  0.00  0.00    -0.221 NA
ATOM     21  C   UNL     1      16.701  -5.773  27.253  0.00  0.00    +0.041 A 
ATOM     23  C   UNL     1      16.989  -4.467  26.873  0.00  0.00    +0.018 A 
ATOM     24  C   UNL     1      16.665  -6.743  26.265  0.00  0.00    +0.126 A 
ATOM     25  C   UNL     1      17.230  -4.176  25.535  0.00  0.00    +0.068 A 
ATOM     26  C   UNL     1      17.171  -5.218  24.623  0.00  0.00    +0.215 A 
BRANCH  26   3
ATOM      3  O   UNL     1      17.404  -4.956  23.299  0.00  0.00    -0.474 OA
BRANCH   3  27
ATOM     27  C   UNL     1      17.401  -3.589  22.907  0.00  0.00    +0.258 C 
BRANCH  27  28
ATOM     28  C   UNL     1      15.966  -3.118  22.768  0.00  0.00    +0.200 C 
BRANCH  28   4
ATOM      4  O   UNL     1      15.952  -1.700  22.655  0.00  0.00    -0.380 OA
ATOM     29  C   UNL     1      17.133  -1.123  23.192  0.00  0.00    +0.194 C 
ENDBRANCH  28   4
ENDBRANCH  27  28
ENDBRANCH   3  27
ENDBRANCH  26   3
ENDBRANCH  18  21
BRANCH  14   9
ATOM      5  N   UNL     1      14.828  -9.408  30.723  0.00  0.00    -0.287 NA
ATOM      9  C   UNL     1      15.360  -8.170  31.325  0.00  0.00    +0.146 C 
ATOM     10  C   UNL     1      16.472  -8.645  32.279  0.00  0.00    +0.030 C 
ATOM     11  C   UNL     1      16.450 -10.164  32.190  0.00  0.00    +0.017 C 
ATOM     12  C   UNL     1      15.049 -10.473  31.701  0.00  0.00    +0.085 C 
BRANCH   5  13
ATOM     13  C   UNL     1      13.428  -9.303  30.334  0.00  0.00    +0.120 C 
BRANCH  13  15
ATOM      1 CL   UNL     1      10.735  -4.561  32.873  0.00  0.00    -0.084 Cl
ATOM     15  C   UNL     1      12.756  -8.117  30.970  0.00  0.00    -0.033 A 
ATOM     16  C   UNL     1      12.947  -6.839  30.442  0.00  0.00    +0.006 A 
ATOM     17  C   UNL     1      11.938  -8.294  32.087  0.00  0.00    +0.006 A 
ATOM     19  C   UNL     1      12.324  -5.741  31.032  0.00  0.00    +0.020 A 
ATOM     20  C   UNL     1      11.315  -7.194  32.676  0.00  0.00    +0.020 A 
ATOM     22  C   UNL     1      11.507  -5.918  32.149  0.00  0.00    +0.041 A 
ENDBRANCH  13  15
ENDBRANCH   5  13
ENDBRANCH  14   9
TORSDOF 8
ENDMDL
MODEL 2
REMARK VINA RESULT:      -3.3     17.126     19.089
REMARK  Name = 45783544
REMARK  9 active torsions:
REMARK  status: ('A' for Active; 'I' for Inactive)
REMARK    1  A    between atoms: O_3  and  C_26
REMARK    2  A    between atoms: O_3  and  C_27
REMARK    3  A    between atoms: O_4  and  C_28
REMARK    4  A    between atoms: O_4  and  C_29
REMARK    5  A    between atoms: N_5  and  C_13
REMARK    6  A    between atoms: C_9  and  C_14
REMARK    7  A    between atoms: C_13  and  C_15
REMARK    8  A    between atoms: C_18  and  C_21
REMARK    9  A    between atoms: C_27  and  C_28
REMARK                            x       y       z     vdW  Elec       q    Type
REMARK                         _______ _______ _______ _____ _____    ______ ____
ROOT
ATOM      2  O   UNL     1      -2.429   2.914  25.671  0.00  0.00    -0.336 OA
ATOM      6  N   UNL     1      -2.234   1.854  23.707  0.00  0.00    -0.190 NA
ATOM      7  N   UNL     1      -1.080   2.557  25.553  0.00  0.00    -0.056 NA
ATOM     14  C   UNL     1      -3.037   2.462  24.542  0.00  0.00    +0.245 A 
ATOM     18  C   UNL     1      -1.044   1.936  24.371  0.00  0.00    +0.204 A 
ENDROOT
BRANCH  18  21
ATOM      8  N   UNL     1       2.537   1.605  23.425  0.00  0.00    -0.221 NA
ATOM     21  C   UNL     1       0.163   1.386  23.823  0.00  0.00    +0.041 A 
ATOM     23  C   UNL     1       0.160   0.153  23.180  0.00  0.00    +0.018 A 
ATOM     24  C   UNL     1       1.366   2.066  23.919  0.00  0.00    +0.126 A 
ATOM     25  C   UNL     1       1.346  -0.354  22.660  0.00  0.00    +0.068 A 
ATOM     26  C   UNL     1       2.496   0.403  22.807  0.00  0.00    +0.215 A 
BRANCH  26   3
ATOM      3  O   UNL     1       3.677  -0.075  22.301  0.00  0.00    -0.474 OA
BRANCH   3  27
ATOM     27  C   UNL     1       4.849   0.672  22.599  0.00  0.00    +0.258 C 
BRANCH  27  28
ATOM     28  C   UNL     1       5.867  -0.243  23.253  0.00  0.00    +0.200 C 
BRANCH  28   4
ATOM      4  O   UNL     1       5.276  -0.855  24.393  0.00  0.00    -0.380 OA
ATOM     29  C   UNL     1       4.605  -2.058  24.049  0.00  0.00    +0.194 C 
ENDBRANCH  28   4
ENDBRANCH  27  28
ENDBRANCH   3  27
ENDBRANCH  26   3
ENDBRANCH  18  21
BRANCH  14   9
ATOM      5  N   UNL     1      -5.320   1.944  25.386  0.00  0.00    -0.287 NA
ATOM      9  C   UNL     1      -4.523   2.729  24.424  0.00  0.00    +0.146 C 
ATOM     10  C   UNL     1      -4.889   4.196  24.718  0.00  0.00    +0.030 C 
ATOM     11  C   UNL     1      -5.940   4.131  25.816  0.00  0.00    +0.017 C 
ATOM     12  C   UNL     1      -6.515   2.735  25.678  0.00  0.00    +0.085 C 
BRANCH   5  13
ATOM     13  C   UNL     1      -5.652   0.609  24.905  0.00  0.00    +0.120 C 
BRANCH  13  15
ATOM      1 CL   UNL     1      -0.858  -3.026  24.901  0.00  0.00    -0.084 Cl
ATOM     15  C   UNL     1      -4.453  -0.302  24.905  0.00  0.00    -0.033 A 
ATOM     16  C   UNL     1      -4.158  -1.066  23.775  0.00  0.00    +0.006 A 
ATOM     17  C   UNL     1      -3.636  -0.380  26.033  0.00  0.00    +0.006 A 
ATOM     19  C   UNL     1      -3.047  -1.909  23.775  0.00  0.00    +0.020 A 
ATOM     20  C   UNL     1      -2.525  -1.223  26.032  0.00  0.00    +0.020 A 
ATOM     22  C   UNL     1      -2.231  -1.988  24.904  0.00  0.00    +0.041 A 
ENDBRANCH  13  15
ENDBRANCH   5  13
ENDBRANCH  14   9
TORSDOF 8
ENDMDL
MODEL 3
REMARK VINA RESULT:      -2.3      2.892      3.766
REMARK  Name = 45783544
REMARK  9 active torsions:
REMARK  status: ('A' for Active; 'I' for Inactive)
REMARK    1  A    between atoms: O_3  and  C_26
REMARK    2  A    between atoms: O_3  and  C_27
REMARK    3  A    between atoms: O_4  and  C_28
REMARK    4  A    between atoms: O_4  and  C_29
REMARK    5  A    between atoms: N_5  and  C_13
REMARK    6  A    between atoms: C_9  and  C_14
REMARK    7  A    between atoms: C_13  and  C_15
REMARK    8  A    between atoms: C_18  and  C_21
REMARK    9  A    between atoms: C_27  and  C_28
REMARK                            x       y       z     vdW  Elec       q    Type
REMARK                         _______ _______ _______ _____ _____    ______ ____
ROOT
ATOM      2  O   UNL     1      16.517  -5.088  30.901  0.00  0.00    -0.336 OA
ATOM      6  N   UNL     1      16.305  -6.463  29.144  0.00  0.00    -0.190 NA
ATOM      7  N   UNL     1      16.800  -4.317  29.767  0.00  0.00    -0.056 NA
ATOM     14  C   UNL     1      16.236  -6.338  30.445  0.00  0.00    +0.245 A 
ATOM     18  C   UNL     1      16.655  -5.197  28.772  0.00  0.00    +0.204 A 
ENDROOT
BRANCH  18  21
ATOM      8  N   UNL     1      16.900  -5.525  25.076  0.00  0.00    -0.221 NA
ATOM     21  C   UNL     1      16.853  -4.845  27.395  0.00  0.00    +0.041 A 
ATOM     23  C   UNL     1      17.178  -3.543  27.029  0.00  0.00    +0.018 A 
ATOM     24  C   UNL     1      16.726  -5.789  26.390  0.00  0.00    +0.126 A 
ATOM     25  C   UNL     1      17.364  -3.232  25.686  0.00  0.00    +0.068 A 
ATOM     26  C   UNL     1      17.215  -4.249  24.757  0.00  0.00    +0.215 A 
BRANCH  26   3
ATOM      3  O   UNL     1      17.394  -3.967  23.428  0.00  0.00    -0.474 OA
BRANCH   3  27
ATOM     27  C   UNL     1      16.236  -3.593  22.692  0.00  0.00    +0.258 C 
BRANCH  27  28
ATOM     28  C   UNL     1      15.561  -2.428  23.391  0.00  0.00    +0.200 C 
BRANCH  28   4
ATOM      4  O   UNL     1      16.097  -1.211  22.887  0.00  0.00    -0.380 OA
ATOM     29  C   UNL     1      17.183  -0.752  23.679  0.00  0.00    +0.194 C 
ENDBRANCH  28   4
ENDBRANCH  27  28
ENDBRANCH   3  27
ENDBRANCH  26   3
ENDBRANCH  18  21
BRANCH  14   9
ATOM      5  N   UNL     1      16.018  -8.757  30.987  0.00  0.00    -0.287 NA
ATOM      9  C   UNL     1      15.890  -7.376  31.492  0.00  0.00    +0.146 C 
ATOM     10  C   UNL     1      16.822  -7.319  32.716  0.00  0.00    +0.030 C 
ATOM     11  C   UNL     1      17.381  -8.728  32.856  0.00  0.00    +0.017 C 
ATOM     12  C   UNL     1      16.361  -9.590  32.140  0.00  0.00    +0.085 C 
BRANCH   5  13
ATOM     13  C   UNL     1      14.822  -9.233  30.305  0.00  0.00    +0.120 C 
BRANCH  13  15
ATOM      1 CL   UNL     1      15.951 -10.766  24.598  0.00  0.00    -0.084 Cl
ATOM     15  C   UNL     1      15.105  -9.618  28.877  0.00  0.00    -0.033 A 
ATOM     16  C   UNL     1      14.158 -10.337  28.147  0.00  0.00    +0.006 A 
ATOM     17  C   UNL     1      16.314  -9.253  28.284  0.00  0.00    +0.006 A 
ATOM     19  C   UNL     1      14.421 -10.693  26.825  0.00  0.00    +0.020 A 
ATOM     20  C   UNL     1      16.576  -9.610  26.961  0.00  0.00    +0.020 A 
ATOM     22  C   UNL     1      15.631 -10.329  26.232  0.00  0.00    +0.041 A 
ENDBRANCH  13  15
ENDBRANCH   5  13
ENDBRANCH  14   9
TORSDOF 8
ENDMDL
MODEL 4
REMARK VINA RESULT:      -0.7     16.705     18.499
REMARK  Name = 45783544
REMARK  9 active torsions:
REMARK  status: ('A' for Active; 'I' for Inactive)
REMARK    1  A    between atoms: O_3  and  C_26
REMARK    2  A    between atoms: O_3  and  C_27
REMARK    3  A    between atoms: O_4  and  C_28
REMARK    4  A    between atoms: O_4  and  C_29
REMARK    5  A    between atoms: N_5  and  C_13
REMARK    6  A    between atoms: C_9  and  C_14
REMARK    7  A    between atoms: C_13  and  C_15
REMARK    8  A    between atoms: C_18  and  C_21
REMARK    9  A    between atoms: C_27  and  C_28
REMARK                            x       y       z     vdW  Elec       q    Type
REMARK                         _______ _______ _______ _____ _____    ______ ____
ROOT
ATOM      2  O   UNL     1      -1.826   0.834  25.987  0.00  0.00    -0.336 OA
ATOM      6  N   UNL     1      -1.279  -0.367  24.177  0.00  0.00    -0.190 NA
ATOM      7  N   UNL     1      -0.534   1.237  25.628  0.00  0.00    -0.056 NA
ATOM     14  C   UNL     1      -2.190  -0.112  25.082  0.00  0.00    +0.245 A 
ATOM     18  C   UNL     1      -0.281   0.485  24.553  0.00  0.00    +0.204 A 
ENDROOT
BRANCH  18  21
ATOM      8  N   UNL     1       2.521  -0.469  22.302  0.00  0.00    -0.221 NA
ATOM     21  C   UNL     1       0.957   0.559  23.833  0.00  0.00    +0.041 A 
ATOM     23  C   UNL     1       1.784   1.671  23.943  0.00  0.00    +0.018 A 
ATOM     24  C   UNL     1       1.367  -0.474  23.007  0.00  0.00    +0.126 A 
ATOM     25  C   UNL     1       2.979   1.715  23.233  0.00  0.00    +0.068 A 
ATOM     26  C   UNL     1       3.299   0.629  22.434  0.00  0.00    +0.215 A 
BRANCH  26   3
ATOM      3  O   UNL     1       4.472   0.648  21.725  0.00  0.00    -0.474 OA
BRANCH   3  27
ATOM     27  C   UNL     1       5.598   0.030  22.336  0.00  0.00    +0.258 C 
BRANCH  27  28
ATOM     28  C   UNL     1       5.667   0.456  23.790  0.00  0.00    +0.200 C 
BRANCH  28   4
ATOM      4  O   UNL     1       5.660  -0.703  24.614  0.00  0.00    -0.380 OA
ATOM     29  C   UNL     1       5.003  -1.790  23.979  0.00  0.00    +0.194 C 
ENDBRANCH  28   4
ENDBRANCH  27  28
ENDBRANCH   3  27
ENDBRANCH  26   3
ENDBRANCH  18  21
BRANCH  14   9
ATOM      5  N   UNL     1      -4.566  -0.119  24.343  0.00  0.00    -0.287 NA
ATOM      9  C   UNL     1      -3.568  -0.716  25.253  0.00  0.00    +0.146 C 
ATOM     10  C   UNL     1      -3.601  -2.222  24.936  0.00  0.00    +0.030 C 
ATOM     11  C   UNL     1      -4.687  -2.383  23.882  0.00  0.00    +0.017 C 
ATOM     12  C   UNL     1      -5.560  -1.160  24.079  0.00  0.00    +0.085 C 
BRANCH   5  13
ATOM     13  C   UNL     1      -5.173   1.095  24.872  0.00  0.00    +0.120 C 
BRANCH  13  15
ATOM      1 CL   UNL     1      -1.295   5.694  24.954  0.00  0.00    -0.084 Cl
ATOM     15  C   UNL     1      -4.202   2.245  24.893  0.00  0.00    -0.033 A 
ATOM     16  C   UNL     1      -3.434   2.531  23.764  0.00  0.00    +0.006 A 
ATOM     17  C   UNL     1      -4.071   3.026  26.042  0.00  0.00    +0.006 A 
ATOM     19  C   UNL     1      -2.534   3.596  23.784  0.00  0.00    +0.020 A 
ATOM     20  C   UNL     1      -3.170   4.092  26.061  0.00  0.00    +0.020 A 
ATOM     22  C   UNL     1      -2.403   4.377  24.932  0.00  0.00    +0.041 A 
ENDBRANCH  13  15
ENDBRANCH   5  13
ENDBRANCH  14   9
TORSDOF 8
ENDMDL
