MODEL 1
REMARK VINA RESULT:      -1.7      0.000      0.000
REMARK  Name = 51136652
REMARK  12 active torsions:
REMARK  status: ('A' for Active; 'I' for Inactive)
REMARK    1  A    between atoms: O_2  and  C_16
REMARK    2  A    between atoms: O_4  and  C_27
REMARK    3  A    between atoms: O_4  and  C_30
REMARK    4  A    between atoms: C_7  and  C_12
REMARK    5  A    between atoms: C_8  and  C_13
REMARK    6  A    between atoms: C_12  and  C_14
REMARK    7  A    between atoms: C_13  and  C_16
REMARK    8  A    between atoms: C_15  and  C_18
REMARK    9  A    between atoms: C_18  and  C_22
REMARK   10  A    between atoms: C_22  and  C_24
REMARK   11  A    between atoms: C_24  and  C_28
REMARK   12  A    between atoms: C_28  and  C_29
REMARK                            x       y       z     vdW  Elec       q    Type
REMARK                         _______ _______ _______ _____ _____    ______ ____
ROOT
ATOM      1  O   UNL     1      -0.231   5.307  24.520  0.00  0.00    -0.276 OA
ATOM      5  N   UNL     1      -1.924   4.220  25.681  0.00  0.00    -0.301 N 
ATOM      7  C   UNL     1      -3.811   2.607  25.788  0.00  0.00    +0.016 C 
ATOM      8  C   UNL     1      -4.790   3.808  25.767  0.00  0.00    +0.006 C 
ATOM      9  C   UNL     1      -4.170   5.032  25.070  0.00  0.00    +0.023 C 
ATOM     10  C   UNL     1      -2.459   3.044  26.380  0.00  0.00    +0.112 C 
ATOM     11  C   UNL     1      -2.810   5.382  25.672  0.00  0.00    +0.108 C 
ATOM     15  C   UNL     1      -0.668   4.298  25.079  0.00  0.00    +0.216 C 
ENDROOT
BRANCH   7  12
ATOM     12  C   UNL     1      -3.605   1.948  24.418  0.00  0.00    +0.061 C 
BRANCH  12  14
ATOM      6  N   UNL     1      -3.785  -0.321  25.185  0.00  0.00    -0.287 NA
ATOM     14  C   UNL     1      -3.042   0.558  24.597  0.00  0.00    +0.044 C 
ATOM     17  C   UNL     1      -1.672   0.272  24.101  0.00  0.00    -0.001 A 
ATOM     19  C   UNL     1      -1.041  -0.869  24.611  0.00  0.00    -0.033 A 
ATOM     20  C   UNL     1      -1.772  -1.705  25.621  0.00  0.00    +0.059 C 
ATOM     21  C   UNL     1      -3.262  -1.686  25.305  0.00  0.00    +0.146 C 
ATOM     23  C   UNL     1      -1.016   1.092  23.181  0.00  0.00    +0.013 A 
ATOM     25  C   UNL     1       0.264  -1.172  24.214  0.00  0.00    +0.050 A 
ATOM     26  C   UNL     1       0.281   0.773  22.779  0.00  0.00    +0.046 A 
ATOM     27  C   UNL     1       0.921  -0.355  23.296  0.00  0.00    +0.120 A 
BRANCH  27   4
ATOM      4  O   UNL     1       2.190  -0.655  22.904  0.00  0.00    -0.495 OA
ATOM     30  C   UNL     1       3.079   0.440  22.689  0.00  0.00    +0.277 C 
ENDBRANCH  27   4
ENDBRANCH  12  14
ENDBRANCH   7  12
BRANCH   8  13
ATOM     13  C   UNL     1      -6.147   3.469  25.150  0.00  0.00    +0.124 C 
BRANCH  13  16
ATOM      3  O   UNL     1      -6.778   1.165  24.664  0.00  0.00    -0.251 OA
ATOM     16  C   UNL     1      -6.564   2.060  25.468  0.00  0.00    +0.305 C 
BRANCH  16   2
ATOM      2  O   UNL     1      -6.674   1.908  26.814  0.00  0.00    -0.481 OA
ATOM     31  H   UNL     1      -5.807   1.712  27.231  0.00  0.00    +0.295 HD
ENDBRANCH  16   2
ENDBRANCH  13  16
ENDBRANCH   8  13
BRANCH  15  18
ATOM     18  C   UNL     1       0.185   3.055  25.129  0.00  0.00    +0.096 C 
BRANCH  18  22
ATOM     22  C   UNL     1       0.044   2.368  26.477  0.00  0.00    +0.009 C 
BRANCH  22  24
ATOM     24  C   UNL     1       1.162   2.746  27.453  0.00  0.00    +0.000 C 
BRANCH  24  28
ATOM     28  C   UNL     1       0.802   2.359  28.887  0.00  0.00    -0.003 C 
ATOM     29  C   UNL     1       2.032   2.313  29.779  0.00  0.00    +0.004 C 
ENDBRANCH  24  28
ENDBRANCH  22  24
ENDBRANCH  18  22
ENDBRANCH  15  18
TORSDOF 10
ENDMDL
MODEL 2
REMARK VINA RESULT:      -0.6      2.296      7.472
REMARK  Name = 51136652
REMARK  12 active torsions:
REMARK  status: ('A' for Active; 'I' for Inactive)
REMARK    1  A    between atoms: O_2  and  C_16
REMARK    2  A    between atoms: O_4  and  C_27
REMARK    3  A    between atoms: O_4  and  C_30
REMARK    4  A    between atoms: C_7  and  C_12
REMARK    5  A    between atoms: C_8  and  C_13
REMARK    6  A    between atoms: C_12  and  C_14
REMARK    7  A    between atoms: C_13  and  C_16
REMARK    8  A    between atoms: C_15  and  C_18
REMARK    9  A    between atoms: C_18  and  C_22
REMARK   10  A    between atoms: C_22  and  C_24
REMARK   11  A    between atoms: C_24  and  C_28
REMARK   12  A    between atoms: C_28  and  C_29
REMARK                            x       y       z     vdW  Elec       q    Type
REMARK                         _______ _______ _______ _____ _____    ______ ____
ROOT
ATOM      1  O   UNL     1      -1.823  -2.513  24.535  0.00  0.00    -0.276 OA
ATOM      5  N   UNL     1      -0.298  -0.824  25.000  0.00  0.00    -0.301 N 
ATOM      7  C   UNL     1       0.696   1.407  24.544  0.00  0.00    +0.016 C 
ATOM      8  C   UNL     1       1.903   0.693  23.883  0.00  0.00    +0.006 C 
ATOM      9  C   UNL     1       1.510  -0.687  23.330  0.00  0.00    +0.023 C 
ATOM     10  C   UNL     1       0.046   0.479  25.586  0.00  0.00    +0.112 C 
ATOM     11  C   UNL     1       0.826  -1.538  24.397  0.00  0.00    +0.108 C 
ATOM     15  C   UNL     1      -1.566  -1.404  25.011  0.00  0.00    +0.216 C 
ENDROOT
BRANCH   7  12
ATOM     12  C   UNL     1      -0.354   1.907  23.545  0.00  0.00    +0.061 C 
BRANCH  12  14
ATOM      6  N   UNL     1      -0.407   4.186  24.302  0.00  0.00    -0.287 NA
ATOM     14  C   UNL     1      -1.082   3.099  24.120  0.00  0.00    +0.044 C 
ATOM     17  C   UNL     1      -2.523   2.966  24.452  0.00  0.00    -0.001 A 
ATOM     19  C   UNL     1      -3.062   3.923  25.320  0.00  0.00    -0.033 A 
ATOM     20  C   UNL     1      -2.161   4.994  25.860  0.00  0.00    +0.059 C 
ATOM     21  C   UNL     1      -1.127   5.361  24.803  0.00  0.00    +0.146 C 
ATOM     23  C   UNL     1      -3.322   1.937  23.949  0.00  0.00    +0.013 A 
ATOM     25  C   UNL     1      -4.403   3.831  25.703  0.00  0.00    +0.050 A 
ATOM     26  C   UNL     1      -4.663   1.861  24.325  0.00  0.00    +0.046 A 
ATOM     27  C   UNL     1      -5.202   2.803  25.203  0.00  0.00    +0.120 A 
BRANCH  27   4
ATOM      4  O   UNL     1      -6.510   2.718  25.571  0.00  0.00    -0.495 OA
ATOM     30  C   UNL     1      -6.830   1.811  26.624  0.00  0.00    +0.277 C 
ENDBRANCH  27   4
ENDBRANCH  12  14
ENDBRANCH   7  12
BRANCH   8  13
ATOM     13  C   UNL     1       2.581   1.533  22.801  0.00  0.00    +0.124 C 
BRANCH  13  16
ATOM      3  O   UNL     1       4.871   0.714  22.963  0.00  0.00    -0.251 OA
ATOM     16  C   UNL     1       3.851   0.892  22.315  0.00  0.00    +0.305 C 
BRANCH  16   2
ATOM      2  O   UNL     1       3.707   0.521  21.015  0.00  0.00    -0.481 OA
ATOM     31  H   UNL     1       2.967  -0.111  20.896  0.00  0.00    +0.295 HD
ENDBRANCH  16   2
ENDBRANCH  13  16
ENDBRANCH   8  13
BRANCH  15  18
ATOM     18  C   UNL     1      -2.672  -0.602  25.649  0.00  0.00    +0.096 C 
BRANCH  18  22
ATOM     22  C   UNL     1      -3.984  -1.367  25.593  0.00  0.00    +0.009 C 
BRANCH  22  24
ATOM     24  C   UNL     1      -4.763  -1.111  24.299  0.00  0.00    +0.000 C 
BRANCH  24  28
ATOM     28  C   UNL     1      -4.518  -2.220  23.276  0.00  0.00    -0.003 C 
ATOM     29  C   UNL     1      -4.324  -3.569  23.951  0.00  0.00    +0.004 C 
ENDBRANCH  24  28
ENDBRANCH  22  24
ENDBRANCH  18  22
ENDBRANCH  15  18
TORSDOF 10
ENDMDL
MODEL 3
REMARK VINA RESULT:      -0.5      2.065      4.267
REMARK  Name = 51136652
REMARK  12 active torsions:
REMARK  status: ('A' for Active; 'I' for Inactive)
REMARK    1  A    between atoms: O_2  and  C_16
REMARK    2  A    between atoms: O_4  and  C_27
REMARK    3  A    between atoms: O_4  and  C_30
REMARK    4  A    between atoms: C_7  and  C_12
REMARK    5  A    between atoms: C_8  and  C_13
REMARK    6  A    between atoms: C_12  and  C_14
REMARK    7  A    between atoms: C_13  and  C_16
REMARK    8  A    between atoms: C_15  and  C_18
REMARK    9  A    between atoms: C_18  and  C_22
REMARK   10  A    between atoms: C_22  and  C_24
REMARK   11  A    between atoms: C_24  and  C_28
REMARK   12  A    between atoms: C_28  and  C_29
REMARK                            x       y       z     vdW  Elec       q    Type
REMARK                         _______ _______ _______ _____ _____    ______ ____
ROOT
ATOM      1  O   UNL     1      -5.939   4.105  25.046  0.00  0.00    -0.276 OA
ATOM      5  N   UNL     1      -5.065   2.038  25.643  0.00  0.00    -0.301 N 
ATOM      7  C   UNL     1      -3.512   0.133  25.273  0.00  0.00    +0.016 C 
ATOM      8  C   UNL     1      -4.709  -0.688  24.729  0.00  0.00    +0.006 C 
ATOM      9  C   UNL     1      -5.802   0.224  24.146  0.00  0.00    +0.023 C 
ATOM     10  C   UNL     1      -4.018   1.207  26.254  0.00  0.00    +0.112 C 
ATOM     11  C   UNL     1      -6.223   1.295  25.149  0.00  0.00    +0.108 C 
ATOM     15  C   UNL     1      -5.033   3.428  25.540  0.00  0.00    +0.216 C 
ENDROOT
BRANCH   7  12
ATOM     12  C   UNL     1      -2.648   0.773  24.180  0.00  0.00    +0.061 C 
BRANCH  12  14
ATOM      6  N   UNL     1      -1.330   1.850  25.875  0.00  0.00    -0.287 NA
ATOM     14  C   UNL     1      -1.320   1.198  24.760  0.00  0.00    +0.044 C 
ATOM     17  C   UNL     1      -0.076   0.855  24.024  0.00  0.00    -0.001 A 
ATOM     19  C   UNL     1       1.076   1.575  24.363  0.00  0.00    -0.033 A 
ATOM     20  C   UNL     1       0.978   2.638  25.417  0.00  0.00    +0.059 C 
ATOM     21  C   UNL     1      -0.038   2.210  26.468  0.00  0.00    +0.146 C 
ATOM     23  C   UNL     1      -0.032  -0.123  23.029  0.00  0.00    +0.013 A 
ATOM     25  C   UNL     1       2.270   1.328  23.679  0.00  0.00    +0.050 A 
ATOM     26  C   UNL     1       1.167  -0.373  22.362  0.00  0.00    +0.046 A 
ATOM     27  C   UNL     1       2.316   0.353  22.685  0.00  0.00    +0.120 A 
BRANCH  27   4
ATOM      4  O   UNL     1       3.481   0.108  22.025  0.00  0.00    -0.495 OA
ATOM     30  C   UNL     1       4.693   0.344  22.740  0.00  0.00    +0.277 C 
ENDBRANCH  27   4
ENDBRANCH  12  14
ENDBRANCH   7  12
BRANCH   8  13
ATOM     13  C   UNL     1      -4.296  -1.751  23.711  0.00  0.00    +0.124 C 
BRANCH  13  16
ATOM      3  O   UNL     1      -2.057  -2.709  23.803  0.00  0.00    -0.251 OA
ATOM     16  C   UNL     1      -3.194  -2.628  24.239  0.00  0.00    +0.305 C 
BRANCH  16   2
ATOM      2  O   UNL     1      -3.648  -3.340  25.304  0.00  0.00    -0.481 OA
ATOM     31  H   UNL     1      -4.575  -3.636  25.177  0.00  0.00    +0.295 HD
ENDBRANCH  16   2
ENDBRANCH  13  16
ENDBRANCH   8  13
BRANCH  15  18
ATOM     18  C   UNL     1      -3.803   4.118  26.070  0.00  0.00    +0.096 C 
BRANCH  18  22
ATOM     22  C   UNL     1      -2.845   4.444  24.936  0.00  0.00    +0.009 C 
BRANCH  22  24
ATOM     24  C   UNL     1      -1.940   5.639  25.251  0.00  0.00    +0.000 C 
BRANCH  24  28
ATOM     28  C   UNL     1      -0.534   5.435  24.686  0.00  0.00    -0.003 C 
ATOM     29  C   UNL     1      -0.552   4.537  23.459  0.00  0.00    +0.004 C 
ENDBRANCH  24  28
ENDBRANCH  22  24
ENDBRANCH  18  22
ENDBRANCH  15  18
TORSDOF 10
ENDMDL
MODEL 4
REMARK VINA RESULT:      -0.3      2.134      7.243
REMARK  Name = 51136652
REMARK  12 active torsions:
REMARK  status: ('A' for Active; 'I' for Inactive)
REMARK    1  A    between atoms: O_2  and  C_16
REMARK    2  A    between atoms: O_4  and  C_27
REMARK    3  A    between atoms: O_4  and  C_30
REMARK    4  A    between atoms: C_7  and  C_12
REMARK    5  A    between atoms: C_8  and  C_13
REMARK    6  A    between atoms: C_12  and  C_14
REMARK    7  A    between atoms: C_13  and  C_16
REMARK    8  A    between atoms: C_15  and  C_18
REMARK    9  A    between atoms: C_18  and  C_22
REMARK   10  A    between atoms: C_22  and  C_24
REMARK   11  A    between atoms: C_24  and  C_28
REMARK   12  A    between atoms: C_28  and  C_29
REMARK                            x       y       z     vdW  Elec       q    Type
REMARK                         _______ _______ _______ _____ _____    ______ ____
ROOT
ATOM      1  O   UNL     1      -3.841  -2.729  24.204  0.00  0.00    -0.276 OA
ATOM      5  N   UNL     1      -1.685  -1.967  24.610  0.00  0.00    -0.301 N 
ATOM      7  C   UNL     1       0.119  -0.278  24.354  0.00  0.00    +0.016 C 
ATOM      8  C   UNL     1       0.796  -1.213  23.319  0.00  0.00    +0.006 C 
ATOM      9  C   UNL     1      -0.229  -2.128  22.628  0.00  0.00    +0.023 C 
ATOM     10  C   UNL     1      -0.734  -1.109  25.329  0.00  0.00    +0.112 C 
ATOM     11  C   UNL     1      -1.074  -2.885  23.650  0.00  0.00    +0.108 C 
ATOM     15  C   UNL     1      -3.066  -1.978  24.802  0.00  0.00    +0.216 C 
ENDROOT
BRANCH   7  12
ATOM     12  C   UNL     1      -0.723   0.839  23.726  0.00  0.00    +0.061 C 
BRANCH  12  14
ATOM      6  N   UNL     1       0.078   2.158  25.565  0.00  0.00    -0.287 NA
ATOM     14  C   UNL     1      -0.865   1.983  24.700  0.00  0.00    +0.044 C 
ATOM     17  C   UNL     1      -2.075   2.842  24.623  0.00  0.00    -0.001 A 
ATOM     19  C   UNL     1      -2.366   3.624  25.748  0.00  0.00    -0.033 A 
ATOM     20  C   UNL     1      -1.462   3.534  26.942  0.00  0.00    +0.059 C 
ATOM     21  C   UNL     1      -0.031   3.306  26.472  0.00  0.00    +0.146 C 
ATOM     23  C   UNL     1      -2.906   2.877  23.503  0.00  0.00    +0.013 A 
ATOM     25  C   UNL     1      -3.512   4.424  25.755  0.00  0.00    +0.050 A 
ATOM     26  C   UNL     1      -4.040   3.690  23.512  0.00  0.00    +0.046 A 
ATOM     27  C   UNL     1      -4.344   4.460  24.637  0.00  0.00    +0.120 A 
BRANCH  27   4
ATOM      4  O   UNL     1      -5.456   5.245  24.641  0.00  0.00    -0.495 OA
ATOM     30  C   UNL     1      -6.333   5.121  25.760  0.00  0.00    +0.277 C 
ENDBRANCH  27   4
ENDBRANCH  12  14
ENDBRANCH   7  12
BRANCH   8  13
ATOM     13  C   UNL     1       1.630  -0.460  22.283  0.00  0.00    +0.124 C 
BRANCH  13  16
ATOM      3  O   UNL     1       3.192   1.291  22.942  0.00  0.00    -0.251 OA
ATOM     16  C   UNL     1       2.883   0.110  22.887  0.00  0.00    +0.305 C 
BRANCH  16   2
ATOM      2  O   UNL     1       3.652  -0.895  23.381  0.00  0.00    -0.481 OA
ATOM     31  H   UNL     1       4.609  -0.697  23.301  0.00  0.00    +0.295 HD
ENDBRANCH  16   2
ENDBRANCH  13  16
ENDBRANCH   8  13
BRANCH  15  18
ATOM     18  C   UNL     1      -3.617  -1.000  25.808  0.00  0.00    +0.096 C 
BRANCH  18  22
ATOM     22  C   UNL     1      -4.018   0.297  25.124  0.00  0.00    +0.009 C 
BRANCH  22  24
ATOM     24  C   UNL     1      -5.455   0.266  24.594  0.00  0.00    +0.000 C 
BRANCH  24  28
ATOM     28  C   UNL     1      -6.217   1.532  24.986  0.00  0.00    -0.003 C 
ATOM     29  C   UNL     1      -6.147   1.784  26.484  0.00  0.00    +0.004 C 
ENDBRANCH  24  28
ENDBRANCH  22  24
ENDBRANCH  18  22
ENDBRANCH  15  18
TORSDOF 10
ENDMDL
MODEL 5
REMARK VINA RESULT:       0.3      2.414      6.426
REMARK  Name = 51136652
REMARK  12 active torsions:
REMARK  status: ('A' for Active; 'I' for Inactive)
REMARK    1  A    between atoms: O_2  and  C_16
REMARK    2  A    between atoms: O_4  and  C_27
REMARK    3  A    between atoms: O_4  and  C_30
REMARK    4  A    between atoms: C_7  and  C_12
REMARK    5  A    between atoms: C_8  and  C_13
REMARK    6  A    between atoms: C_12  and  C_14
REMARK    7  A    between atoms: C_13  and  C_16
REMARK    8  A    between atoms: C_15  and  C_18
REMARK    9  A    between atoms: C_18  and  C_22
REMARK   10  A    between atoms: C_22  and  C_24
REMARK   11  A    between atoms: C_24  and  C_28
REMARK   12  A    between atoms: C_28  and  C_29
REMARK                            x       y       z     vdW  Elec       q    Type
REMARK                         _______ _______ _______ _____ _____    ______ ____
ROOT
ATOM      1  O   UNL     1       3.439  -1.274  23.549  0.00  0.00    -0.276 OA
ATOM      5  N   UNL     1       1.211  -0.730  23.182  0.00  0.00    -0.301 N 
ATOM      7  C   UNL     1      -0.889   0.429  23.828  0.00  0.00    +0.016 C 
ATOM      8  C   UNL     1      -1.448  -0.933  24.313  0.00  0.00    +0.006 C 
ATOM      9  C   UNL     1      -0.319  -1.893  24.725  0.00  0.00    +0.023 C 
ATOM     10  C   UNL     1       0.167   0.201  22.732  0.00  0.00    +0.112 C 
ATOM     11  C   UNL     1       0.719  -2.037  23.614  0.00  0.00    +0.108 C 
ATOM     15  C   UNL     1       2.580  -0.464  23.191  0.00  0.00    +0.216 C 
ENDROOT
BRANCH   7  12
ATOM     12  C   UNL     1      -0.314   1.301  24.951  0.00  0.00    +0.061 C 
BRANCH  12  14
ATOM      6  N   UNL     1       0.094   3.615  24.460  0.00  0.00    -0.287 NA
ATOM     14  C   UNL     1      -0.784   2.726  24.786  0.00  0.00    +0.044 C 
ATOM     17  C   UNL     1      -2.219   3.037  25.011  0.00  0.00    -0.001 A 
ATOM     19  C   UNL     1      -2.546   4.381  25.233  0.00  0.00    -0.033 A 
ATOM     20  C   UNL     1      -1.444   5.399  25.243  0.00  0.00    +0.059 C 
ATOM     21  C   UNL     1      -0.372   4.989  24.240  0.00  0.00    +0.146 C 
ATOM     23  C   UNL     1      -3.211   2.056  25.022  0.00  0.00    +0.013 A 
ATOM     25  C   UNL     1      -3.873   4.735  25.491  0.00  0.00    +0.050 A 
ATOM     26  C   UNL     1      -4.536   2.420  25.265  0.00  0.00    +0.046 A 
ATOM     27  C   UNL     1      -4.866   3.756  25.502  0.00  0.00    +0.120 A 
BRANCH  27   4
ATOM      4  O   UNL     1      -6.159   4.103  25.746  0.00  0.00    -0.495 OA
ATOM     30  C   UNL     1      -6.552   5.431  25.401  0.00  0.00    +0.277 C 
ENDBRANCH  27   4
ENDBRANCH  12  14
ENDBRANCH   7  12
BRANCH   8  13
ATOM     13  C   UNL     1      -2.476  -0.797  25.437  0.00  0.00    +0.124 C 
BRANCH  13  16
ATOM      3  O   UNL     1      -4.753  -1.012  24.594  0.00  0.00    -0.251 OA
ATOM     16  C   UNL     1      -3.759  -1.507  25.104  0.00  0.00    +0.305 C 
BRANCH  16   2
ATOM      2  O   UNL     1      -3.662  -2.815  25.457  0.00  0.00    -0.481 OA
ATOM     31  H   UNL     1      -3.007  -3.294  24.906  0.00  0.00    +0.295 HD
ENDBRANCH  16   2
ENDBRANCH  13  16
ENDBRANCH   8  13
BRANCH  15  18
ATOM     18  C   UNL     1       3.005   0.908  22.733  0.00  0.00    +0.096 C 
BRANCH  18  22
ATOM     22  C   UNL     1       4.522   1.015  22.714  0.00  0.00    +0.009 C 
BRANCH  22  24
ATOM     24  C   UNL     1       5.142   0.860  24.106  0.00  0.00    +0.000 C 
BRANCH  24  28
ATOM     28  C   UNL     1       6.079  -0.346  24.165  0.00  0.00    -0.003 C 
ATOM     29  C   UNL     1       6.744  -0.601  22.822  0.00  0.00    +0.004 C 
ENDBRANCH  24  28
ENDBRANCH  22  24
ENDBRANCH  18  22
ENDBRANCH  15  18
TORSDOF 10
ENDMDL
MODEL 6
REMARK VINA RESULT:       0.7      1.861      2.787
REMARK  Name = 51136652
REMARK  12 active torsions:
REMARK  status: ('A' for Active; 'I' for Inactive)
REMARK    1  A    between atoms: O_2  and  C_16
REMARK    2  A    between atoms: O_4  and  C_27
REMARK    3  A    between atoms: O_4  and  C_30
REMARK    4  A    between atoms: C_7  and  C_12
REMARK    5  A    between atoms: C_8  and  C_13
REMARK    6  A    between atoms: C_12  and  C_14
REMARK    7  A    between atoms: C_13  and  C_16
REMARK    8  A    between atoms: C_15  and  C_18
REMARK    9  A    between atoms: C_18  and  C_22
REMARK   10  A    between atoms: C_22  and  C_24
REMARK   11  A    between atoms: C_24  and  C_28
REMARK   12  A    between atoms: C_28  and  C_29
REMARK                            x       y       z     vdW  Elec       q    Type
REMARK                         _______ _______ _______ _____ _____    ______ ____
ROOT
ATOM      1  O   UNL     1       0.485   4.398  23.586  0.00  0.00    -0.276 OA
ATOM      5  N   UNL     1      -1.153   3.563  25.006  0.00  0.00    -0.301 N 
ATOM      7  C   UNL     1      -3.262   2.315  25.412  0.00  0.00    +0.016 C 
ATOM      8  C   UNL     1      -3.984   3.673  25.607  0.00  0.00    +0.006 C 
ATOM      9  C   UNL     1      -3.276   4.805  24.845  0.00  0.00    +0.023 C 
ATOM     10  C   UNL     1      -1.770   2.462  25.758  0.00  0.00    +0.112 C 
ATOM     11  C   UNL     1      -1.791   4.865  25.195  0.00  0.00    +0.108 C 
ATOM     15  C   UNL     1      -0.030   3.451  24.186  0.00  0.00    +0.216 C 
ENDROOT
BRANCH   7  12
ATOM     12  C   UNL     1      -3.429   1.718  24.009  0.00  0.00    +0.061 C 
BRANCH  12  14
ATOM      6  N   UNL     1      -4.682  -0.328  23.902  0.00  0.00    -0.287 NA
ATOM     14  C   UNL     1      -3.526   0.214  24.100  0.00  0.00    +0.044 C 
ATOM     17  C   UNL     1      -2.301  -0.564  24.417  0.00  0.00    -0.001 A 
ATOM     19  C   UNL     1      -2.487  -1.876  24.871  0.00  0.00    -0.033 A 
ATOM     20  C   UNL     1      -3.886  -2.396  25.019  0.00  0.00    +0.059 C 
ATOM     21  C   UNL     1      -4.764  -1.792  23.930  0.00  0.00    +0.146 C 
ATOM     23  C   UNL     1      -1.016  -0.034  24.292  0.00  0.00    +0.013 A 
ATOM     25  C   UNL     1      -1.377  -2.648  25.224  0.00  0.00    +0.050 A 
ATOM     26  C   UNL     1       0.087  -0.816  24.633  0.00  0.00    +0.046 A 
ATOM     27  C   UNL     1      -0.092  -2.119  25.100  0.00  0.00    +0.120 A 
BRANCH  27   4
ATOM      4  O   UNL     1       0.989  -2.875  25.437  0.00  0.00    -0.495 OA
ATOM     30  C   UNL     1       2.245  -2.497  24.876  0.00  0.00    +0.277 C 
ENDBRANCH  27   4
ENDBRANCH  12  14
ENDBRANCH   7  12
BRANCH   8  13
ATOM     13  C   UNL     1      -5.468   3.624  25.241  0.00  0.00    +0.124 C 
BRANCH  13  16
ATOM      3  O   UNL     1      -6.207   2.164  27.047  0.00  0.00    -0.251 OA
ATOM     16  C   UNL     1      -6.153   2.436  25.858  0.00  0.00    +0.305 C 
BRANCH  16   2
ATOM      2  O   UNL     1      -6.725   1.682  24.883  0.00  0.00    -0.481 OA
ATOM     31  H   UNL     1      -7.705   1.720  24.919  0.00  0.00    +0.295 HD
ENDBRANCH  16   2
ENDBRANCH  13  16
ENDBRANCH   8  13
BRANCH  15  18
ATOM     18  C   UNL     1       0.567   2.074  24.041  0.00  0.00    +0.096 C 
BRANCH  18  22
ATOM     22  C   UNL     1       1.860   2.137  23.245  0.00  0.00    +0.009 C 
BRANCH  22  24
ATOM     24  C   UNL     1       2.567   0.781  23.157  0.00  0.00    +0.000 C 
BRANCH  24  28
ATOM     28  C   UNL     1       4.012   0.938  22.685  0.00  0.00    -0.003 C 
ATOM     29  C   UNL     1       4.952   0.020  23.450  0.00  0.00    +0.004 C 
ENDBRANCH  24  28
ENDBRANCH  22  24
ENDBRANCH  18  22
ENDBRANCH  15  18
TORSDOF 10
ENDMDL
MODEL 7
REMARK VINA RESULT:       1.1      1.727      4.872
REMARK  Name = 51136652
REMARK  12 active torsions:
REMARK  status: ('A' for Active; 'I' for Inactive)
REMARK    1  A    between atoms: O_2  and  C_16
REMARK    2  A    between atoms: O_4  and  C_27
REMARK    3  A    between atoms: O_4  and  C_30
REMARK    4  A    between atoms: C_7  and  C_12
REMARK    5  A    between atoms: C_8  and  C_13
REMARK    6  A    between atoms: C_12  and  C_14
REMARK    7  A    between atoms: C_13  and  C_16
REMARK    8  A    between atoms: C_15  and  C_18
REMARK    9  A    between atoms: C_18  and  C_22
REMARK   10  A    between atoms: C_22  and  C_24
REMARK   11  A    between atoms: C_24  and  C_28
REMARK   12  A    between atoms: C_28  and  C_29
REMARK                            x       y       z     vdW  Elec       q    Type
REMARK                         _______ _______ _______ _____ _____    ______ ____
ROOT
ATOM      1  O   UNL     1      -0.551  -1.905  25.818  0.00  0.00    -0.276 OA
ATOM      5  N   UNL     1      -2.608  -1.435  24.848  0.00  0.00    -0.301 N 
ATOM      7  C   UNL     1      -4.102   0.012  23.487  0.00  0.00    +0.016 C 
ATOM      8  C   UNL     1      -4.770   0.493  24.801  0.00  0.00    +0.006 C 
ATOM      9  C   UNL     1      -3.809   0.385  25.997  0.00  0.00    +0.023 C 
ATOM     10  C   UNL     1      -3.508  -1.395  23.687  0.00  0.00    +0.112 C 
ATOM     11  C   UNL     1      -3.218  -1.018  26.109  0.00  0.00    +0.108 C 
ATOM     15  C   UNL     1      -1.279  -1.855  24.823  0.00  0.00    +0.216 C 
ENDROOT
BRANCH   7  12
ATOM     12  C   UNL     1      -3.034   0.969  22.946  0.00  0.00    +0.061 C 
BRANCH  12  14
ATOM      6  N   UNL     1      -3.883   3.096  23.669  0.00  0.00    -0.287 NA
ATOM     14  C   UNL     1      -2.962   2.202  23.815  0.00  0.00    +0.044 C 
ATOM     17  C   UNL     1      -1.843   2.331  24.783  0.00  0.00    -0.001 A 
ATOM     19  C   UNL     1      -1.583   3.614  25.280  0.00  0.00    -0.033 A 
ATOM     20  C   UNL     1      -2.428   4.758  24.800  0.00  0.00    +0.059 C 
ATOM     21  C   UNL     1      -3.848   4.265  24.554  0.00  0.00    +0.146 C 
ATOM     23  C   UNL     1      -1.063   1.245  25.183  0.00  0.00    +0.013 A 
ATOM     25  C   UNL     1      -0.518   3.810  26.163  0.00  0.00    +0.050 A 
ATOM     26  C   UNL     1      -0.011   1.447  26.078  0.00  0.00    +0.046 A 
ATOM     27  C   UNL     1       0.263   2.727  26.565  0.00  0.00    +0.120 A 
BRANCH  27   4
ATOM      4  O   UNL     1       1.295   2.917  27.431  0.00  0.00    -0.495 OA
ATOM     30  C   UNL     1       1.147   2.380  28.745  0.00  0.00    +0.277 C 
ENDBRANCH  27   4
ENDBRANCH  12  14
ENDBRANCH   7  12
BRANCH   8  13
ATOM     13  C   UNL     1      -5.348   1.904  24.700  0.00  0.00    +0.124 C 
BRANCH  13  16
ATOM      3  O   UNL     1      -6.685   1.484  26.695  0.00  0.00    -0.251 OA
ATOM     16  C   UNL     1      -6.152   2.263  25.919  0.00  0.00    +0.305 C 
BRANCH  16   2
ATOM      2  O   UNL     1      -6.206   3.614  26.049  0.00  0.00    -0.481 OA
ATOM     31  H   UNL     1      -5.729   4.071  25.323  0.00  0.00    +0.295 HD
ENDBRANCH  16   2
ENDBRANCH  13  16
ENDBRANCH   8  13
BRANCH  15  18
ATOM     18  C   UNL     1      -0.724  -2.266  23.483  0.00  0.00    +0.096 C 
BRANCH  18  22
ATOM     22  C   UNL     1      -0.168  -1.059  22.745  0.00  0.00    +0.009 C 
BRANCH  22  24
ATOM     24  C   UNL     1       1.178  -0.590  23.308  0.00  0.00    +0.000 C 
BRANCH  24  28
ATOM     28  C   UNL     1       2.002   0.134  22.243  0.00  0.00    -0.003 C 
ATOM     29  C   UNL     1       3.352   0.573  22.786  0.00  0.00    +0.004 C 
ENDBRANCH  24  28
ENDBRANCH  22  24
ENDBRANCH  18  22
ENDBRANCH  15  18
TORSDOF 10
ENDMDL
MODEL 8
REMARK VINA RESULT:       1.2      1.782      4.925
REMARK  Name = 51136652
REMARK  12 active torsions:
REMARK  status: ('A' for Active; 'I' for Inactive)
REMARK    1  A    between atoms: O_2  and  C_16
REMARK    2  A    between atoms: O_4  and  C_27
REMARK    3  A    between atoms: O_4  and  C_30
REMARK    4  A    between atoms: C_7  and  C_12
REMARK    5  A    between atoms: C_8  and  C_13
REMARK    6  A    between atoms: C_12  and  C_14
REMARK    7  A    between atoms: C_13  and  C_16
REMARK    8  A    between atoms: C_15  and  C_18
REMARK    9  A    between atoms: C_18  and  C_22
REMARK   10  A    between atoms: C_22  and  C_24
REMARK   11  A    between atoms: C_24  and  C_28
REMARK   12  A    between atoms: C_28  and  C_29
REMARK                            x       y       z     vdW  Elec       q    Type
REMARK                         _______ _______ _______ _____ _____    ______ ____
ROOT
ATOM      1  O   UNL     1      -1.587  -1.951  25.180  0.00  0.00    -0.276 OA
ATOM      5  N   UNL     1      -2.839  -0.340  24.071  0.00  0.00    -0.301 N 
ATOM      7  C   UNL     1      -4.110   1.795  24.034  0.00  0.00    +0.016 C 
ATOM      8  C   UNL     1      -5.422   0.971  24.025  0.00  0.00    +0.006 C 
ATOM      9  C   UNL     1      -5.228  -0.409  24.675  0.00  0.00    +0.023 C 
ATOM     10  C   UNL     1      -2.968   0.968  23.415  0.00  0.00    +0.112 C 
ATOM     11  C   UNL     1      -4.052  -1.156  24.050  0.00  0.00    +0.108 C 
ATOM     15  C   UNL     1      -1.676  -0.836  24.658  0.00  0.00    +0.216 C 
ENDROOT
BRANCH   7  12
ATOM     12  C   UNL     1      -3.706   2.307  25.422  0.00  0.00    +0.061 C 
BRANCH  12  14
ATOM      6  N   UNL     1      -2.792   4.333  24.511  0.00  0.00    -0.287 NA
ATOM     14  C   UNL     1      -2.595   3.322  25.291  0.00  0.00    +0.044 C 
ATOM     17  C   UNL     1      -1.338   3.109  26.053  0.00  0.00    -0.001 A 
ATOM     19  C   UNL     1      -0.213   3.825  25.627  0.00  0.00    -0.033 A 
ATOM     20  C   UNL     1      -0.344   4.734  24.440  0.00  0.00    +0.059 C 
ATOM     21  C   UNL     1      -1.738   5.349  24.431  0.00  0.00    +0.146 C 
ATOM     23  C   UNL     1      -1.250   2.232  27.135  0.00  0.00    +0.013 A 
ATOM     25  C   UNL     1       1.011   3.640  26.276  0.00  0.00    +0.050 A 
ATOM     26  C   UNL     1      -0.029   2.064  27.787  0.00  0.00    +0.046 A 
ATOM     27  C   UNL     1       1.100   2.764  27.357  0.00  0.00    +0.120 A 
BRANCH  27   4
ATOM      4  O   UNL     1       2.291   2.589  27.994  0.00  0.00    -0.495 OA
ATOM     30  C   UNL     1       2.254   2.458  29.414  0.00  0.00    +0.277 C 
ENDBRANCH  27   4
ENDBRANCH  12  14
ENDBRANCH   7  12
BRANCH   8  13
ATOM     13  C   UNL     1      -6.600   1.706  24.665  0.00  0.00    +0.124 C 
BRANCH  13  16
ATOM      3  O   UNL     1      -6.342   1.234  27.042  0.00  0.00    -0.251 OA
ATOM     16  C   UNL     1      -6.336   2.024  26.110  0.00  0.00    +0.305 C 
BRANCH  16   2
ATOM      2  O   UNL     1      -6.080   3.352  26.247  0.00  0.00    -0.481 OA
ATOM     31  H   UNL     1      -5.118   3.543  26.220  0.00  0.00    +0.295 HD
ENDBRANCH  16   2
ENDBRANCH  13  16
ENDBRANCH   8  13
BRANCH  15  18
ATOM     18  C   UNL     1      -0.470   0.068  24.640  0.00  0.00    +0.096 C 
BRANCH  18  22
ATOM     22  C   UNL     1       0.414  -0.247  23.444  0.00  0.00    +0.009 C 
BRANCH  22  24
ATOM     24  C   UNL     1       1.576   0.739  23.291  0.00  0.00    +0.000 C 
BRANCH  24  28
ATOM     28  C   UNL     1       2.720   0.127  22.483  0.00  0.00    -0.003 C 
ATOM     29  C   UNL     1       4.053   0.772  22.827  0.00  0.00    +0.004 C 
ENDBRANCH  24  28
ENDBRANCH  22  24
ENDBRANCH  18  22
ENDBRANCH  15  18
TORSDOF 10
ENDMDL
MODEL 9
REMARK VINA RESULT:       1.8      1.997      3.650
REMARK  Name = 51136652
REMARK  12 active torsions:
REMARK  status: ('A' for Active; 'I' for Inactive)
REMARK    1  A    between atoms: O_2  and  C_16
REMARK    2  A    between atoms: O_4  and  C_27
REMARK    3  A    between atoms: O_4  and  C_30
REMARK    4  A    between atoms: C_7  and  C_12
REMARK    5  A    between atoms: C_8  and  C_13
REMARK    6  A    between atoms: C_12  and  C_14
REMARK    7  A    between atoms: C_13  and  C_16
REMARK    8  A    between atoms: C_15  and  C_18
REMARK    9  A    between atoms: C_18  and  C_22
REMARK   10  A    between atoms: C_22  and  C_24
REMARK   11  A    between atoms: C_24  and  C_28
REMARK   12  A    between atoms: C_28  and  C_29
REMARK                            x       y       z     vdW  Elec       q    Type
REMARK                         _______ _______ _______ _____ _____    ______ ____
ROOT
ATOM      1  O   UNL     1       0.386   4.533  23.432  0.00  0.00    -0.276 OA
ATOM      5  N   UNL     1      -1.233   4.096  25.039  0.00  0.00    -0.301 N 
ATOM      7  C   UNL     1      -3.253   2.887  25.830  0.00  0.00    +0.016 C 
ATOM      8  C   UNL     1      -4.085   4.163  25.543  0.00  0.00    +0.006 C 
ATOM      9  C   UNL     1      -3.438   5.024  24.444  0.00  0.00    +0.023 C 
ATOM     10  C   UNL     1      -1.790   3.269  26.117  0.00  0.00    +0.112 C 
ATOM     11  C   UNL     1      -1.976   5.325  24.765  0.00  0.00    +0.108 C 
ATOM     15  C   UNL     1      -0.076   3.807  24.316  0.00  0.00    +0.216 C 
ENDROOT
BRANCH   7  12
ATOM     12  C   UNL     1      -3.322   1.836  24.716  0.00  0.00    +0.061 C 
BRANCH  12  14
ATOM      6  N   UNL     1      -1.475   0.777  25.827  0.00  0.00    -0.287 NA
ATOM     14  C   UNL     1      -2.543   0.607  25.121  0.00  0.00    +0.044 C 
ATOM     17  C   UNL     1      -3.033  -0.726  24.686  0.00  0.00    -0.001 A 
ATOM     19  C   UNL     1      -2.115  -1.783  24.735  0.00  0.00    -0.033 A 
ATOM     20  C   UNL     1      -0.716  -1.501  25.199  0.00  0.00    +0.059 C 
ATOM     21  C   UNL     1      -0.752  -0.419  26.271  0.00  0.00    +0.146 C 
ATOM     23  C   UNL     1      -4.336  -0.941  24.234  0.00  0.00    +0.013 A 
ATOM     25  C   UNL     1      -2.502  -3.054  24.302  0.00  0.00    +0.050 A 
ATOM     26  C   UNL     1      -4.718  -2.217  23.818  0.00  0.00    +0.046 A 
ATOM     27  C   UNL     1      -3.802  -3.270  23.849  0.00  0.00    +0.120 A 
BRANCH  27   4
ATOM      4  O   UNL     1      -4.181  -4.511  23.435  0.00  0.00    -0.495 OA
ATOM     30  C   UNL     1      -3.361  -5.145  22.454  0.00  0.00    +0.277 C 
ENDBRANCH  27   4
ENDBRANCH  12  14
ENDBRANCH   7  12
BRANCH   8  13
ATOM     13  C   UNL     1      -5.546   3.867  25.204  0.00  0.00    +0.124 C 
BRANCH  13  16
ATOM      3  O   UNL     1      -6.017   2.439  27.122  0.00  0.00    -0.251 OA
ATOM     16  C   UNL     1      -6.044   2.641  25.918  0.00  0.00    +0.305 C 
BRANCH  16   2
ATOM      2  O   UNL     1      -6.547   1.759  25.015  0.00  0.00    -0.481 OA
ATOM     31  H   UNL     1      -6.087   0.893  25.055  0.00  0.00    +0.295 HD
ENDBRANCH  16   2
ENDBRANCH  13  16
ENDBRANCH   8  13
BRANCH  15  18
ATOM     18  C   UNL     1       0.631   2.519  24.656  0.00  0.00    +0.096 C 
BRANCH  18  22
ATOM     22  C   UNL     1       0.906   1.715  23.396  0.00  0.00    +0.009 C 
BRANCH  22  24
ATOM     24  C   UNL     1       1.997   0.659  23.596  0.00  0.00    +0.000 C 
BRANCH  24  28
ATOM     28  C   UNL     1       3.083   0.774  22.526  0.00  0.00    -0.003 C 
ATOM     29  C   UNL     1       4.463   0.493  23.099  0.00  0.00    +0.004 C 
ENDBRANCH  24  28
ENDBRANCH  22  24
ENDBRANCH  18  22
ENDBRANCH  15  18
TORSDOF 10
ENDMDL
MODEL 10
REMARK VINA RESULT:       2.2      2.329      3.556
REMARK  Name = 51136652
REMARK  12 active torsions:
REMARK  status: ('A' for Active; 'I' for Inactive)
REMARK    1  A    between atoms: O_2  and  C_16
REMARK    2  A    between atoms: O_4  and  C_27
REMARK    3  A    between atoms: O_4  and  C_30
REMARK    4  A    between atoms: C_7  and  C_12
REMARK    5  A    between atoms: C_8  and  C_13
REMARK    6  A    between atoms: C_12  and  C_14
REMARK    7  A    between atoms: C_13  and  C_16
REMARK    8  A    between atoms: C_15  and  C_18
REMARK    9  A    between atoms: C_18  and  C_22
REMARK   10  A    between atoms: C_22  and  C_24
REMARK   11  A    between atoms: C_24  and  C_28
REMARK   12  A    between atoms: C_28  and  C_29
REMARK                            x       y       z     vdW  Elec       q    Type
REMARK                         _______ _______ _______ _____ _____    ______ ____
ROOT
ATOM      1  O   UNL     1      -3.753   4.766  23.720  0.00  0.00    -0.276 OA
ATOM      5  N   UNL     1      -4.500   2.663  24.362  0.00  0.00    -0.301 N 
ATOM      7  C   UNL     1      -4.108   0.406  25.326  0.00  0.00    +0.016 C 
ATOM      8  C   UNL     1      -4.147  -0.173  23.889  0.00  0.00    +0.006 C 
ATOM      9  C   UNL     1      -3.736   0.878  22.844  0.00  0.00    +0.023 C 
ATOM     10  C   UNL     1      -4.933   1.705  25.388  0.00  0.00    +0.112 C 
ATOM     11  C   UNL     1      -4.556   2.157  22.992  0.00  0.00    +0.108 C 
ATOM     15  C   UNL     1      -4.086   3.972  24.604  0.00  0.00    +0.216 C 
ENDROOT
BRANCH   7  12
ATOM     12  C   UNL     1      -2.692   0.647  25.862  0.00  0.00    +0.061 C 
BRANCH  12  14
ATOM      6  N   UNL     1      -2.062  -1.667  25.993  0.00  0.00    -0.287 NA
ATOM     14  C   UNL     1      -1.797  -0.509  25.484  0.00  0.00    +0.044 C 
ATOM     17  C   UNL     1      -0.661  -0.263  24.559  0.00  0.00    -0.001 A 
ATOM     19  C   UNL     1       0.354  -1.227  24.535  0.00  0.00    -0.033 A 
ATOM     20  C   UNL     1       0.238  -2.418  25.439  0.00  0.00    +0.059 C 
ATOM     21  C   UNL     1      -1.230  -2.802  25.579  0.00  0.00    +0.146 C 
ATOM     23  C   UNL     1      -0.577   0.874  23.753  0.00  0.00    +0.013 A 
ATOM     25  C   UNL     1       1.469  -1.035  23.715  0.00  0.00    +0.050 A 
ATOM     26  C   UNL     1       0.533   1.051  22.927  0.00  0.00    +0.046 A 
ATOM     27  C   UNL     1       1.556   0.100  22.910  0.00  0.00    +0.120 A 
BRANCH  27   4
ATOM      4  O   UNL     1       2.639   0.283  22.106  0.00  0.00    -0.495 OA
ATOM     30  C   UNL     1       3.831   0.765  22.724  0.00  0.00    +0.277 C 
ENDBRANCH  27   4
ENDBRANCH  12  14
ENDBRANCH   7  12
BRANCH   8  13
ATOM     13  C   UNL     1      -3.314  -1.445  23.730  0.00  0.00    +0.124 C 
BRANCH  13  16
ATOM      3  O   UNL     1      -5.249  -2.835  23.217  0.00  0.00    -0.251 OA
ATOM     16  C   UNL     1      -4.171  -2.680  23.770  0.00  0.00    +0.305 C 
BRANCH  16   2
ATOM      2  O   UNL     1      -3.567  -3.631  24.529  0.00  0.00    -0.481 OA
ATOM     31  H   UNL     1      -2.592  -3.518  24.548  0.00  0.00    +0.295 HD
ENDBRANCH  16   2
ENDBRANCH  13  16
ENDBRANCH   8  13
BRANCH  15  18
ATOM     18  C   UNL     1      -4.053   4.416  26.044  0.00  0.00    +0.096 C 
BRANCH  18  22
ATOM     22  C   UNL     1      -2.620   4.633  26.501  0.00  0.00    +0.009 C 
BRANCH  22  24
ATOM     24  C   UNL     1      -1.706   3.452  26.159  0.00  0.00    +0.000 C 
BRANCH  24  28
ATOM     28  C   UNL     1      -0.549   3.889  25.260  0.00  0.00    -0.003 C 
ATOM     29  C   UNL     1      -0.731   5.317  24.771  0.00  0.00    +0.004 C 
ENDBRANCH  24  28
ENDBRANCH  22  24
ENDBRANCH  18  22
ENDBRANCH  15  18
TORSDOF 10
ENDMDL
