MODEL 1
REMARK VINA RESULT:      -5.4      0.000      0.000
REMARK  Name = 26743832
REMARK  6 active torsions:
REMARK  status: ('A' for Active; 'I' for Inactive)
REMARK    1  A    between atoms: O_1  and  C_8
REMARK    2  A    between atoms: N_3  and  C_10
REMARK    3  A    between atoms: C_6  and  C_11
REMARK    4  A    between atoms: C_10  and  C_12
REMARK    5  A    between atoms: C_13  and  C_16
REMARK    6  A    between atoms: C_22  and  C_25
REMARK                            x       y       z     vdW  Elec       q    Type
REMARK                         _______ _______ _______ _____ _____    ______ ____
ROOT
ATOM      3  N   UNL     1      -4.726   1.556  25.275  0.00  0.00    -0.285 NA
ATOM      6  C   UNL     1      -3.988   2.347  24.270  0.00  0.00    +0.149 C 
ATOM      7  C   UNL     1      -4.270   3.815  24.640  0.00  0.00    +0.061 C 
ATOM      8  C   UNL     1      -5.210   3.747  25.837  0.00  0.00    +0.130 C 
ATOM      9  C   UNL     1      -5.855   2.380  25.704  0.00  0.00    +0.116 C 
ENDROOT
BRANCH   6  11
ATOM      2  O   UNL     1      -1.779   2.437  25.310  0.00  0.00    -0.336 OA
ATOM      4  N   UNL     1      -1.816   1.392  23.330  0.00  0.00    -0.190 NA
ATOM      5  N   UNL     1      -0.462   2.030  25.061  0.00  0.00    -0.056 NA
ATOM     11  C   UNL     1      -2.511   2.023  24.243  0.00  0.00    +0.245 A 
ATOM     13  C   UNL     1      -0.565   1.421  23.876  0.00  0.00    +0.202 A 
BRANCH  13  16
ATOM     16  C   UNL     1       0.561   0.830  23.212  0.00  0.00    +0.023 A 
ATOM     20  C   UNL     1       1.855   1.244  23.529  0.00  0.00    +0.015 A 
ATOM     21  C   UNL     1       0.361  -0.160  22.250  0.00  0.00    +0.012 A 
ATOM     22  C   UNL     1       2.949   0.667  22.884  0.00  0.00    -0.050 A 
ATOM     23  C   UNL     1       1.455  -0.736  21.605  0.00  0.00    +0.001 A 
ATOM     24  C   UNL     1       2.749  -0.323  21.922  0.00  0.00    +0.003 A 
ATOM     25  C   UNL     1       4.332   1.108  23.222  0.00  0.00    +0.044 C 
ENDBRANCH  13  16
ENDBRANCH   6  11
BRANCH   8   1
ATOM      1  O   UNL     1      -6.168   4.786  25.782  0.00  0.00    -0.390 OA
ATOM     26  H   UNL     1      -6.566   4.771  24.894  0.00  0.00    +0.210 HD
ENDBRANCH   8   1
BRANCH   3  10
ATOM     10  C   UNL     1      -5.155   0.255  24.781  0.00  0.00    +0.120 C 
BRANCH  10  12
ATOM     12  C   UNL     1      -4.043  -0.760  24.831  0.00  0.00    -0.033 A 
ATOM     14  C   UNL     1      -4.009  -1.803  23.904  0.00  0.00    +0.005 A 
ATOM     15  C   UNL     1      -3.048  -0.657  25.802  0.00  0.00    +0.005 A 
ATOM     17  C   UNL     1      -2.979  -2.742  23.949  0.00  0.00    +0.000 A 
ATOM     18  C   UNL     1      -2.018  -1.596  25.848  0.00  0.00    +0.000 A 
ATOM     19  C   UNL     1      -1.983  -2.639  24.921  0.00  0.00    +0.000 A 
ENDBRANCH  10  12
ENDBRANCH   3  10
TORSDOF 5
ENDMDL
MODEL 2
REMARK VINA RESULT:      -3.8      1.918      6.289
REMARK  Name = 26743832
REMARK  6 active torsions:
REMARK  status: ('A' for Active; 'I' for Inactive)
REMARK    1  A    between atoms: O_1  and  C_8
REMARK    2  A    between atoms: N_3  and  C_10
REMARK    3  A    between atoms: C_6  and  C_11
REMARK    4  A    between atoms: C_10  and  C_12
REMARK    5  A    between atoms: C_13  and  C_16
REMARK    6  A    between atoms: C_22  and  C_25
REMARK                            x       y       z     vdW  Elec       q    Type
REMARK                         _______ _______ _______ _____ _____    ______ ____
ROOT
ATOM      3  N   UNL     1       0.271  -0.256  23.800  0.00  0.00    -0.285 NA
ATOM      6  C   UNL     1       0.772   0.988  24.416  0.00  0.00    +0.149 C 
ATOM      7  C   UNL     1       1.859   1.496  23.450  0.00  0.00    +0.061 C 
ATOM      8  C   UNL     1       1.927   0.449  22.346  0.00  0.00    +0.130 C 
ATOM      9  C   UNL     1       1.373  -0.799  23.007  0.00  0.00    +0.116 C 
ENDROOT
BRANCH   6  11
ATOM      2  O   UNL     1       0.062   3.305  24.729  0.00  0.00    -0.336 OA
ATOM      4  N   UNL     1      -1.612   1.817  24.798  0.00  0.00    -0.190 NA
ATOM      5  N   UNL     1      -1.107   4.045  24.949  0.00  0.00    -0.056 NA
ATOM     11  C   UNL     1      -0.324   2.004  24.653  0.00  0.00    +0.245 A 
ATOM     13  C   UNL     1      -2.050   3.098  24.978  0.00  0.00    +0.202 A 
BRANCH  13  16
ATOM     16  C   UNL     1      -3.438   3.397  25.181  0.00  0.00    +0.023 A 
ATOM     20  C   UNL     1      -4.396   2.391  25.045  0.00  0.00    +0.015 A 
ATOM     21  C   UNL     1      -3.830   4.693  25.517  0.00  0.00    +0.012 A 
ATOM     22  C   UNL     1      -5.746   2.682  25.244  0.00  0.00    -0.050 A 
ATOM     23  C   UNL     1      -5.179   4.983  25.717  0.00  0.00    +0.001 A 
ATOM     24  C   UNL     1      -6.137   3.978  25.580  0.00  0.00    +0.003 A 
ATOM     25  C   UNL     1      -6.770   1.609  25.098  0.00  0.00    +0.044 C 
ENDBRANCH  13  16
ENDBRANCH   6  11
BRANCH   8   1
ATOM      1  O   UNL     1       3.259   0.264  21.910  0.00  0.00    -0.390 OA
ATOM     26  H   UNL     1       3.450  -0.689  21.949  0.00  0.00    +0.210 HD
ENDBRANCH   8   1
BRANCH   3  10
ATOM     10  C   UNL     1      -0.231  -1.218  24.772  0.00  0.00    +0.120 C 
BRANCH  10  12
ATOM     12  C   UNL     1      -1.667  -1.587  24.508  0.00  0.00    -0.033 A 
ATOM     14  C   UNL     1      -2.585  -0.600  24.147  0.00  0.00    +0.005 A 
ATOM     15  C   UNL     1      -2.079  -2.914  24.624  0.00  0.00    +0.005 A 
ATOM     17  C   UNL     1      -3.914  -0.940  23.902  0.00  0.00    +0.000 A 
ATOM     18  C   UNL     1      -3.409  -3.255  24.379  0.00  0.00    +0.000 A 
ATOM     19  C   UNL     1      -4.327  -2.268  24.018  0.00  0.00    +0.000 A 
ENDBRANCH  10  12
ENDBRANCH   3  10
TORSDOF 5
ENDMDL
MODEL 3
REMARK VINA RESULT:      -3.5      1.885      6.280
REMARK  Name = 26743832
REMARK  6 active torsions:
REMARK  status: ('A' for Active; 'I' for Inactive)
REMARK    1  A    between atoms: O_1  and  C_8
REMARK    2  A    between atoms: N_3  and  C_10
REMARK    3  A    between atoms: C_6  and  C_11
REMARK    4  A    between atoms: C_10  and  C_12
REMARK    5  A    between atoms: C_13  and  C_16
REMARK    6  A    between atoms: C_22  and  C_25
REMARK                            x       y       z     vdW  Elec       q    Type
REMARK                         _______ _______ _______ _____ _____    ______ ____
ROOT
ATOM      3  N   UNL     1       0.682  -0.475  23.737  0.00  0.00    -0.285 NA
ATOM      6  C   UNL     1       0.970   0.894  24.209  0.00  0.00    +0.149 C 
ATOM      7  C   UNL     1       1.917   1.486  23.149  0.00  0.00    +0.061 C 
ATOM      8  C   UNL     1       2.138   0.362  22.145  0.00  0.00    +0.130 C 
ATOM      9  C   UNL     1       1.839  -0.892  22.946  0.00  0.00    +0.116 C 
ENDROOT
BRANCH   6  11
ATOM      2  O   UNL     1      -0.130   3.069  24.380  0.00  0.00    -0.336 OA
ATOM      4  N   UNL     1      -1.517   1.323  24.592  0.00  0.00    -0.190 NA
ATOM      5  N   UNL     1      -1.407   3.609  24.578  0.00  0.00    -0.056 NA
ATOM     11  C   UNL     1      -0.283   1.719  24.402  0.00  0.00    +0.245 A 
ATOM     13  C   UNL     1      -2.170   2.518  24.694  0.00  0.00    +0.202 A 
BRANCH  13  16
ATOM     16  C   UNL     1      -3.587   2.586  24.910  0.00  0.00    +0.023 A 
ATOM     20  C   UNL     1      -4.195   3.814  25.174  0.00  0.00    +0.015 A 
ATOM     21  C   UNL     1      -4.356   1.424  24.854  0.00  0.00    +0.012 A 
ATOM     22  C   UNL     1      -5.572   3.879  25.383  0.00  0.00    -0.050 A 
ATOM     23  C   UNL     1      -5.733   1.489  25.062  0.00  0.00    +0.001 A 
ATOM     24  C   UNL     1      -6.342   2.717  25.326  0.00  0.00    +0.003 A 
ATOM     25  C   UNL     1      -6.223   5.190  25.665  0.00  0.00    +0.044 C 
ENDBRANCH  13  16
ENDBRANCH   6  11
BRANCH   8   1
ATOM      1  O   UNL     1       3.468   0.372  21.664  0.00  0.00    -0.390 OA
ATOM     26  H   UNL     1       3.508   1.008  20.929  0.00  0.00    +0.210 HD
ENDBRANCH   8   1
BRANCH   3  10
ATOM     10  C   UNL     1       0.393  -1.408  24.818  0.00  0.00    +0.120 C 
BRANCH  10  12
ATOM     12  C   UNL     1      -1.084  -1.665  24.957  0.00  0.00    -0.033 A 
ATOM     14  C   UNL     1      -1.782  -1.149  26.050  0.00  0.00    +0.005 A 
ATOM     15  C   UNL     1      -1.755  -2.419  23.995  0.00  0.00    +0.005 A 
ATOM     17  C   UNL     1      -3.149  -1.386  26.179  0.00  0.00    +0.000 A 
ATOM     18  C   UNL     1      -3.123  -2.657  24.124  0.00  0.00    +0.000 A 
ATOM     19  C   UNL     1      -3.821  -2.140  25.217  0.00  0.00    +0.000 A 
ENDBRANCH  10  12
ENDBRANCH   3  10
TORSDOF 5
ENDMDL
MODEL 4
REMARK VINA RESULT:      -3.5      1.656      2.406
REMARK  Name = 26743832
REMARK  6 active torsions:
REMARK  status: ('A' for Active; 'I' for Inactive)
REMARK    1  A    between atoms: O_1  and  C_8
REMARK    2  A    between atoms: N_3  and  C_10
REMARK    3  A    between atoms: C_6  and  C_11
REMARK    4  A    between atoms: C_10  and  C_12
REMARK    5  A    between atoms: C_13  and  C_16
REMARK    6  A    between atoms: C_22  and  C_25
REMARK                            x       y       z     vdW  Elec       q    Type
REMARK                         _______ _______ _______ _____ _____    ______ ____
ROOT
ATOM      3  N   UNL     1      -3.174   1.964  25.012  0.00  0.00    -0.285 NA
ATOM      6  C   UNL     1      -2.170   2.556  24.106  0.00  0.00    +0.149 C 
ATOM      7  C   UNL     1      -1.754   3.874  24.785  0.00  0.00    +0.061 C 
ATOM      8  C   UNL     1      -2.610   3.956  26.043  0.00  0.00    +0.130 C 
ATOM      9  C   UNL     1      -3.804   3.078  25.718  0.00  0.00    +0.116 C 
ENDROOT
BRANCH   6  11
ATOM      2  O   UNL     1      -1.288   0.315  23.692  0.00  0.00    -0.336 OA
ATOM      4  N   UNL     1       0.277   1.917  23.758  0.00  0.00    -0.190 NA
ATOM      5  N   UNL     1      -0.063  -0.328  23.472  0.00  0.00    -0.056 NA
ATOM     11  C   UNL     1      -0.998   1.633  23.850  0.00  0.00    +0.245 A 
ATOM     13  C   UNL     1       0.810   0.682  23.526  0.00  0.00    +0.202 A 
BRANCH  13  16
ATOM     16  C   UNL     1       2.222   0.493  23.350  0.00  0.00    +0.023 A 
ATOM     20  C   UNL     1       2.809  -0.729  23.683  0.00  0.00    +0.015 A 
ATOM     21  C   UNL     1       3.006   1.529  22.843  0.00  0.00    +0.012 A 
ATOM     22  C   UNL     1       4.181  -0.912  23.510  0.00  0.00    -0.050 A 
ATOM     23  C   UNL     1       4.377   1.345  22.670  0.00  0.00    +0.001 A 
ATOM     24  C   UNL     1       4.965   0.124  23.003  0.00  0.00    +0.003 A 
ATOM     25  C   UNL     1       4.810  -2.216  23.866  0.00  0.00    +0.044 C 
ENDBRANCH  13  16
ENDBRANCH   6  11
BRANCH   8   1
ATOM      1  O   UNL     1      -2.996   5.292  26.301  0.00  0.00    -0.390 OA
ATOM     26  H   UNL     1      -3.767   5.487  25.739  0.00  0.00    +0.210 HD
ENDBRANCH   8   1
BRANCH   3  10
ATOM     10  C   UNL     1      -4.150   1.130  24.323  0.00  0.00    +0.120 C 
BRANCH  10  12
ATOM     12  C   UNL     1      -3.917  -0.336  24.579  0.00  0.00    -0.033 A 
ATOM     14  C   UNL     1      -3.375  -0.754  25.795  0.00  0.00    +0.005 A 
ATOM     15  C   UNL     1      -4.242  -1.275  23.601  0.00  0.00    +0.005 A 
ATOM     17  C   UNL     1      -3.160  -2.111  26.033  0.00  0.00    +0.000 A 
ATOM     18  C   UNL     1      -4.027  -2.632  23.838  0.00  0.00    +0.000 A 
ATOM     19  C   UNL     1      -3.485  -3.050  25.054  0.00  0.00    +0.000 A 
ENDBRANCH  10  12
ENDBRANCH   3  10
TORSDOF 5
ENDMDL
MODEL 5
REMARK VINA RESULT:      -3.1      3.233      4.155
REMARK  Name = 26743832
REMARK  6 active torsions:
REMARK  status: ('A' for Active; 'I' for Inactive)
REMARK    1  A    between atoms: O_1  and  C_8
REMARK    2  A    between atoms: N_3  and  C_10
REMARK    3  A    between atoms: C_6  and  C_11
REMARK    4  A    between atoms: C_10  and  C_12
REMARK    5  A    between atoms: C_13  and  C_16
REMARK    6  A    between atoms: C_22  and  C_25
REMARK                            x       y       z     vdW  Elec       q    Type
REMARK                         _______ _______ _______ _____ _____    ______ ____
ROOT
ATOM      3  N   UNL     1      -3.901   1.770  24.706  0.00  0.00    -0.285 NA
ATOM      6  C   UNL     1      -3.096   3.008  24.701  0.00  0.00    +0.149 C 
ATOM      7  C   UNL     1      -3.951   4.036  25.465  0.00  0.00    +0.061 C 
ATOM      8  C   UNL     1      -5.235   3.297  25.819  0.00  0.00    +0.130 C 
ATOM      9  C   UNL     1      -5.300   2.185  24.789  0.00  0.00    +0.116 C 
ENDROOT
BRANCH   6  11
ATOM      2  O   UNL     1      -0.734   2.426  24.471  0.00  0.00    -0.336 OA
ATOM      4  N   UNL     1      -1.344   2.968  26.557  0.00  0.00    -0.190 NA
ATOM      5  N   UNL     1       0.421   2.314  25.255  0.00  0.00    -0.056 NA
ATOM     11  C   UNL     1      -1.726   2.815  25.314  0.00  0.00    +0.245 A 
ATOM     13  C   UNL     1      -0.019   2.650  26.471  0.00  0.00    +0.202 A 
BRANCH  13  16
ATOM     16  C   UNL     1       0.838   2.679  27.621  0.00  0.00    +0.023 A 
ATOM     20  C   UNL     1       0.303   2.488  28.896  0.00  0.00    +0.015 A 
ATOM     21  C   UNL     1       2.207   2.896  27.465  0.00  0.00    +0.012 A 
ATOM     22  C   UNL     1       1.138   2.514  30.013  0.00  0.00    -0.050 A 
ATOM     23  C   UNL     1       3.041   2.922  28.582  0.00  0.00    +0.001 A 
ATOM     24  C   UNL     1       2.507   2.731  29.857  0.00  0.00    +0.003 A 
ATOM     25  C   UNL     1       0.567   2.311  31.375  0.00  0.00    +0.044 C 
ENDBRANCH  13  16
ENDBRANCH   6  11
BRANCH   8   1
ATOM      1  O   UNL     1      -6.352   4.160  25.731  0.00  0.00    -0.390 OA
ATOM     26  H   UNL     1      -7.035   3.701  25.211  0.00  0.00    +0.210 HD
ENDBRANCH   8   1
BRANCH   3  10
ATOM     10  C   UNL     1      -3.650   0.916  23.552  0.00  0.00    +0.120 C 
BRANCH  10  12
ATOM     12  C   UNL     1      -3.254  -0.478  23.960  0.00  0.00    -0.033 A 
ATOM     14  C   UNL     1      -1.950  -0.736  24.386  0.00  0.00    +0.005 A 
ATOM     15  C   UNL     1      -4.190  -1.511  23.913  0.00  0.00    +0.005 A 
ATOM     17  C   UNL     1      -1.583  -2.027  24.765  0.00  0.00    +0.000 A 
ATOM     18  C   UNL     1      -3.823  -2.802  24.291  0.00  0.00    +0.000 A 
ATOM     19  C   UNL     1      -2.519  -3.060  24.718  0.00  0.00    +0.000 A 
ENDBRANCH  10  12
ENDBRANCH   3  10
TORSDOF 5
ENDMDL
MODEL 6
REMARK VINA RESULT:      -2.7     15.664     18.090
REMARK  Name = 26743832
REMARK  6 active torsions:
REMARK  status: ('A' for Active; 'I' for Inactive)
REMARK    1  A    between atoms: O_1  and  C_8
REMARK    2  A    between atoms: N_3  and  C_10
REMARK    3  A    between atoms: C_6  and  C_11
REMARK    4  A    between atoms: C_10  and  C_12
REMARK    5  A    between atoms: C_13  and  C_16
REMARK    6  A    between atoms: C_22  and  C_25
REMARK                            x       y       z     vdW  Elec       q    Type
REMARK                         _______ _______ _______ _____ _____    ______ ____
ROOT
ATOM      3  N   UNL     1      -3.285 -10.398  11.753  0.00  0.00    -0.285 NA
ATOM      6  C   UNL     1      -3.561  -9.041  11.241  0.00  0.00    +0.149 C 
ATOM      7  C   UNL     1      -2.215  -8.552  10.675  0.00  0.00    +0.061 C 
ATOM      8  C   UNL     1      -1.235  -9.685  10.955  0.00  0.00    +0.130 C 
ATOM      9  C   UNL     1      -1.870 -10.424  12.117  0.00  0.00    +0.116 C 
ENDROOT
BRANCH   6  11
ATOM      2  O   UNL     1      -4.325  -9.347   8.940  0.00  0.00    -0.336 OA
ATOM      4  N   UNL     1      -5.939  -8.728  10.366  0.00  0.00    -0.190 NA
ATOM      5  N   UNL     1      -5.500  -9.257   8.183  0.00  0.00    -0.056 NA
ATOM     11  C   UNL     1      -4.671  -9.020  10.213  0.00  0.00    +0.245 A 
ATOM     13  C   UNL     1      -6.406  -8.887   9.093  0.00  0.00    +0.202 A 
BRANCH  13  16
ATOM     16  C   UNL     1      -7.786  -8.671   8.765  0.00  0.00    +0.023 A 
ATOM     20  C   UNL     1      -8.299  -7.374   8.726  0.00  0.00    +0.015 A 
ATOM     21  C   UNL     1      -8.614  -9.758   8.484  0.00  0.00    +0.012 A 
ATOM     22  C   UNL     1      -9.641  -7.165   8.406  0.00  0.00    -0.050 A 
ATOM     23  C   UNL     1      -9.954  -9.548   8.163  0.00  0.00    +0.001 A 
ATOM     24  C   UNL     1     -10.468  -8.252   8.124  0.00  0.00    +0.003 A 
ATOM     25  C   UNL     1     -10.190  -5.779   8.364  0.00  0.00    +0.044 C 
ENDBRANCH  13  16
ENDBRANCH   6  11
BRANCH   8   1
ATOM      1  O   UNL     1       0.040  -9.173  11.292  0.00  0.00    -0.390 OA
ATOM     26  H   UNL     1       0.068  -8.244  11.004  0.00  0.00    +0.210 HD
ENDBRANCH   8   1
BRANCH   3  10
ATOM     10  C   UNL     1      -4.145 -10.779  12.866  0.00  0.00    +0.120 C 
BRANCH  10  12
ATOM     12  C   UNL     1      -3.419 -10.713  14.184  0.00  0.00    -0.033 A 
ATOM     14  C   UNL     1      -2.025 -10.670  14.211  0.00  0.00    +0.005 A 
ATOM     15  C   UNL     1      -4.141 -10.693  15.377  0.00  0.00    +0.005 A 
ATOM     17  C   UNL     1      -1.353 -10.608  15.431  0.00  0.00    +0.000 A 
ATOM     18  C   UNL     1      -3.469 -10.631  16.598  0.00  0.00    +0.000 A 
ATOM     19  C   UNL     1      -2.074 -10.589  16.624  0.00  0.00    +0.000 A 
ENDBRANCH  10  12
ENDBRANCH   3  10
TORSDOF 5
ENDMDL
MODEL 7
REMARK VINA RESULT:      -1.5      1.874      4.090
REMARK  Name = 26743832
REMARK  6 active torsions:
REMARK  status: ('A' for Active; 'I' for Inactive)
REMARK    1  A    between atoms: O_1  and  C_8
REMARK    2  A    between atoms: N_3  and  C_10
REMARK    3  A    between atoms: C_6  and  C_11
REMARK    4  A    between atoms: C_10  and  C_12
REMARK    5  A    between atoms: C_13  and  C_16
REMARK    6  A    between atoms: C_22  and  C_25
REMARK                            x       y       z     vdW  Elec       q    Type
REMARK                         _______ _______ _______ _____ _____    ______ ____
ROOT
ATOM      3  N   UNL     1      -3.013  -0.205  23.461  0.00  0.00    -0.285 NA
ATOM      6  C   UNL     1      -2.204   0.039  24.672  0.00  0.00    +0.149 C 
ATOM      7  C   UNL     1      -2.197  -1.307  25.419  0.00  0.00    +0.061 C 
ATOM      8  C   UNL     1      -3.064  -2.232  24.574  0.00  0.00    +0.130 C 
ATOM      9  C   UNL     1      -3.949  -1.276  23.797  0.00  0.00    +0.116 C 
ENDROOT
BRANCH   6  11
ATOM      2  O   UNL     1      -0.621   1.883  24.419  0.00  0.00    -0.336 OA
ATOM      4  N   UNL     1       0.256  -0.138  24.016  0.00  0.00    -0.190 NA
ATOM      5  N   UNL     1       0.722   2.102  24.087  0.00  0.00    -0.056 NA
ATOM     11  C   UNL     1      -0.812   0.540  24.353  0.00  0.00    +0.245 A 
ATOM     13  C   UNL     1       1.172   0.864  23.864  0.00  0.00    +0.202 A 
BRANCH  13  16
ATOM     16  C   UNL     1       2.530   0.591  23.489  0.00  0.00    +0.023 A 
ATOM     20  C   UNL     1       3.126  -0.616  23.854  0.00  0.00    +0.015 A 
ATOM     21  C   UNL     1       3.252   1.533  22.756  0.00  0.00    +0.012 A 
ATOM     22  C   UNL     1       4.446  -0.881  23.487  0.00  0.00    -0.050 A 
ATOM     23  C   UNL     1       4.571   1.268  22.390  0.00  0.00    +0.001 A 
ATOM     24  C   UNL     1       5.168   0.061  22.755  0.00  0.00    +0.003 A 
ATOM     25  C   UNL     1       5.084  -2.170  23.878  0.00  0.00    +0.044 C 
ENDBRANCH  13  16
ENDBRANCH   6  11
BRANCH   8   1
ATOM      1  O   UNL     1      -3.822  -3.099  25.395  0.00  0.00    -0.390 OA
ATOM     26  H   UNL     1      -4.144  -2.578  26.151  0.00  0.00    +0.210 HD
ENDBRANCH   8   1
BRANCH   3  10
ATOM     10  C   UNL     1      -3.695   0.986  22.974  0.00  0.00    +0.120 C 
BRANCH  10  12
ATOM     12  C   UNL     1      -4.264   1.807  24.101  0.00  0.00    -0.033 A 
ATOM     14  C   UNL     1      -5.335   1.316  24.850  0.00  0.00    +0.005 A 
ATOM     15  C   UNL     1      -3.721   3.057  24.398  0.00  0.00    +0.005 A 
ATOM     17  C   UNL     1      -5.862   2.076  25.894  0.00  0.00    +0.000 A 
ATOM     18  C   UNL     1      -4.248   3.817  25.442  0.00  0.00    +0.000 A 
ATOM     19  C   UNL     1      -5.319   3.326  26.190  0.00  0.00    +0.000 A 
ENDBRANCH  10  12
ENDBRANCH   3  10
TORSDOF 5
ENDMDL
