MODEL 1
REMARK VINA RESULT:      -2.8      0.000      0.000
REMARK  Name = 40781574
REMARK  12 active torsions:
REMARK  status: ('A' for Active; 'I' for Inactive)
REMARK    1  A    between atoms: O_2  and  C_15
REMARK    2  A    between atoms: O_3  and  C_16
REMARK    3  A    between atoms: O_6  and  C_25
REMARK    4  A    between atoms: O_6  and  C_28
REMARK    5  A    between atoms: O_7  and  C_26
REMARK    6  A    between atoms: O_7  and  C_29
REMARK    7  A    between atoms: N_8  and  C_11
REMARK    8  A    between atoms: N_9  and  C_20
REMARK    9  A    between atoms: N_10  and  C_22
REMARK   10  A    between atoms: C_14  and  C_18
REMARK   11  A    between atoms: C_17  and  C_20
REMARK   12  A    between atoms: C_18  and  C_19
REMARK                            x       y       z     vdW  Elec       q    Type
REMARK                         _______ _______ _______ _____ _____    ______ ____
ROOT
ATOM      1  O   UNL     1      -3.857   3.958  23.936  0.00  0.00    -0.366 OA
ATOM     14  C   UNL     1      -4.503   2.680  24.076  0.00  0.00    +0.158 C 
ATOM     15  C   UNL     1      -4.674   2.467  25.571  0.00  0.00    +0.175 C 
ATOM     16  C   UNL     1      -4.948   3.879  26.048  0.00  0.00    +0.176 C 
ATOM     17  C   UNL     1      -4.012   4.699  25.168  0.00  0.00    +0.167 C 
ENDROOT
BRANCH  15   2
ATOM      2  O   UNL     1      -5.720   1.566  25.862  0.00  0.00    -0.387 OA
ATOM     31  H   UNL     1      -6.555   2.058  25.798  0.00  0.00    +0.210 HD
ENDBRANCH  15   2
BRANCH  16   3
ATOM      3  O   UNL     1      -6.290   4.255  25.739  0.00  0.00    -0.387 OA
ATOM     32  H   UNL     1      -6.631   3.611  25.095  0.00  0.00    +0.210 HD
ENDBRANCH  16   3
BRANCH  14  18
ATOM     18  C   UNL     1      -3.664   1.605  23.408  0.00  0.00    +0.130 C 
BRANCH  18  19
ATOM      4  O   UNL     1      -3.093   0.220  25.306  0.00  0.00    -0.276 OA
ATOM      8  N   UNL     1      -4.264  -0.718  23.531  0.00  0.00    -0.312 N 
ATOM     19  C   UNL     1      -3.628   0.315  24.204  0.00  0.00    +0.216 C 
ATOM     30  H   UNL     1      -4.681  -0.545  22.620  0.00  0.00    +0.149 HD
BRANCH   8  11
ATOM     11  C   UNL     1      -4.373  -2.057  24.062  0.00  0.00    +0.073 C 
ATOM     12  C   UNL     1      -3.563  -2.487  25.250  0.00  0.00    +0.024 C 
ATOM     13  C   UNL     1      -3.264  -3.053  23.892  0.00  0.00    +0.024 C 
ENDBRANCH   8  11
ENDBRANCH  18  19
ENDBRANCH  14  18
BRANCH  17  20
ATOM     20  C   UNL     1      -2.630   4.884  25.778  0.00  0.00    +0.140 C 
BRANCH  20   9
ATOM      5  O   UNL     1      -1.454   2.272  25.824  0.00  0.00    -0.253 OA
ATOM      9  N   UNL     1      -1.607   4.388  24.903  0.00  0.00    -0.297 N 
ATOM     10  N   UNL     1      -0.100   2.891  24.009  0.00  0.00    -0.269 N 
ATOM     21  C   UNL     1      -1.078   3.090  24.988  0.00  0.00    +0.304 C 
ATOM     33  H   UNL     1      -1.256   5.007  24.178  0.00  0.00    +0.150 HD
ATOM     34  H   UNL     1       0.094   3.676  23.391  0.00  0.00    +0.156 HD
BRANCH  10  22
ATOM     22  C   UNL     1       0.662   1.724  23.768  0.00  0.00    +0.042 A 
ATOM     23  C   UNL     1       0.119   0.469  24.043  0.00  0.00    +0.069 A 
ATOM     24  C   UNL     1       1.954   1.828  23.255  0.00  0.00    +0.069 A 
ATOM     25  C   UNL     1       2.705   0.677  23.017  0.00  0.00    +0.125 A 
ATOM     26  C   UNL     1       0.870  -0.683  23.804  0.00  0.00    +0.125 A 
ATOM     27  C   UNL     1       2.163  -0.579  23.291  0.00  0.00    +0.091 A 
BRANCH  25   6
ATOM      6  O   UNL     1       3.967   0.779  22.516  0.00  0.00    -0.495 OA
ATOM     28  C   UNL     1       5.043   0.473  23.402  0.00  0.00    +0.277 C 
ENDBRANCH  25   6
BRANCH  26   7
ATOM      7  O   UNL     1       0.341  -1.909  24.073  0.00  0.00    -0.495 OA
ATOM     29  C   UNL     1      -0.208  -2.106  25.376  0.00  0.00    +0.277 C 
ENDBRANCH  26   7
ENDBRANCH  10  22
ENDBRANCH  20   9
ENDBRANCH  17  20
TORSDOF 10
ENDMDL
MODEL 2
REMARK VINA RESULT:      -2.7      0.023      2.238
REMARK  Name = 40781574
REMARK  12 active torsions:
REMARK  status: ('A' for Active; 'I' for Inactive)
REMARK    1  A    between atoms: O_2  and  C_15
REMARK    2  A    between atoms: O_3  and  C_16
REMARK    3  A    between atoms: O_6  and  C_25
REMARK    4  A    between atoms: O_6  and  C_28
REMARK    5  A    between atoms: O_7  and  C_26
REMARK    6  A    between atoms: O_7  and  C_29
REMARK    7  A    between atoms: N_8  and  C_11
REMARK    8  A    between atoms: N_9  and  C_20
REMARK    9  A    between atoms: N_10  and  C_22
REMARK   10  A    between atoms: C_14  and  C_18
REMARK   11  A    between atoms: C_17  and  C_20
REMARK   12  A    between atoms: C_18  and  C_19
REMARK                            x       y       z     vdW  Elec       q    Type
REMARK                         _______ _______ _______ _____ _____    ______ ____
ROOT
ATOM      1  O   UNL     1      -3.844   3.952  23.930  0.00  0.00    -0.366 OA
ATOM     14  C   UNL     1      -4.487   2.672  24.073  0.00  0.00    +0.158 C 
ATOM     15  C   UNL     1      -4.650   2.460  25.568  0.00  0.00    +0.175 C 
ATOM     16  C   UNL     1      -4.926   3.870  26.046  0.00  0.00    +0.176 C 
ATOM     17  C   UNL     1      -3.996   4.693  25.162  0.00  0.00    +0.167 C 
ENDROOT
BRANCH  15   2
ATOM      2  O   UNL     1      -5.693   1.555  25.864  0.00  0.00    -0.387 OA
ATOM     31  H   UNL     1      -5.486   0.716  25.419  0.00  0.00    +0.210 HD
ENDBRANCH  15   2
BRANCH  16   3
ATOM      3  O   UNL     1      -6.270   4.243  25.743  0.00  0.00    -0.387 OA
ATOM     32  H   UNL     1      -6.442   3.985  24.821  0.00  0.00    +0.210 HD
ENDBRANCH  16   3
BRANCH  14  18
ATOM     18  C   UNL     1      -3.648   1.600  23.400  0.00  0.00    +0.130 C 
BRANCH  18  19
ATOM      4  O   UNL     1      -3.077   0.208  25.294  0.00  0.00    -0.276 OA
ATOM      8  N   UNL     1      -4.247  -0.723  23.516  0.00  0.00    -0.312 N 
ATOM     19  C   UNL     1      -3.611   0.307  24.193  0.00  0.00    +0.216 C 
ATOM     30  H   UNL     1      -4.664  -0.547  22.605  0.00  0.00    +0.149 HD
BRANCH   8  11
ATOM     11  C   UNL     1      -4.356  -2.064  24.043  0.00  0.00    +0.073 C 
ATOM     12  C   UNL     1      -3.555  -2.495  25.236  0.00  0.00    +0.024 C 
ATOM     13  C   UNL     1      -3.243  -3.056  23.879  0.00  0.00    +0.024 C 
ENDBRANCH   8  11
ENDBRANCH  18  19
ENDBRANCH  14  18
BRANCH  17  20
ATOM     20  C   UNL     1      -2.611   4.881  25.767  0.00  0.00    +0.140 C 
BRANCH  20   9
ATOM      5  O   UNL     1      -1.439   2.268  25.826  0.00  0.00    -0.253 OA
ATOM      9  N   UNL     1      -1.592   4.379  24.892  0.00  0.00    -0.297 N 
ATOM     10  N   UNL     1      -0.089   2.873  24.003  0.00  0.00    -0.269 N 
ATOM     21  C   UNL     1      -1.065   3.080  24.983  0.00  0.00    +0.304 C 
ATOM     33  H   UNL     1      -1.242   4.992  24.163  0.00  0.00    +0.150 HD
ATOM     34  H   UNL     1       0.104   3.654  23.380  0.00  0.00    +0.156 HD
BRANCH  10  22
ATOM     22  C   UNL     1       0.670   1.704  23.768  0.00  0.00    +0.042 A 
ATOM     23  C   UNL     1       1.962   1.805  23.252  0.00  0.00    +0.069 A 
ATOM     24  C   UNL     1       0.128   0.451  24.051  0.00  0.00    +0.069 A 
ATOM     25  C   UNL     1       0.878  -0.702  23.820  0.00  0.00    +0.125 A 
ATOM     26  C   UNL     1       2.713   0.651  23.020  0.00  0.00    +0.125 A 
ATOM     27  C   UNL     1       2.170  -0.602  23.304  0.00  0.00    +0.091 A 
BRANCH  25   6
ATOM      6  O   UNL     1       0.348  -1.926  24.096  0.00  0.00    -0.495 OA
ATOM     28  C   UNL     1      -0.199  -2.116  25.400  0.00  0.00    +0.277 C 
ENDBRANCH  25   6
BRANCH  26   7
ATOM      7  O   UNL     1       3.974   0.750  22.516  0.00  0.00    -0.495 OA
ATOM     29  C   UNL     1       5.052   0.464  23.407  0.00  0.00    +0.277 C 
ENDBRANCH  26   7
ENDBRANCH  10  22
ENDBRANCH  20   9
ENDBRANCH  17  20
TORSDOF 10
ENDMDL
MODEL 3
REMARK VINA RESULT:      -1.7      1.341      2.356
REMARK  Name = 40781574
REMARK  12 active torsions:
REMARK  status: ('A' for Active; 'I' for Inactive)
REMARK    1  A    between atoms: O_2  and  C_15
REMARK    2  A    between atoms: O_3  and  C_16
REMARK    3  A    between atoms: O_6  and  C_25
REMARK    4  A    between atoms: O_6  and  C_28
REMARK    5  A    between atoms: O_7  and  C_26
REMARK    6  A    between atoms: O_7  and  C_29
REMARK    7  A    between atoms: N_8  and  C_11
REMARK    8  A    between atoms: N_9  and  C_20
REMARK    9  A    between atoms: N_10  and  C_22
REMARK   10  A    between atoms: C_14  and  C_18
REMARK   11  A    between atoms: C_17  and  C_20
REMARK   12  A    between atoms: C_18  and  C_19
REMARK                            x       y       z     vdW  Elec       q    Type
REMARK                         _______ _______ _______ _____ _____    ______ ____
ROOT
ATOM      1  O   UNL     1      -3.423   3.663  23.951  0.00  0.00    -0.366 OA
ATOM     14  C   UNL     1      -4.166   2.431  23.935  0.00  0.00    +0.158 C 
ATOM     15  C   UNL     1      -4.422   2.088  25.393  0.00  0.00    +0.175 C 
ATOM     16  C   UNL     1      -4.615   3.463  25.999  0.00  0.00    +0.176 C 
ATOM     17  C   UNL     1      -3.582   4.291  25.244  0.00  0.00    +0.167 C 
ENDROOT
BRANCH  15   2
ATOM      2  O   UNL     1      -5.543   1.245  25.550  0.00  0.00    -0.387 OA
ATOM     31  H   UNL     1      -6.213   1.741  26.049  0.00  0.00    +0.210 HD
ENDBRANCH  15   2
BRANCH  16   3
ATOM      3  O   UNL     1      -5.910   3.969  25.675  0.00  0.00    -0.387 OA
ATOM     32  H   UNL     1      -5.952   4.887  25.993  0.00  0.00    +0.210 HD
ENDBRANCH  16   3
BRANCH  14  18
ATOM     18  C   UNL     1      -3.375   1.366  23.196  0.00  0.00    +0.130 C 
BRANCH  18  19
ATOM      4  O   UNL     1      -2.299   0.032  24.902  0.00  0.00    -0.276 OA
ATOM      8  N   UNL     1      -4.044  -0.891  23.676  0.00  0.00    -0.312 N 
ATOM     19  C   UNL     1      -3.159   0.118  24.030  0.00  0.00    +0.216 C 
ATOM     30  H   UNL     1      -4.726  -0.729  22.940  0.00  0.00    +0.149 HD
BRANCH   8  11
ATOM     11  C   UNL     1      -4.055  -2.189  24.311  0.00  0.00    +0.073 C 
ATOM     12  C   UNL     1      -3.324  -2.427  25.600  0.00  0.00    +0.024 C 
ATOM     13  C   UNL     1      -2.830  -3.055  24.329  0.00  0.00    +0.024 C 
ENDBRANCH   8  11
ENDBRANCH  18  19
ENDBRANCH  14  18
BRANCH  17  20
ATOM     20  C   UNL     1      -2.221   4.309  25.924  0.00  0.00    +0.140 C 
BRANCH  20   9
ATOM      5  O   UNL     1      -0.256   3.858  23.889  0.00  0.00    -0.253 OA
ATOM      9  N   UNL     1      -1.503   3.092  25.680  0.00  0.00    -0.297 N 
ATOM     10  N   UNL     1      -0.018   1.654  24.660  0.00  0.00    -0.269 N 
ATOM     21  C   UNL     1      -0.550   2.946  24.658  0.00  0.00    +0.304 C 
ATOM     33  H   UNL     1      -1.687   2.298  26.286  0.00  0.00    +0.150 HD
ATOM     34  H   UNL     1      -0.373   1.015  25.369  0.00  0.00    +0.156 HD
BRANCH  10  22
ATOM     22  C   UNL     1       0.962   1.117  23.793  0.00  0.00    +0.042 A 
ATOM     23  C   UNL     1       2.310   1.412  23.997  0.00  0.00    +0.069 A 
ATOM     24  C   UNL     1       0.581   0.292  22.736  0.00  0.00    +0.069 A 
ATOM     25  C   UNL     1       1.547  -0.238  21.881  0.00  0.00    +0.125 A 
ATOM     26  C   UNL     1       3.277   0.882  23.143  0.00  0.00    +0.125 A 
ATOM     27  C   UNL     1       2.896   0.056  22.084  0.00  0.00    +0.091 A 
BRANCH  25   6
ATOM      6  O   UNL     1       1.175  -1.044  20.848  0.00  0.00    -0.495 OA
ATOM     28  C   UNL     1       0.019  -0.657  20.108  0.00  0.00    +0.277 C 
ENDBRANCH  25   6
BRANCH  26   7
ATOM      7  O   UNL     1       4.593   1.170  23.341  0.00  0.00    -0.495 OA
ATOM     29  C   UNL     1       5.447   0.085  23.701  0.00  0.00    +0.277 C 
ENDBRANCH  26   7
ENDBRANCH  10  22
ENDBRANCH  20   9
ENDBRANCH  17  20
TORSDOF 10
ENDMDL
MODEL 4
REMARK VINA RESULT:      -1.7      1.332      1.554
REMARK  Name = 40781574
REMARK  12 active torsions:
REMARK  status: ('A' for Active; 'I' for Inactive)
REMARK    1  A    between atoms: O_2  and  C_15
REMARK    2  A    between atoms: O_3  and  C_16
REMARK    3  A    between atoms: O_6  and  C_25
REMARK    4  A    between atoms: O_6  and  C_28
REMARK    5  A    between atoms: O_7  and  C_26
REMARK    6  A    between atoms: O_7  and  C_29
REMARK    7  A    between atoms: N_8  and  C_11
REMARK    8  A    between atoms: N_9  and  C_20
REMARK    9  A    between atoms: N_10  and  C_22
REMARK   10  A    between atoms: C_14  and  C_18
REMARK   11  A    between atoms: C_17  and  C_20
REMARK   12  A    between atoms: C_18  and  C_19
REMARK                            x       y       z     vdW  Elec       q    Type
REMARK                         _______ _______ _______ _____ _____    ______ ____
ROOT
ATOM      1  O   UNL     1      -3.417   3.668  23.943  0.00  0.00    -0.366 OA
ATOM     14  C   UNL     1      -4.157   2.434  23.919  0.00  0.00    +0.158 C 
ATOM     15  C   UNL     1      -4.424   2.086  25.373  0.00  0.00    +0.175 C 
ATOM     16  C   UNL     1      -4.625   3.459  25.981  0.00  0.00    +0.176 C 
ATOM     17  C   UNL     1      -3.588   4.292  25.237  0.00  0.00    +0.167 C 
ENDROOT
BRANCH  15   2
ATOM      2  O   UNL     1      -5.544   1.240  25.519  0.00  0.00    -0.387 OA
ATOM     31  H   UNL     1      -6.264   1.772  25.895  0.00  0.00    +0.210 HD
ENDBRANCH  15   2
BRANCH  16   3
ATOM      3  O   UNL     1      -5.919   3.963  25.649  0.00  0.00    -0.387 OA
ATOM     32  H   UNL     1      -6.519   3.201  25.582  0.00  0.00    +0.210 HD
ENDBRANCH  16   3
BRANCH  14  18
ATOM     18  C   UNL     1      -3.358   1.373  23.182  0.00  0.00    +0.130 C 
BRANCH  18  19
ATOM      4  O   UNL     1      -2.286   0.001  24.861  0.00  0.00    -0.276 OA
ATOM      8  N   UNL     1      -4.083  -0.865  23.670  0.00  0.00    -0.312 N 
ATOM     19  C   UNL     1      -3.161   0.116  24.007  0.00  0.00    +0.216 C 
ATOM     30  H   UNL     1      -4.776  -0.679  22.949  0.00  0.00    +0.149 HD
BRANCH   8  11
ATOM     11  C   UNL     1      -4.120  -2.164  24.300  0.00  0.00    +0.073 C 
ATOM     12  C   UNL     1      -3.341  -2.439  25.553  0.00  0.00    +0.024 C 
ATOM     13  C   UNL     1      -2.932  -3.081  24.259  0.00  0.00    +0.024 C 
ENDBRANCH   8  11
ENDBRANCH  18  19
ENDBRANCH  14  18
BRANCH  17  20
ATOM     20  C   UNL     1      -2.232   4.311  25.928  0.00  0.00    +0.140 C 
BRANCH  20   9
ATOM      5  O   UNL     1      -0.260   3.854  23.901  0.00  0.00    -0.253 OA
ATOM      9  N   UNL     1      -1.512   3.094  25.691  0.00  0.00    -0.297 N 
ATOM     10  N   UNL     1      -0.022   1.653  24.682  0.00  0.00    -0.269 N 
ATOM     21  C   UNL     1      -0.556   2.945  24.673  0.00  0.00    +0.304 C 
ATOM     33  H   UNL     1      -1.698   2.302  26.299  0.00  0.00    +0.150 HD
ATOM     34  H   UNL     1      -0.378   1.017  25.393  0.00  0.00    +0.156 HD
BRANCH  10  22
ATOM     22  C   UNL     1       0.962   1.114  23.821  0.00  0.00    +0.042 A 
ATOM     23  C   UNL     1       0.583   0.286  22.764  0.00  0.00    +0.069 A 
ATOM     24  C   UNL     1       2.308   1.412  24.026  0.00  0.00    +0.069 A 
ATOM     25  C   UNL     1       3.278   0.880  23.176  0.00  0.00    +0.125 A 
ATOM     26  C   UNL     1       1.553  -0.246  21.913  0.00  0.00    +0.125 A 
ATOM     27  C   UNL     1       2.900   0.051  22.119  0.00  0.00    +0.091 A 
BRANCH  25   6
ATOM      6  O   UNL     1       4.593   1.170  23.377  0.00  0.00    -0.495 OA
ATOM     28  C   UNL     1       5.488   0.067  23.508  0.00  0.00    +0.277 C 
ENDBRANCH  25   6
BRANCH  26   7
ATOM      7  O   UNL     1       1.184  -1.055  20.882  0.00  0.00    -0.495 OA
ATOM     29  C   UNL     1       0.052  -0.650  20.114  0.00  0.00    +0.277 C 
ENDBRANCH  26   7
ENDBRANCH  10  22
ENDBRANCH  20   9
ENDBRANCH  17  20
TORSDOF 10
ENDMDL
MODEL 5
REMARK VINA RESULT:      -0.1      1.839      7.248
REMARK  Name = 40781574
REMARK  12 active torsions:
REMARK  status: ('A' for Active; 'I' for Inactive)
REMARK    1  A    between atoms: O_2  and  C_15
REMARK    2  A    between atoms: O_3  and  C_16
REMARK    3  A    between atoms: O_6  and  C_25
REMARK    4  A    between atoms: O_6  and  C_28
REMARK    5  A    between atoms: O_7  and  C_26
REMARK    6  A    between atoms: O_7  and  C_29
REMARK    7  A    between atoms: N_8  and  C_11
REMARK    8  A    between atoms: N_9  and  C_20
REMARK    9  A    between atoms: N_10  and  C_22
REMARK   10  A    between atoms: C_14  and  C_18
REMARK   11  A    between atoms: C_17  and  C_20
REMARK   12  A    between atoms: C_18  and  C_19
REMARK                            x       y       z     vdW  Elec       q    Type
REMARK                         _______ _______ _______ _____ _____    ______ ____
ROOT
ATOM      1  O   UNL     1      -1.329  -2.264  23.216  0.00  0.00    -0.366 OA
ATOM     14  C   UNL     1      -0.447  -1.384  23.936  0.00  0.00    +0.158 C 
ATOM     15  C   UNL     1      -0.894  -1.451  25.386  0.00  0.00    +0.175 C 
ATOM     16  C   UNL     1      -1.313  -2.902  25.507  0.00  0.00    +0.176 C 
ATOM     17  C   UNL     1      -1.970  -3.157  24.156  0.00  0.00    +0.167 C 
ENDROOT
BRANCH  15   2
ATOM      2  O   UNL     1       0.140  -1.092  26.277  0.00  0.00    -0.387 OA
ATOM     31  H   UNL     1       0.832  -0.649  25.757  0.00  0.00    +0.210 HD
ENDBRANCH  15   2
BRANCH  16   3
ATOM      3  O   UNL     1      -0.163  -3.743  25.606  0.00  0.00    -0.387 OA
ATOM     32  H   UNL     1      -0.247  -4.431  24.924  0.00  0.00    +0.210 HD
ENDBRANCH  16   3
BRANCH  14  18
ATOM     18  C   UNL     1      -0.526   0.013  23.346  0.00  0.00    +0.130 C 
BRANCH  18  19
ATOM      4  O   UNL     1       0.715   1.850  24.314  0.00  0.00    -0.276 OA
ATOM      8  N   UNL     1       1.836   0.292  23.004  0.00  0.00    -0.312 N 
ATOM     19  C   UNL     1       0.719   0.834  23.624  0.00  0.00    +0.216 C 
ATOM     30  H   UNL     1       1.744  -0.557  22.452  0.00  0.00    +0.149 HD
BRANCH   8  11
ATOM     11  C   UNL     1       3.154   0.876  23.102  0.00  0.00    +0.073 C 
ATOM     12  C   UNL     1       4.185   0.645  22.037  0.00  0.00    +0.024 C 
ATOM     13  C   UNL     1       4.358   0.030  23.395  0.00  0.00    +0.024 C 
ENDBRANCH   8  11
ENDBRANCH  18  19
ENDBRANCH  14  18
BRANCH  17  20
ATOM     20  C   UNL     1      -3.460  -2.847  24.150  0.00  0.00    +0.140 C 
BRANCH  20   9
ATOM      5  O   UNL     1      -3.410  -0.579  25.900  0.00  0.00    -0.253 OA
ATOM      9  N   UNL     1      -3.704  -1.480  23.790  0.00  0.00    -0.297 N 
ATOM     10  N   UNL     1      -3.939   0.796  24.073  0.00  0.00    -0.269 N 
ATOM     21  C   UNL     1      -3.661  -0.418  24.709  0.00  0.00    +0.304 C 
ATOM     33  H   UNL     1      -3.906  -1.270  22.818  0.00  0.00    +0.150 HD
ATOM     34  H   UNL     1      -4.127   0.755  23.073  0.00  0.00    +0.156 HD
BRANCH  10  22
ATOM     22  C   UNL     1      -3.991   2.086  24.650  0.00  0.00    +0.042 A 
ATOM     23  C   UNL     1      -2.810   2.780  24.912  0.00  0.00    +0.069 A 
ATOM     24  C   UNL     1      -5.223   2.664  24.955  0.00  0.00    +0.069 A 
ATOM     25  C   UNL     1      -5.274   3.936  25.523  0.00  0.00    +0.125 A 
ATOM     26  C   UNL     1      -2.861   4.054  25.480  0.00  0.00    +0.125 A 
ATOM     27  C   UNL     1      -4.093   4.632  25.786  0.00  0.00    +0.091 A 
BRANCH  25   6
ATOM      6  O   UNL     1      -6.477   4.501  25.822  0.00  0.00    -0.495 OA
ATOM     28  C   UNL     1      -6.672   5.858  25.430  0.00  0.00    +0.277 C 
ENDBRANCH  25   6
BRANCH  26   7
ATOM      7  O   UNL     1      -1.708   4.732  25.736  0.00  0.00    -0.495 OA
ATOM     29  C   UNL     1      -0.793   4.887  24.652  0.00  0.00    +0.277 C 
ENDBRANCH  26   7
ENDBRANCH  10  22
ENDBRANCH  20   9
ENDBRANCH  17  20
TORSDOF 10
ENDMDL
MODEL 6
REMARK VINA RESULT:      -0.1      1.847      6.963
REMARK  Name = 40781574
REMARK  12 active torsions:
REMARK  status: ('A' for Active; 'I' for Inactive)
REMARK    1  A    between atoms: O_2  and  C_15
REMARK    2  A    between atoms: O_3  and  C_16
REMARK    3  A    between atoms: O_6  and  C_25
REMARK    4  A    between atoms: O_6  and  C_28
REMARK    5  A    between atoms: O_7  and  C_26
REMARK    6  A    between atoms: O_7  and  C_29
REMARK    7  A    between atoms: N_8  and  C_11
REMARK    8  A    between atoms: N_9  and  C_20
REMARK    9  A    between atoms: N_10  and  C_22
REMARK   10  A    between atoms: C_14  and  C_18
REMARK   11  A    between atoms: C_17  and  C_20
REMARK   12  A    between atoms: C_18  and  C_19
REMARK                            x       y       z     vdW  Elec       q    Type
REMARK                         _______ _______ _______ _____ _____    ______ ____
ROOT
ATOM      1  O   UNL     1      -1.358  -2.335  23.237  0.00  0.00    -0.366 OA
ATOM     14  C   UNL     1      -0.479  -1.432  23.931  0.00  0.00    +0.158 C 
ATOM     15  C   UNL     1      -0.941  -1.440  25.378  0.00  0.00    +0.175 C 
ATOM     16  C   UNL     1      -1.370  -2.883  25.551  0.00  0.00    +0.176 C 
ATOM     17  C   UNL     1      -2.014  -3.187  24.204  0.00  0.00    +0.167 C 
ENDROOT
BRANCH  15   2
ATOM      2  O   UNL     1       0.086  -1.052  26.265  0.00  0.00    -0.387 OA
ATOM     31  H   UNL     1      -0.079  -1.495  27.114  0.00  0.00    +0.210 HD
ENDBRANCH  15   2
BRANCH  16   3
ATOM      3  O   UNL     1      -0.226  -3.726  25.695  0.00  0.00    -0.387 OA
ATOM     32  H   UNL     1       0.533  -3.254  25.313  0.00  0.00    +0.210 HD
ENDBRANCH  16   3
BRANCH  14  18
ATOM     18  C   UNL     1      -0.543  -0.059  23.287  0.00  0.00    +0.130 C 
BRANCH  18  19
ATOM      4  O   UNL     1       0.656   1.804  24.257  0.00  0.00    -0.276 OA
ATOM      8  N   UNL     1       1.822   0.244  22.989  0.00  0.00    -0.312 N 
ATOM     19  C   UNL     1       0.686   0.780  23.580  0.00  0.00    +0.216 C 
ATOM     30  H   UNL     1       1.751  -0.612  22.445  0.00  0.00    +0.149 HD
BRANCH   8  11
ATOM     11  C   UNL     1       3.130   0.845  23.106  0.00  0.00    +0.073 C 
ATOM     12  C   UNL     1       4.169   0.655  22.039  0.00  0.00    +0.024 C 
ATOM     13  C   UNL     1       4.346   0.010  23.383  0.00  0.00    +0.024 C 
ENDBRANCH   8  11
ENDBRANCH  18  19
ENDBRANCH  14  18
BRANCH  17  20
ATOM     20  C   UNL     1      -3.503  -2.869  24.170  0.00  0.00    +0.140 C 
BRANCH  20   9
ATOM      5  O   UNL     1      -3.432  -0.608  25.928  0.00  0.00    -0.253 OA
ATOM      9  N   UNL     1      -3.732  -1.499  23.815  0.00  0.00    -0.297 N 
ATOM     10  N   UNL     1      -3.944   0.778  24.104  0.00  0.00    -0.269 N 
ATOM     21  C   UNL     1      -3.680  -0.440  24.736  0.00  0.00    +0.304 C 
ATOM     33  H   UNL     1      -3.931  -1.284  22.842  0.00  0.00    +0.150 HD
ATOM     34  H   UNL     1      -4.132   0.742  23.104  0.00  0.00    +0.156 HD
BRANCH  10  22
ATOM     22  C   UNL     1      -3.984   2.067  24.684  0.00  0.00    +0.042 A 
ATOM     23  C   UNL     1      -5.212   2.660  24.978  0.00  0.00    +0.069 A 
ATOM     24  C   UNL     1      -2.797   2.743  24.964  0.00  0.00    +0.069 A 
ATOM     25  C   UNL     1      -2.837   4.014  25.538  0.00  0.00    +0.125 A 
ATOM     26  C   UNL     1      -5.252   3.932  25.553  0.00  0.00    +0.125 A 
ATOM     27  C   UNL     1      -4.065   4.609  25.832  0.00  0.00    +0.091 A 
BRANCH  25   6
ATOM      6  O   UNL     1      -1.679   4.675  25.810  0.00  0.00    -0.495 OA
ATOM     28  C   UNL     1      -0.826   4.973  24.706  0.00  0.00    +0.277 C 
ENDBRANCH  25   6
BRANCH  26   7
ATOM      7  O   UNL     1      -6.450   4.512  25.839  0.00  0.00    -0.495 OA
ATOM     29  C   UNL     1      -6.675   5.823  25.324  0.00  0.00    +0.277 C 
ENDBRANCH  26   7
ENDBRANCH  10  22
ENDBRANCH  20   9
ENDBRANCH  17  20
TORSDOF 10
ENDMDL
MODEL 7
REMARK VINA RESULT:       0.6      1.987      5.185
REMARK  Name = 40781574
REMARK  12 active torsions:
REMARK  status: ('A' for Active; 'I' for Inactive)
REMARK    1  A    between atoms: O_2  and  C_15
REMARK    2  A    between atoms: O_3  and  C_16
REMARK    3  A    between atoms: O_6  and  C_25
REMARK    4  A    between atoms: O_6  and  C_28
REMARK    5  A    between atoms: O_7  and  C_26
REMARK    6  A    between atoms: O_7  and  C_29
REMARK    7  A    between atoms: N_8  and  C_11
REMARK    8  A    between atoms: N_9  and  C_20
REMARK    9  A    between atoms: N_10  and  C_22
REMARK   10  A    between atoms: C_14  and  C_18
REMARK   11  A    between atoms: C_17  and  C_20
REMARK   12  A    between atoms: C_18  and  C_19
REMARK                            x       y       z     vdW  Elec       q    Type
REMARK                         _______ _______ _______ _____ _____    ______ ____
ROOT
ATOM      1  O   UNL     1      -1.841   3.803  26.369  0.00  0.00    -0.366 OA
ATOM     14  C   UNL     1      -0.696   3.455  25.569  0.00  0.00    +0.158 C 
ATOM     15  C   UNL     1      -0.997   3.972  24.173  0.00  0.00    +0.175 C 
ATOM     16  C   UNL     1      -1.759   5.246  24.479  0.00  0.00    +0.176 C 
ATOM     17  C   UNL     1      -2.592   4.835  25.688  0.00  0.00    +0.167 C 
ENDROOT
BRANCH  15   2
ATOM      2  O   UNL     1       0.178   4.191  23.423  0.00  0.00    -0.387 OA
ATOM     31  H   UNL     1      -0.053   4.098  22.484  0.00  0.00    +0.210 HD
ENDBRANCH  15   2
BRANCH  16   3
ATOM      3  O   UNL     1      -0.859   6.275  24.890  0.00  0.00    -0.387 OA
ATOM     32  H   UNL     1      -0.416   6.609  24.092  0.00  0.00    +0.210 HD
ENDBRANCH  16   3
BRANCH  14  18
ATOM     18  C   UNL     1      -0.473   1.954  25.620  0.00  0.00    +0.130 C 
BRANCH  18  19
ATOM      4  O   UNL     1      -0.715   0.820  23.498  0.00  0.00    -0.276 OA
ATOM      8  N   UNL     1       1.378   1.610  24.128  0.00  0.00    -0.312 N 
ATOM     19  C   UNL     1       0.018   1.393  24.299  0.00  0.00    +0.216 C 
ATOM     30  H   UNL     1       1.906   2.097  24.847  0.00  0.00    +0.149 HD
BRANCH   8  11
ATOM     11  C   UNL     1       2.104   1.175  22.957  0.00  0.00    +0.073 C 
ATOM     12  C   UNL     1       2.582  -0.241  22.823  0.00  0.00    +0.024 C 
ATOM     13  C   UNL     1       3.572   0.869  23.023  0.00  0.00    +0.024 C 
ENDBRANCH   8  11
ENDBRANCH  18  19
ENDBRANCH  14  18
BRANCH  17  20
ATOM     20  C   UNL     1      -3.946   4.252  25.309  0.00  0.00    +0.140 C 
BRANCH  20   9
ATOM      5  O   UNL     1      -3.247   1.973  23.720  0.00  0.00    -0.253 OA
ATOM      9  N   UNL     1      -4.044   2.875  25.695  0.00  0.00    -0.297 N 
ATOM     10  N   UNL     1      -3.883   0.583  25.502  0.00  0.00    -0.269 N 
ATOM     21  C   UNL     1      -3.680   1.808  24.858  0.00  0.00    +0.304 C 
ATOM     33  H   UNL     1      -4.384   2.663  26.629  0.00  0.00    +0.150 HD
ATOM     34  H   UNL     1      -4.251   0.622  26.450  0.00  0.00    +0.156 HD
BRANCH  10  22
ATOM     22  C   UNL     1      -3.639  -0.714  24.996  0.00  0.00    +0.042 A 
ATOM     23  C   UNL     1      -4.643  -1.393  24.305  0.00  0.00    +0.069 A 
ATOM     24  C   UNL     1      -2.395  -1.315  25.187  0.00  0.00    +0.069 A 
ATOM     25  C   UNL     1      -2.154  -2.595  24.687  0.00  0.00    +0.125 A 
ATOM     26  C   UNL     1      -4.402  -2.673  23.805  0.00  0.00    +0.125 A 
ATOM     27  C   UNL     1      -3.158  -3.274  23.996  0.00  0.00    +0.091 A 
BRANCH  25   6
ATOM      6  O   UNL     1      -0.940  -3.181  24.874  0.00  0.00    -0.495 OA
ATOM     28  C   UNL     1       0.118  -2.347  25.343  0.00  0.00    +0.277 C 
ENDBRANCH  25   6
BRANCH  26   7
ATOM      7  O   UNL     1      -5.382  -3.336  23.131  0.00  0.00    -0.495 OA
ATOM     29  C   UNL     1      -4.988  -4.076  21.977  0.00  0.00    +0.277 C 
ENDBRANCH  26   7
ENDBRANCH  10  22
ENDBRANCH  20   9
ENDBRANCH  17  20
TORSDOF 10
ENDMDL
MODEL 8
REMARK VINA RESULT:       0.6      1.990      5.487
REMARK  Name = 40781574
REMARK  12 active torsions:
REMARK  status: ('A' for Active; 'I' for Inactive)
REMARK    1  A    between atoms: O_2  and  C_15
REMARK    2  A    between atoms: O_3  and  C_16
REMARK    3  A    between atoms: O_6  and  C_25
REMARK    4  A    between atoms: O_6  and  C_28
REMARK    5  A    between atoms: O_7  and  C_26
REMARK    6  A    between atoms: O_7  and  C_29
REMARK    7  A    between atoms: N_8  and  C_11
REMARK    8  A    between atoms: N_9  and  C_20
REMARK    9  A    between atoms: N_10  and  C_22
REMARK   10  A    between atoms: C_14  and  C_18
REMARK   11  A    between atoms: C_17  and  C_20
REMARK   12  A    between atoms: C_18  and  C_19
REMARK                            x       y       z     vdW  Elec       q    Type
REMARK                         _______ _______ _______ _____ _____    ______ ____
ROOT
ATOM      1  O   UNL     1      -1.845   3.815  26.350  0.00  0.00    -0.366 OA
ATOM     14  C   UNL     1      -0.694   3.474  25.557  0.00  0.00    +0.158 C 
ATOM     15  C   UNL     1      -0.989   3.994  24.160  0.00  0.00    +0.175 C 
ATOM     16  C   UNL     1      -1.757   5.264  24.465  0.00  0.00    +0.176 C 
ATOM     17  C   UNL     1      -2.596   4.846  25.668  0.00  0.00    +0.167 C 
ENDROOT
BRANCH  15   2
ATOM      2  O   UNL     1       0.191   4.219  23.419  0.00  0.00    -0.387 OA
ATOM     31  H   UNL     1      -0.007   4.901  22.756  0.00  0.00    +0.210 HD
ENDBRANCH  15   2
BRANCH  16   3
ATOM      3  O   UNL     1      -0.864   6.295  24.885  0.00  0.00    -0.387 OA
ATOM     32  H   UNL     1      -0.158   5.874  25.405  0.00  0.00    +0.210 HD
ENDBRANCH  16   3
BRANCH  14  18
ATOM     18  C   UNL     1      -0.466   1.974  25.605  0.00  0.00    +0.130 C 
BRANCH  18  19
ATOM      4  O   UNL     1      -0.705   0.861  23.471  0.00  0.00    -0.276 OA
ATOM      8  N   UNL     1       1.392   1.617  24.125  0.00  0.00    -0.312 N 
ATOM     19  C   UNL     1       0.029   1.417  24.284  0.00  0.00    +0.216 C 
ATOM     30  H   UNL     1       1.921   2.091  24.853  0.00  0.00    +0.149 HD
BRANCH   8  11
ATOM     11  C   UNL     1       2.123   1.182  22.957  0.00  0.00    +0.073 C 
ATOM     12  C   UNL     1       2.639  -0.222  22.844  0.00  0.00    +0.024 C 
ATOM     13  C   UNL     1       3.599   0.919  23.017  0.00  0.00    +0.024 C 
ENDBRANCH   8  11
ENDBRANCH  18  19
ENDBRANCH  14  18
BRANCH  17  20
ATOM     20  C   UNL     1      -3.946   4.260  25.278  0.00  0.00    +0.140 C 
BRANCH  20   9
ATOM      5  O   UNL     1      -3.247   1.974  23.699  0.00  0.00    -0.253 OA
ATOM      9  N   UNL     1      -4.045   2.884  25.670  0.00  0.00    -0.297 N 
ATOM     10  N   UNL     1      -3.886   0.591  25.485  0.00  0.00    -0.269 N 
ATOM     21  C   UNL     1      -3.681   1.813  24.837  0.00  0.00    +0.304 C 
ATOM     33  H   UNL     1      -4.386   2.675  26.604  0.00  0.00    +0.150 HD
ATOM     34  H   UNL     1      -4.255   0.634  26.433  0.00  0.00    +0.156 HD
BRANCH  10  22
ATOM     22  C   UNL     1      -3.642  -0.708  24.985  0.00  0.00    +0.042 A 
ATOM     23  C   UNL     1      -2.401  -1.311  25.186  0.00  0.00    +0.069 A 
ATOM     24  C   UNL     1      -4.643  -1.388  24.291  0.00  0.00    +0.069 A 
ATOM     25  C   UNL     1      -4.403  -2.670  23.799  0.00  0.00    +0.125 A 
ATOM     26  C   UNL     1      -2.160  -2.594  24.694  0.00  0.00    +0.125 A 
ATOM     27  C   UNL     1      -3.161  -3.274  23.999  0.00  0.00    +0.091 A 
BRANCH  25   6
ATOM      6  O   UNL     1      -5.380  -3.334  23.121  0.00  0.00    -0.495 OA
ATOM     28  C   UNL     1      -4.982  -4.076  21.970  0.00  0.00    +0.277 C 
ENDBRANCH  25   6
BRANCH  26   7
ATOM      7  O   UNL     1      -0.948  -3.183  24.890  0.00  0.00    -0.495 OA
ATOM     29  C   UNL     1       0.110  -2.347  25.356  0.00  0.00    +0.277 C 
ENDBRANCH  26   7
ENDBRANCH  10  22
ENDBRANCH  20   9
ENDBRANCH  17  20
TORSDOF 10
ENDMDL
MODEL 9
REMARK VINA RESULT:       0.8      1.231      3.078
REMARK  Name = 40781574
REMARK  12 active torsions:
REMARK  status: ('A' for Active; 'I' for Inactive)
REMARK    1  A    between atoms: O_2  and  C_15
REMARK    2  A    between atoms: O_3  and  C_16
REMARK    3  A    between atoms: O_6  and  C_25
REMARK    4  A    between atoms: O_6  and  C_28
REMARK    5  A    between atoms: O_7  and  C_26
REMARK    6  A    between atoms: O_7  and  C_29
REMARK    7  A    between atoms: N_8  and  C_11
REMARK    8  A    between atoms: N_9  and  C_20
REMARK    9  A    between atoms: N_10  and  C_22
REMARK   10  A    between atoms: C_14  and  C_18
REMARK   11  A    between atoms: C_17  and  C_20
REMARK   12  A    between atoms: C_18  and  C_19
REMARK                            x       y       z     vdW  Elec       q    Type
REMARK                         _______ _______ _______ _____ _____    ______ ____
ROOT
ATOM      1  O   UNL     1      -4.200   3.031  24.712  0.00  0.00    -0.366 OA
ATOM     14  C   UNL     1      -5.206   2.126  25.203  0.00  0.00    +0.158 C 
ATOM     15  C   UNL     1      -5.584   2.642  26.582  0.00  0.00    +0.175 C 
ATOM     16  C   UNL     1      -5.476   4.140  26.385  0.00  0.00    +0.176 C 
ATOM     17  C   UNL     1      -4.255   4.255  25.480  0.00  0.00    +0.167 C 
ENDROOT
BRANCH  15   2
ATOM      2  O   UNL     1      -6.874   2.220  26.970  0.00  0.00    -0.387 OA
ATOM     31  H   UNL     1      -7.469   2.982  26.880  0.00  0.00    +0.210 HD
ENDBRANCH  15   2
BRANCH  16   3
ATOM      3  O   UNL     1      -6.609   4.627  25.665  0.00  0.00    -0.387 OA
ATOM     32  H   UNL     1      -6.274   5.140  24.909  0.00  0.00    +0.210 HD
ENDBRANCH  16   3
BRANCH  14  18
ATOM     18  C   UNL     1      -4.657   0.711  25.220  0.00  0.00    +0.130 C 
BRANCH  18  19
ATOM      4  O   UNL     1      -3.830  -0.808  23.529  0.00  0.00    -0.276 OA
ATOM      8  N   UNL     1      -3.457   1.472  23.283  0.00  0.00    -0.312 N 
ATOM     19  C   UNL     1      -3.947   0.347  23.930  0.00  0.00    +0.216 C 
ATOM     30  H   UNL     1      -3.603   2.392  23.690  0.00  0.00    +0.149 HD
BRANCH   8  11
ATOM     11  C   UNL     1      -2.736   1.412  22.032  0.00  0.00    +0.073 C 
ATOM     12  C   UNL     1      -1.720   2.457  21.672  0.00  0.00    +0.024 C 
ATOM     13  C   UNL     1      -3.019   2.383  20.924  0.00  0.00    +0.024 C 
ENDBRANCH   8  11
ENDBRANCH  18  19
ENDBRANCH  14  18
BRANCH  17  20
ATOM     20  C   UNL     1      -2.950   4.379  26.254  0.00  0.00    +0.140 C 
BRANCH  20   9
ATOM      5  O   UNL     1      -1.884   1.757  25.811  0.00  0.00    -0.253 OA
ATOM      9  N   UNL     1      -1.826   4.038  25.431  0.00  0.00    -0.297 N 
ATOM     10  N   UNL     1      -0.254   2.697  24.408  0.00  0.00    -0.269 N 
ATOM     21  C   UNL     1      -1.360   2.723  25.263  0.00  0.00    +0.304 C 
ATOM     33  H   UNL     1      -1.350   4.786  24.937  0.00  0.00    +0.150 HD
ATOM     34  H   UNL     1       0.056   3.592  24.036  0.00  0.00    +0.156 HD
BRANCH  10  22
ATOM     22  C   UNL     1       0.495   1.572  23.991  0.00  0.00    +0.042 A 
ATOM     23  C   UNL     1       1.776   1.744  23.469  0.00  0.00    +0.069 A 
ATOM     24  C   UNL     1      -0.047   0.293  24.104  0.00  0.00    +0.069 A 
ATOM     25  C   UNL     1       0.692  -0.817  23.695  0.00  0.00    +0.125 A 
ATOM     26  C   UNL     1       2.517   0.634  23.059  0.00  0.00    +0.125 A 
ATOM     27  C   UNL     1       1.974  -0.647  23.172  0.00  0.00    +0.091 A 
BRANCH  25   6
ATOM      6  O   UNL     1       0.162  -2.066  23.804  0.00  0.00    -0.495 OA
ATOM     28  C   UNL     1      -0.879  -2.248  24.762  0.00  0.00    +0.277 C 
ENDBRANCH  25   6
BRANCH  26   7
ATOM      7  O   UNL     1       3.768   0.801  22.549  0.00  0.00    -0.495 OA
ATOM     29  C   UNL     1       4.863   0.406  23.374  0.00  0.00    +0.277 C 
ENDBRANCH  26   7
ENDBRANCH  10  22
ENDBRANCH  20   9
ENDBRANCH  17  20
TORSDOF 10
ENDMDL
