MODEL 1
REMARK VINA RESULT:      -2.1      0.000      0.000
REMARK  Name = 11884078
REMARK  9 active torsions:
REMARK  status: ('A' for Active; 'I' for Inactive)
REMARK    1  A    between atoms: S_1  and  N_9
REMARK    2  A    between atoms: S_1  and  C_17
REMARK    3  A    between atoms: O_4  and  C_14
REMARK    4  A    between atoms: O_4  and  C_18
REMARK    5  A    between atoms: O_8  and  C_30
REMARK    6  A    between atoms: O_8  and  C_31
REMARK    7  A    between atoms: N_9  and  C_13
REMARK    8  A    between atoms: N_10  and  C_22
REMARK    9  A    between atoms: C_17  and  C_19
REMARK                            x       y       z     vdW  Elec       q    Type
REMARK                         _______ _______ _______ _____ _____    ______ ____
ROOT
ATOM      2  O   UNL     1      -2.416   0.699  23.420  0.00  0.00    -0.369 OA
ATOM      3  O   UNL     1      -5.187  -0.314  24.294  0.00  0.00    -0.368 OA
ATOM     11  C   UNL     1      -4.371   0.781  24.762  0.00  0.00    +0.171 C 
ATOM     12  C   UNL     1      -2.931   0.313  24.704  0.00  0.00    +0.191 C 
ATOM     13  C   UNL     1      -4.424   1.920  23.775  0.00  0.00    +0.133 C 
ATOM     14  C   UNL     1      -3.067  -1.185  24.826  0.00  0.00    +0.235 C 
ATOM     15  C   UNL     1      -3.381   1.524  22.749  0.00  0.00    +0.183 C 
ATOM     16  C   UNL     1      -4.344  -1.451  24.061  0.00  0.00    +0.207 C 
ENDROOT
BRANCH  13   9
ATOM      9  N   UNL     1      -4.022   3.184  24.438  0.00  0.00    -0.186 NA
ATOM     32  H   UNL     1      -3.039   3.470  24.345  0.00  0.00    +0.148 HD
BRANCH   9   1
ATOM      1  S   UNL     1      -4.920   3.734  25.776  0.00  0.00    +0.034 S 
ATOM      5  O   UNL     1      -5.610   2.623  26.401  0.00  0.00    -0.158 OA
ATOM      6  O   UNL     1      -5.644   4.926  25.376  0.00  0.00    -0.158 OA
BRANCH   1  17
ATOM     17  C   UNL     1      -3.611   4.248  26.863  0.00  0.00    +0.220 C 
BRANCH  17  19
ATOM     19  C   UNL     1      -2.317   4.095  26.123  0.00  0.00    -0.025 A 
ATOM     20  C   UNL     1      -1.566   2.929  26.268  0.00  0.00    +0.005 A 
ATOM     21  C   UNL     1      -1.865   5.117  25.289  0.00  0.00    +0.005 A 
ATOM     23  C   UNL     1      -0.360   2.786  25.579  0.00  0.00    +0.000 A 
ATOM     24  C   UNL     1      -0.661   4.973  24.600  0.00  0.00    +0.000 A 
ATOM     25  C   UNL     1       0.092   3.807  24.746  0.00  0.00    +0.000 A 
ENDBRANCH  17  19
ENDBRANCH   1  17
ENDBRANCH   9   1
ENDBRANCH  13   9
BRANCH  14   4
ATOM      4  O   UNL     1      -1.972  -1.895  24.293  0.00  0.00    -0.442 OA
BRANCH   4  18
ATOM      7  O   UNL     1      -0.314  -1.404  25.790  0.00  0.00    -0.226 OA
ATOM     10  N   UNL     1      -0.030  -1.074  23.490  0.00  0.00    -0.251 N 
ATOM     18  C   UNL     1      -0.712  -1.445  24.632  0.00  0.00    +0.405 C 
ATOM     33  H   UNL     1      -0.533  -1.181  22.612  0.00  0.00    +0.158 HD
BRANCH  10  22
ATOM     22  C   UNL     1       1.283  -0.561  23.388  0.00  0.00    +0.037 A 
ATOM     26  C   UNL     1       1.483   0.793  23.115  0.00  0.00    +0.027 A 
ATOM     27  C   UNL     1       2.378  -1.407  23.560  0.00  0.00    +0.027 A 
ATOM     28  C   UNL     1       2.779   1.299  23.013  0.00  0.00    +0.047 A 
ATOM     29  C   UNL     1       3.673  -0.901  23.458  0.00  0.00    +0.047 A 
ATOM     30  C   UNL     1       3.874   0.453  23.185  0.00  0.00    +0.120 A 
BRANCH  30   8
ATOM      8  O   UNL     1       5.138   0.947  23.086  0.00  0.00    -0.495 OA
ATOM     31  C   UNL     1       6.209   0.065  23.420  0.00  0.00    +0.277 C 
ENDBRANCH  30   8
ENDBRANCH  10  22
ENDBRANCH   4  18
ENDBRANCH  14   4
TORSDOF 8
ENDMDL
MODEL 2
REMARK VINA RESULT:      -1.2      1.582      2.135
REMARK  Name = 11884078
REMARK  9 active torsions:
REMARK  status: ('A' for Active; 'I' for Inactive)
REMARK    1  A    between atoms: S_1  and  N_9
REMARK    2  A    between atoms: S_1  and  C_17
REMARK    3  A    between atoms: O_4  and  C_14
REMARK    4  A    between atoms: O_4  and  C_18
REMARK    5  A    between atoms: O_8  and  C_30
REMARK    6  A    between atoms: O_8  and  C_31
REMARK    7  A    between atoms: N_9  and  C_13
REMARK    8  A    between atoms: N_10  and  C_22
REMARK    9  A    between atoms: C_17  and  C_19
REMARK                            x       y       z     vdW  Elec       q    Type
REMARK                         _______ _______ _______ _____ _____    ______ ____
ROOT
ATOM      2  O   UNL     1      -2.796   0.266  23.618  0.00  0.00    -0.369 OA
ATOM      3  O   UNL     1      -3.296  -2.155  25.450  0.00  0.00    -0.368 OA
ATOM     11  C   UNL     1      -3.227  -0.740  25.724  0.00  0.00    +0.171 C 
ATOM     12  C   UNL     1      -2.148  -0.169  24.824  0.00  0.00    +0.191 C 
ATOM     13  C   UNL     1      -4.490  -0.063  25.253  0.00  0.00    +0.133 C 
ATOM     14  C   UNL     1      -1.258  -1.364  24.582  0.00  0.00    +0.235 C 
ATOM     15  C   UNL     1      -4.220   0.165  23.778  0.00  0.00    +0.183 C 
ATOM     16  C   UNL     1      -2.256  -2.498  24.523  0.00  0.00    +0.207 C 
ENDROOT
BRANCH  13   9
ATOM      9  N   UNL     1      -4.652   1.241  25.940  0.00  0.00    -0.186 NA
ATOM     32  H   UNL     1      -4.062   1.414  26.763  0.00  0.00    +0.148 HD
BRANCH   9   1
ATOM      1  S   UNL     1      -6.133   2.069  25.795  0.00  0.00    +0.034 S 
ATOM      5  O   UNL     1      -6.894   1.943  27.022  0.00  0.00    -0.158 OA
ATOM      6  O   UNL     1      -6.724   1.722  24.517  0.00  0.00    -0.158 OA
BRANCH   1  17
ATOM     17  C   UNL     1      -5.560   3.748  25.676  0.00  0.00    +0.220 C 
BRANCH  17  19
ATOM     19  C   UNL     1      -4.107   3.710  25.315  0.00  0.00    -0.025 A 
ATOM     20  C   UNL     1      -3.140   3.954  26.291  0.00  0.00    +0.005 A 
ATOM     21  C   UNL     1      -3.720   3.429  24.005  0.00  0.00    +0.005 A 
ATOM     23  C   UNL     1      -1.786   3.919  25.955  0.00  0.00    +0.000 A 
ATOM     24  C   UNL     1      -2.366   3.393  23.670  0.00  0.00    +0.000 A 
ATOM     25  C   UNL     1      -1.399   3.639  24.645  0.00  0.00    +0.000 A 
ENDBRANCH  17  19
ENDBRANCH   1  17
ENDBRANCH   9   1
ENDBRANCH  13   9
BRANCH  14   4
ATOM      4  O   UNL     1      -0.495  -1.266  23.400  0.00  0.00    -0.442 OA
BRANCH   4  18
ATOM      7  O   UNL     1       0.512   0.785  23.503  0.00  0.00    -0.226 OA
ATOM     10  N   UNL     1       1.760  -1.192  23.379  0.00  0.00    -0.251 N 
ATOM     18  C   UNL     1       0.605  -0.435  23.434  0.00  0.00    +0.405 C 
ATOM     33  H   UNL     1       1.633  -2.200  23.324  0.00  0.00    +0.158 HD
BRANCH  10  22
ATOM     22  C   UNL     1       3.098  -0.740  23.390  0.00  0.00    +0.037 A 
ATOM     26  C   UNL     1       3.415   0.514  22.867  0.00  0.00    +0.027 A 
ATOM     27  C   UNL     1       4.103  -1.548  23.922  0.00  0.00    +0.027 A 
ATOM     28  C   UNL     1       4.737   0.959  22.876  0.00  0.00    +0.047 A 
ATOM     29  C   UNL     1       5.425  -1.102  23.931  0.00  0.00    +0.047 A 
ATOM     30  C   UNL     1       5.742   0.152  23.408  0.00  0.00    +0.120 A 
BRANCH  30   8
ATOM      8  O   UNL     1       7.031   0.587  23.417  0.00  0.00    -0.495 OA
ATOM     31  C   UNL     1       8.041  -0.370  23.101  0.00  0.00    +0.277 C 
ENDBRANCH  30   8
ENDBRANCH  10  22
ENDBRANCH   4  18
ENDBRANCH  14   4
TORSDOF 8
ENDMDL
MODEL 3
REMARK VINA RESULT:       0.3      2.171      6.664
REMARK  Name = 11884078
REMARK  9 active torsions:
REMARK  status: ('A' for Active; 'I' for Inactive)
REMARK    1  A    between atoms: S_1  and  N_9
REMARK    2  A    between atoms: S_1  and  C_17
REMARK    3  A    between atoms: O_4  and  C_14
REMARK    4  A    between atoms: O_4  and  C_18
REMARK    5  A    between atoms: O_8  and  C_30
REMARK    6  A    between atoms: O_8  and  C_31
REMARK    7  A    between atoms: N_9  and  C_13
REMARK    8  A    between atoms: N_10  and  C_22
REMARK    9  A    between atoms: C_17  and  C_19
REMARK                            x       y       z     vdW  Elec       q    Type
REMARK                         _______ _______ _______ _____ _____    ______ ____
ROOT
ATOM      2  O   UNL     1      -2.104   2.418  24.093  0.00  0.00    -0.369 OA
ATOM      3  O   UNL     1      -0.575   4.859  25.176  0.00  0.00    -0.368 OA
ATOM     11  C   UNL     1      -0.349   3.441  25.321  0.00  0.00    +0.171 C 
ATOM     12  C   UNL     1      -1.713   2.787  25.425  0.00  0.00    +0.191 C 
ATOM     13  C   UNL     1       0.227   2.879  24.046  0.00  0.00    +0.133 C 
ATOM     14  C   UNL     1      -2.571   3.902  25.972  0.00  0.00    +0.235 C 
ATOM     15  C   UNL     1      -1.005   2.640  23.196  0.00  0.00    +0.183 C 
ATOM     16  C   UNL     1      -1.981   5.118  25.295  0.00  0.00    +0.207 C 
ENDROOT
BRANCH  13   9
ATOM      9  N   UNL     1       0.904   1.589  24.322  0.00  0.00    -0.186 NA
ATOM     32  H   UNL     1       1.885   1.629  24.627  0.00  0.00    +0.148 HD
BRANCH   9   1
ATOM      1  S   UNL     1       0.333   0.179  23.557  0.00  0.00    +0.034 S 
ATOM      5  O   UNL     1      -0.979   0.419  22.989  0.00  0.00    -0.158 OA
ATOM      6  O   UNL     1       0.561  -0.944  24.447  0.00  0.00    -0.158 OA
BRANCH   1  17
ATOM     17  C   UNL     1       1.493   0.040  22.217  0.00  0.00    +0.220 C 
BRANCH  17  19
ATOM     19  C   UNL     1       2.863  -0.083  22.811  0.00  0.00    -0.025 A 
ATOM     20  C   UNL     1       3.262  -1.283  23.400  0.00  0.00    +0.005 A 
ATOM     21  C   UNL     1       3.739   1.001  22.774  0.00  0.00    +0.005 A 
ATOM     23  C   UNL     1       4.538  -1.397  23.954  0.00  0.00    +0.000 A 
ATOM     24  C   UNL     1       5.015   0.886  23.326  0.00  0.00    +0.000 A 
ATOM     25  C   UNL     1       5.414  -0.314  23.916  0.00  0.00    +0.000 A 
ENDBRANCH  17  19
ENDBRANCH   1  17
ENDBRANCH   9   1
ENDBRANCH  13   9
BRANCH  14   4
ATOM      4  O   UNL     1      -3.943   3.748  25.686  0.00  0.00    -0.442 OA
BRANCH   4  18
ATOM      7  O   UNL     1      -5.204   2.520  24.226  0.00  0.00    -0.226 OA
ATOM     10  N   UNL     1      -3.575   1.525  25.581  0.00  0.00    -0.251 N 
ATOM     18  C   UNL     1      -4.325   2.570  25.078  0.00  0.00    +0.405 C 
ATOM     33  H   UNL     1      -2.886   1.768  26.290  0.00  0.00    +0.158 HD
BRANCH  10  22
ATOM     22  C   UNL     1      -3.644   0.157  25.233  0.00  0.00    +0.037 A 
ATOM     26  C   UNL     1      -3.079  -0.805  26.071  0.00  0.00    +0.027 A 
ATOM     27  C   UNL     1      -4.276  -0.231  24.052  0.00  0.00    +0.027 A 
ATOM     28  C   UNL     1      -3.147  -2.155  25.728  0.00  0.00    +0.047 A 
ATOM     29  C   UNL     1      -4.344  -1.581  23.709  0.00  0.00    +0.047 A 
ATOM     30  C   UNL     1      -3.779  -2.543  24.547  0.00  0.00    +0.120 A 
BRANCH  30   8
ATOM      8  O   UNL     1      -3.844  -3.860  24.212  0.00  0.00    -0.495 OA
ATOM     31  C   UNL     1      -3.009  -4.300  23.141  0.00  0.00    +0.277 C 
ENDBRANCH  30   8
ENDBRANCH  10  22
ENDBRANCH   4  18
ENDBRANCH  14   4
TORSDOF 8
ENDMDL
