MODEL 1
REMARK VINA RESULT:      -4.9      0.000      0.000
REMARK  Name = 28961807
REMARK  11 active torsions:
REMARK  status: ('A' for Active; 'I' for Inactive)
REMARK    1  A    between atoms: S_1  and  N_10
REMARK    2  A    between atoms: S_1  and  C_23
REMARK    3  A    between atoms: O_4  and  C_14
REMARK    4  A    between atoms: O_5  and  C_20
REMARK    5  A    between atoms: O_5  and  C_22
REMARK    6  A    between atoms: O_6  and  C_21
REMARK    7  A    between atoms: N_9  and  C_11
REMARK    8  A    between atoms: N_10  and  C_19
REMARK    9  A    between atoms: C_12  and  C_19
REMARK   10  A    between atoms: C_13  and  C_20
REMARK   11  A    between atoms: C_16  and  C_21
REMARK                            x       y       z     vdW  Elec       q    Type
REMARK                         _______ _______ _______ _____ _____    ______ ____
ROOT
ATOM      3  O   UNL     1       1.034   1.464  23.476  0.00  0.00    -0.366 OA
ATOM     11  C   UNL     1      -1.061   0.458  23.992  0.00  0.00    +0.118 C 
ATOM     12  C   UNL     1      -0.202   1.715  24.182  0.00  0.00    +0.154 C 
ATOM     14  C   UNL     1      -0.027  -0.633  23.761  0.00  0.00    +0.165 C 
ATOM     16  C   UNL     1       1.005   0.129  22.938  0.00  0.00    +0.174 C 
ENDROOT
BRANCH  11   9
ATOM      9  N   UNL     1      -2.033   0.180  25.035  0.00  0.00    -0.289 NA
ATOM     13  C   UNL     1      -3.419   0.018  24.584  0.00  0.00    +0.083 C 
ATOM     15  C   UNL     1      -1.697  -0.999  25.829  0.00  0.00    +0.085 C 
ATOM     17  C   UNL     1      -4.076  -0.519  25.855  0.00  0.00    +0.022 C 
ATOM     18  C   UNL     1      -3.003  -1.375  26.520  0.00  0.00    +0.017 C 
BRANCH  13  20
ATOM     20  C   UNL     1      -3.636  -0.930  23.400  0.00  0.00    +0.178 C 
BRANCH  20   5
ATOM      5  O   UNL     1      -4.538  -1.948  23.793  0.00  0.00    -0.381 OA
ATOM     22  C   UNL     1      -3.918  -3.228  23.803  0.00  0.00    +0.194 C 
ENDBRANCH  20   5
ENDBRANCH  13  20
ENDBRANCH  11   9
BRANCH  14   4
ATOM      4  O   UNL     1       0.545  -1.075  24.985  0.00  0.00    -0.388 OA
ATOM     27  H   UNL     1       1.455  -1.360  24.798  0.00  0.00    +0.210 HD
ENDBRANCH  14   4
BRANCH  12  19
ATOM     19  C   UNL     1       0.163   2.082  25.616  0.00  0.00    +0.139 C 
BRANCH  19  10
ATOM     10  N   UNL     1      -0.722   3.164  26.084  0.00  0.00    -0.187 NA
ATOM     28  H   UNL     1      -1.219   2.949  26.959  0.00  0.00    +0.148 HD
BRANCH  10   1
ATOM      1  S   UNL     1      -1.531   4.152  24.959  0.00  0.00    +0.065 S 
ATOM      7  O   UNL     1      -1.102   3.804  23.619  0.00  0.00    -0.153 OA
ATOM      8  O   UNL     1      -1.472   5.530  25.410  0.00  0.00    -0.153 OA
BRANCH   1  23
ATOM      2  S   UNL     1      -3.965   3.106  23.704  0.00  0.00    -0.077 S 
ATOM     23  C   UNL     1      -3.206   3.619  25.150  0.00  0.00    +0.142 A 
ATOM     24  C   UNL     1      -4.048   3.526  26.237  0.00  0.00    +0.036 A 
ATOM     25  C   UNL     1      -5.333   3.027  25.877  0.00  0.00    +0.010 A 
ATOM     26  C   UNL     1      -5.425   2.758  24.529  0.00  0.00    +0.047 A 
ENDBRANCH   1  23
ENDBRANCH  10   1
ENDBRANCH  19  10
ENDBRANCH  12  19
BRANCH  16  21
ATOM     21  C   UNL     1       2.409  -0.448  22.955  0.00  0.00    +0.190 C 
BRANCH  21   6
ATOM      6  O   UNL     1       3.340   0.616  23.062  0.00  0.00    -0.392 OA
ATOM     29  H   UNL     1       2.831   1.446  23.035  0.00  0.00    +0.210 HD
ENDBRANCH  21   6
ENDBRANCH  16  21
TORSDOF 10
ENDMDL
MODEL 2
REMARK VINA RESULT:      -4.3      2.260      5.044
REMARK  Name = 28961807
REMARK  11 active torsions:
REMARK  status: ('A' for Active; 'I' for Inactive)
REMARK    1  A    between atoms: S_1  and  N_10
REMARK    2  A    between atoms: S_1  and  C_23
REMARK    3  A    between atoms: O_4  and  C_14
REMARK    4  A    between atoms: O_5  and  C_20
REMARK    5  A    between atoms: O_5  and  C_22
REMARK    6  A    between atoms: O_6  and  C_21
REMARK    7  A    between atoms: N_9  and  C_11
REMARK    8  A    between atoms: N_10  and  C_19
REMARK    9  A    between atoms: C_12  and  C_19
REMARK   10  A    between atoms: C_13  and  C_20
REMARK   11  A    between atoms: C_16  and  C_21
REMARK                            x       y       z     vdW  Elec       q    Type
REMARK                         _______ _______ _______ _____ _____    ______ ____
ROOT
ATOM      3  O   UNL     1      -2.177   3.862  23.609  0.00  0.00    -0.366 OA
ATOM     11  C   UNL     1      -0.809   1.944  23.950  0.00  0.00    +0.118 C 
ATOM     12  C   UNL     1      -1.914   2.546  23.073  0.00  0.00    +0.154 C 
ATOM     14  C   UNL     1      -0.986   2.673  25.273  0.00  0.00    +0.165 C 
ATOM     16  C   UNL     1      -1.362   4.064  24.780  0.00  0.00    +0.174 C 
ENDROOT
BRANCH  11   9
ATOM      9  N   UNL     1      -0.778   0.495  24.039  0.00  0.00    -0.289 NA
ATOM     13  C   UNL     1       0.301  -0.164  23.296  0.00  0.00    +0.083 C 
ATOM     15  C   UNL     1      -0.712   0.008  25.415  0.00  0.00    +0.085 C 
ATOM     17  C   UNL     1       0.191  -1.591  23.829  0.00  0.00    +0.022 C 
ATOM     18  C   UNL     1      -0.236  -1.435  25.285  0.00  0.00    +0.017 C 
BRANCH  13  20
ATOM     20  C   UNL     1       1.708   0.404  23.505  0.00  0.00    +0.178 C 
BRANCH  20   5
ATOM      5  O   UNL     1       2.471   0.172  22.335  0.00  0.00    -0.381 OA
ATOM     22  C   UNL     1       3.813   0.622  22.482  0.00  0.00    +0.194 C 
ENDBRANCH  20   5
ENDBRANCH  13  20
ENDBRANCH  11   9
BRANCH  14   4
ATOM      4  O   UNL     1      -2.048   2.114  26.036  0.00  0.00    -0.388 OA
ATOM     27  H   UNL     1      -2.748   1.852  25.416  0.00  0.00    +0.210 HD
ENDBRANCH  14   4
BRANCH  12  19
ATOM     19  C   UNL     1      -3.243   1.799  23.039  0.00  0.00    +0.139 C 
BRANCH  19  10
ATOM     10  N   UNL     1      -4.212   2.485  23.914  0.00  0.00    -0.187 NA
ATOM     28  H   UNL     1      -3.898   3.407  24.243  0.00  0.00    +0.148 HD
BRANCH  10   1
ATOM      1  S   UNL     1      -5.199   1.583  24.968  0.00  0.00    +0.065 S 
ATOM      7  O   UNL     1      -6.563   1.594  24.474  0.00  0.00    -0.153 OA
ATOM      8  O   UNL     1      -4.915   1.975  26.335  0.00  0.00    -0.153 OA
BRANCH   1  23
ATOM      2  S   UNL     1      -3.860  -0.738  26.159  0.00  0.00    -0.077 S 
ATOM     23  C   UNL     1      -4.556  -0.050  24.754  0.00  0.00    +0.142 A 
ATOM     24  C   UNL     1      -4.496  -0.906  23.676  0.00  0.00    +0.036 A 
ATOM     25  C   UNL     1      -3.869  -2.141  24.008  0.00  0.00    +0.010 A 
ATOM     26  C   UNL     1      -3.474  -2.184  25.327  0.00  0.00    +0.047 A 
ENDBRANCH   1  23
ENDBRANCH  10   1
ENDBRANCH  19  10
ENDBRANCH  12  19
BRANCH  16  21
ATOM     21  C   UNL     1      -2.119   4.927  25.773  0.00  0.00    +0.190 C 
BRANCH  21   6
ATOM      6  O   UNL     1      -3.438   4.423  25.906  0.00  0.00    -0.392 OA
ATOM     29  H   UNL     1      -3.632   4.379  26.859  0.00  0.00    +0.210 HD
ENDBRANCH  21   6
ENDBRANCH  16  21
TORSDOF 10
ENDMDL
MODEL 3
REMARK VINA RESULT:      -4.3      2.572      5.860
REMARK  Name = 28961807
REMARK  11 active torsions:
REMARK  status: ('A' for Active; 'I' for Inactive)
REMARK    1  A    between atoms: S_1  and  N_10
REMARK    2  A    between atoms: S_1  and  C_23
REMARK    3  A    between atoms: O_4  and  C_14
REMARK    4  A    between atoms: O_5  and  C_20
REMARK    5  A    between atoms: O_5  and  C_22
REMARK    6  A    between atoms: O_6  and  C_21
REMARK    7  A    between atoms: N_9  and  C_11
REMARK    8  A    between atoms: N_10  and  C_19
REMARK    9  A    between atoms: C_12  and  C_19
REMARK   10  A    between atoms: C_13  and  C_20
REMARK   11  A    between atoms: C_16  and  C_21
REMARK                            x       y       z     vdW  Elec       q    Type
REMARK                         _______ _______ _______ _____ _____    ______ ____
ROOT
ATOM      3  O   UNL     1      -0.536   3.250  25.244  0.00  0.00    -0.366 OA
ATOM     11  C   UNL     1      -2.305   1.657  25.225  0.00  0.00    +0.118 C 
ATOM     12  C   UNL     1      -0.821   1.875  24.902  0.00  0.00    +0.154 C 
ATOM     14  C   UNL     1      -2.890   3.056  25.105  0.00  0.00    +0.165 C 
ATOM     16  C   UNL     1      -1.751   3.888  25.680  0.00  0.00    +0.174 C 
ENDROOT
BRANCH  11   9
ATOM      9  N   UNL     1      -2.986   0.632  24.454  0.00  0.00    -0.289 NA
ATOM     13  C   UNL     1      -2.512  -0.740  24.665  0.00  0.00    +0.083 C 
ATOM     15  C   UNL     1      -4.432   0.625  24.663  0.00  0.00    +0.085 C 
ATOM     17  C   UNL     1      -3.596  -1.536  23.940  0.00  0.00    +0.022 C 
ATOM     18  C   UNL     1      -4.880  -0.744  24.164  0.00  0.00    +0.017 C 
BRANCH  13  20
ATOM     20  C   UNL     1      -2.371  -1.187  26.124  0.00  0.00    +0.178 C 
BRANCH  20   5
ATOM      5  O   UNL     1      -0.997  -1.200  26.464  0.00  0.00    -0.381 OA
ATOM     22  C   UNL     1      -0.268  -2.138  25.682  0.00  0.00    +0.194 C 
ENDBRANCH  20   5
ENDBRANCH  13  20
ENDBRANCH  11   9
BRANCH  14   4
ATOM      4  O   UNL     1      -3.125   3.408  23.748  0.00  0.00    -0.388 OA
ATOM     27  H   UNL     1      -2.272   3.363  23.282  0.00  0.00    +0.210 HD
ENDBRANCH  14   4
BRANCH  12  19
ATOM     19  C   UNL     1      -0.401   1.675  23.450  0.00  0.00    +0.139 C 
BRANCH  19  10
ATOM     10  N   UNL     1       1.016   1.267  23.402  0.00  0.00    -0.187 NA
ATOM     28  H   UNL     1       1.670   2.045  23.241  0.00  0.00    +0.148 HD
BRANCH  10   1
ATOM      1  S   UNL     1       1.447  -0.250  22.763  0.00  0.00    +0.065 S 
ATOM      7  O   UNL     1       1.352  -0.206  21.316  0.00  0.00    -0.153 OA
ATOM      8  O   UNL     1       0.763  -1.290  23.508  0.00  0.00    -0.153 OA
BRANCH   1  23
ATOM      2  S   UNL     1       4.094   1.010  22.734  0.00  0.00    -0.077 S 
ATOM     23  C   UNL     1       3.159  -0.349  23.193  0.00  0.00    +0.142 A 
ATOM     24  C   UNL     1       3.917  -1.305  23.833  0.00  0.00    +0.036 A 
ATOM     25  C   UNL     1       5.283  -0.917  23.946  0.00  0.00    +0.010 A 
ATOM     26  C   UNL     1       5.518   0.320  23.390  0.00  0.00    +0.047 A 
ENDBRANCH   1  23
ENDBRANCH  10   1
ENDBRANCH  19  10
ENDBRANCH  12  19
BRANCH  16  21
ATOM     21  C   UNL     1      -1.730   5.346  25.260  0.00  0.00    +0.190 C 
BRANCH  21   6
ATOM      6  O   UNL     1      -0.513   5.610  24.581  0.00  0.00    -0.392 OA
ATOM     29  H   UNL     1      -0.604   6.482  24.159  0.00  0.00    +0.210 HD
ENDBRANCH  21   6
ENDBRANCH  16  21
TORSDOF 10
ENDMDL
MODEL 4
REMARK VINA RESULT:      -3.5      2.628      6.239
REMARK  Name = 28961807
REMARK  11 active torsions:
REMARK  status: ('A' for Active; 'I' for Inactive)
REMARK    1  A    between atoms: S_1  and  N_10
REMARK    2  A    between atoms: S_1  and  C_23
REMARK    3  A    between atoms: O_4  and  C_14
REMARK    4  A    between atoms: O_5  and  C_20
REMARK    5  A    between atoms: O_5  and  C_22
REMARK    6  A    between atoms: O_6  and  C_21
REMARK    7  A    between atoms: N_9  and  C_11
REMARK    8  A    between atoms: N_10  and  C_19
REMARK    9  A    between atoms: C_12  and  C_19
REMARK   10  A    between atoms: C_13  and  C_20
REMARK   11  A    between atoms: C_16  and  C_21
REMARK                            x       y       z     vdW  Elec       q    Type
REMARK                         _______ _______ _______ _____ _____    ______ ____
ROOT
ATOM      3  O   UNL     1      -2.326  -1.572  23.509  0.00  0.00    -0.366 OA
ATOM     11  C   UNL     1      -2.435   0.802  23.645  0.00  0.00    +0.118 C 
ATOM     12  C   UNL     1      -1.486  -0.396  23.512  0.00  0.00    +0.154 C 
ATOM     14  C   UNL     1      -3.644   0.205  24.349  0.00  0.00    +0.165 C 
ATOM     16  C   UNL     1      -3.696  -1.172  23.700  0.00  0.00    +0.174 C 
ENDROOT
BRANCH  11   9
ATOM      9  N   UNL     1      -1.882   1.993  24.265  0.00  0.00    -0.289 NA
ATOM     13  C   UNL     1      -2.526   3.258  23.894  0.00  0.00    +0.083 C 
ATOM     15  C   UNL     1      -1.873   1.927  25.724  0.00  0.00    +0.085 C 
ATOM     17  C   UNL     1      -1.896   4.212  24.908  0.00  0.00    +0.022 C 
ATOM     18  C   UNL     1      -1.706   3.376  26.169  0.00  0.00    +0.017 C 
BRANCH  13  20
ATOM     20  C   UNL     1      -4.056   3.285  23.977  0.00  0.00    +0.178 C 
BRANCH  20   5
ATOM      5  O   UNL     1      -4.433   3.867  25.211  0.00  0.00    -0.381 OA
ATOM     22  C   UNL     1      -5.456   3.118  25.856  0.00  0.00    +0.194 C 
ENDBRANCH  20   5
ENDBRANCH  13  20
ENDBRANCH  11   9
BRANCH  14   4
ATOM      4  O   UNL     1      -3.423   0.084  25.749  0.00  0.00    -0.388 OA
ATOM     27  H   UNL     1      -3.621   0.947  26.152  0.00  0.00    +0.210 HD
ENDBRANCH  14   4
BRANCH  12  19
ATOM     19  C   UNL     1      -0.457  -0.579  24.622  0.00  0.00    +0.139 C 
BRANCH  19  10
ATOM     10  N   UNL     1       0.838  -0.961  24.029  0.00  0.00    -0.187 NA
ATOM     28  H   UNL     1       1.433  -1.525  24.651  0.00  0.00    +0.148 HD
BRANCH  10   1
ATOM      1  S   UNL     1       1.628   0.092  22.950  0.00  0.00    +0.065 S 
ATOM      7  O   UNL     1       1.374   1.464  23.347  0.00  0.00    -0.153 OA
ATOM      8  O   UNL     1       1.361  -0.336  21.590  0.00  0.00    -0.153 OA
BRANCH   1  23
ATOM      2  S   UNL     1       4.421   0.978  22.835  0.00  0.00    -0.077 S 
ATOM     23  C   UNL     1       3.328  -0.263  23.279  0.00  0.00    +0.142 A 
ATOM     24  C   UNL     1       3.975  -1.349  23.829  0.00  0.00    +0.036 A 
ATOM     25  C   UNL     1       5.386  -1.158  23.885  0.00  0.00    +0.010 A 
ATOM     26  C   UNL     1       5.764   0.065  23.377  0.00  0.00    +0.047 A 
ENDBRANCH   1  23
ENDBRANCH  10   1
ENDBRANCH  19  10
ENDBRANCH  12  19
BRANCH  16  21
ATOM     21  C   UNL     1      -4.424  -2.242  24.493  0.00  0.00    +0.190 C 
BRANCH  21   6
ATOM      6  O   UNL     1      -3.504  -2.864  25.375  0.00  0.00    -0.392 OA
ATOM     29  H   UNL     1      -3.773  -2.631  26.281  0.00  0.00    +0.210 HD
ENDBRANCH  21   6
ENDBRANCH  16  21
TORSDOF 10
ENDMDL
MODEL 5
REMARK VINA RESULT:      -2.8      2.785      5.670
REMARK  Name = 28961807
REMARK  11 active torsions:
REMARK  status: ('A' for Active; 'I' for Inactive)
REMARK    1  A    between atoms: S_1  and  N_10
REMARK    2  A    between atoms: S_1  and  C_23
REMARK    3  A    between atoms: O_4  and  C_14
REMARK    4  A    between atoms: O_5  and  C_20
REMARK    5  A    between atoms: O_5  and  C_22
REMARK    6  A    between atoms: O_6  and  C_21
REMARK    7  A    between atoms: N_9  and  C_11
REMARK    8  A    between atoms: N_10  and  C_19
REMARK    9  A    between atoms: C_12  and  C_19
REMARK   10  A    between atoms: C_13  and  C_20
REMARK   11  A    between atoms: C_16  and  C_21
REMARK                            x       y       z     vdW  Elec       q    Type
REMARK                         _______ _______ _______ _____ _____    ______ ____
ROOT
ATOM      3  O   UNL     1       0.245   1.307  25.733  0.00  0.00    -0.366 OA
ATOM     11  C   UNL     1      -2.031   2.006  25.757  0.00  0.00    +0.118 C 
ATOM     12  C   UNL     1      -0.998   1.151  25.012  0.00  0.00    +0.154 C 
ATOM     14  C   UNL     1      -1.175   3.068  26.430  0.00  0.00    +0.165 C 
ATOM     16  C   UNL     1       0.049   2.244  26.809  0.00  0.00    +0.174 C 
ENDROOT
BRANCH  11   9
ATOM      9  N   UNL     1      -3.138   2.512  24.965  0.00  0.00    -0.289 NA
ATOM     13  C   UNL     1      -3.968   1.493  24.312  0.00  0.00    +0.083 C 
ATOM     15  C   UNL     1      -4.037   3.378  25.725  0.00  0.00    +0.085 C 
ATOM     17  C   UNL     1      -5.141   2.344  23.827  0.00  0.00    +0.022 C 
ATOM     18  C   UNL     1      -5.315   3.419  24.895  0.00  0.00    +0.017 C 
BRANCH  13  20
ATOM     20  C   UNL     1      -4.444   0.341  25.202  0.00  0.00    +0.178 C 
BRANCH  20   5
ATOM      5  O   UNL     1      -4.346  -0.868  24.470  0.00  0.00    -0.381 OA
ATOM     22  C   UNL     1      -3.429  -1.775  25.069  0.00  0.00    +0.194 C 
ENDBRANCH  20   5
ENDBRANCH  13  20
ENDBRANCH  11   9
BRANCH  14   4
ATOM      4  O   UNL     1      -0.816   4.100  25.520  0.00  0.00    -0.388 OA
ATOM     27  H   UNL     1       0.155   4.110  25.457  0.00  0.00    +0.210 HD
ENDBRANCH  14   4
BRANCH  12  19
ATOM     19  C   UNL     1      -0.727   1.520  23.558  0.00  0.00    +0.139 C 
BRANCH  19  10
ATOM     10  N   UNL     1       0.707   1.335  23.266  0.00  0.00    -0.187 NA
ATOM     28  H   UNL     1       1.158   2.158  22.844  0.00  0.00    +0.148 HD
BRANCH  10   1
ATOM      1  S   UNL     1       1.293  -0.192  22.797  0.00  0.00    +0.065 S 
ATOM      7  O   UNL     1       1.106  -0.359  21.368  0.00  0.00    -0.153 OA
ATOM      8  O   UNL     1       0.795  -1.195  23.720  0.00  0.00    -0.153 OA
BRANCH   1  23
ATOM      2  S   UNL     1       3.777  -1.411  23.767  0.00  0.00    -0.077 S 
ATOM     23  C   UNL     1       3.026  -0.023  23.103  0.00  0.00    +0.142 A 
ATOM     24  C   UNL     1       3.919   1.009  22.916  0.00  0.00    +0.036 A 
ATOM     25  C   UNL     1       5.238   0.655  23.325  0.00  0.00    +0.010 A 
ATOM     26  C   UNL     1       5.302  -0.634  23.808  0.00  0.00    +0.047 A 
ENDBRANCH   1  23
ENDBRANCH  10   1
ENDBRANCH  19  10
ENDBRANCH  12  19
BRANCH  16  21
ATOM     21  C   UNL     1       1.327   3.034  27.023  0.00  0.00    +0.190 C 
BRANCH  21   6
ATOM      6  O   UNL     1       1.952   2.581  28.213  0.00  0.00    -0.392 OA
ATOM     29  H   UNL     1       1.308   2.018  28.678  0.00  0.00    +0.210 HD
ENDBRANCH  21   6
ENDBRANCH  16  21
TORSDOF 10
ENDMDL
MODEL 6
REMARK VINA RESULT:      -2.7      2.255      4.959
REMARK  Name = 28961807
REMARK  11 active torsions:
REMARK  status: ('A' for Active; 'I' for Inactive)
REMARK    1  A    between atoms: S_1  and  N_10
REMARK    2  A    between atoms: S_1  and  C_23
REMARK    3  A    between atoms: O_4  and  C_14
REMARK    4  A    between atoms: O_5  and  C_20
REMARK    5  A    between atoms: O_5  and  C_22
REMARK    6  A    between atoms: O_6  and  C_21
REMARK    7  A    between atoms: N_9  and  C_11
REMARK    8  A    between atoms: N_10  and  C_19
REMARK    9  A    between atoms: C_12  and  C_19
REMARK   10  A    between atoms: C_13  and  C_20
REMARK   11  A    between atoms: C_16  and  C_21
REMARK                            x       y       z     vdW  Elec       q    Type
REMARK                         _______ _______ _______ _____ _____    ______ ____
ROOT
ATOM      3  O   UNL     1      -3.494  -1.516  25.871  0.00  0.00    -0.366 OA
ATOM     11  C   UNL     1      -1.396  -0.580  25.244  0.00  0.00    +0.118 C 
ATOM     12  C   UNL     1      -2.807  -0.250  25.747  0.00  0.00    +0.154 C 
ATOM     14  C   UNL     1      -1.593  -1.901  24.514  0.00  0.00    +0.165 C 
ATOM     16  C   UNL     1      -2.624  -2.569  25.415  0.00  0.00    +0.174 C 
ENDROOT
BRANCH  11   9
ATOM      9  N   UNL     1      -0.728   0.457  24.479  0.00  0.00    -0.289 NA
ATOM     13  C   UNL     1      -0.596   1.755  25.151  0.00  0.00    +0.083 C 
ATOM     15  C   UNL     1       0.607   0.067  24.031  0.00  0.00    +0.085 C 
ATOM     17  C   UNL     1       0.361   2.475  24.203  0.00  0.00    +0.022 C 
ATOM     18  C   UNL     1       1.288   1.385  23.676  0.00  0.00    +0.017 C 
BRANCH  13  20
ATOM     20  C   UNL     1      -0.047   1.721  26.580  0.00  0.00    +0.178 C 
BRANCH  20   5
ATOM      5  O   UNL     1       0.838   2.813  26.753  0.00  0.00    -0.381 OA
ATOM     22  C   UNL     1       1.467   2.785  28.029  0.00  0.00    +0.194 C 
ENDBRANCH  20   5
ENDBRANCH  13  20
ENDBRANCH  11   9
BRANCH  14   4
ATOM      4  O   UNL     1      -2.129  -1.700  23.212  0.00  0.00    -0.388 OA
ATOM     27  H   UNL     1      -3.068  -1.952  23.240  0.00  0.00    +0.210 HD
ENDBRANCH  14   4
BRANCH  12  19
ATOM     19  C   UNL     1      -3.661   0.641  24.851  0.00  0.00    +0.139 C 
BRANCH  19  10
ATOM     10  N   UNL     1      -5.001   0.794  25.448  0.00  0.00    -0.187 NA
ATOM     28  H   UNL     1      -5.647   0.025  25.229  0.00  0.00    +0.148 HD
BRANCH  10   1
ATOM      1  S   UNL     1      -5.679   2.344  25.636  0.00  0.00    +0.065 S 
ATOM      7  O   UNL     1      -6.209   2.475  26.980  0.00  0.00    -0.153 OA
ATOM      8  O   UNL     1      -6.517   2.637  24.489  0.00  0.00    -0.153 OA
BRANCH   1  23
ATOM      2  S   UNL     1      -3.814   3.809  23.912  0.00  0.00    -0.077 S 
ATOM     23  C   UNL     1      -4.252   3.380  25.511  0.00  0.00    +0.142 A 
ATOM     24  C   UNL     1      -3.400   3.928  26.445  0.00  0.00    +0.036 A 
ATOM     25  C   UNL     1      -2.373   4.709  25.839  0.00  0.00    +0.010 A 
ATOM     26  C   UNL     1      -2.480   4.729  24.466  0.00  0.00    +0.047 A 
ENDBRANCH   1  23
ENDBRANCH  10   1
ENDBRANCH  19  10
ENDBRANCH  12  19
BRANCH  16  21
ATOM     21  C   UNL     1      -3.455  -3.657  24.761  0.00  0.00    +0.190 C 
BRANCH  21   6
ATOM      6  O   UNL     1      -4.382  -3.054  23.873  0.00  0.00    -0.392 OA
ATOM     29  H   UNL     1      -4.122  -2.121  23.779  0.00  0.00    +0.210 HD
ENDBRANCH  21   6
ENDBRANCH  16  21
TORSDOF 10
ENDMDL
MODEL 7
REMARK VINA RESULT:      -2.1      2.524      5.516
REMARK  Name = 28961807
REMARK  11 active torsions:
REMARK  status: ('A' for Active; 'I' for Inactive)
REMARK    1  A    between atoms: S_1  and  N_10
REMARK    2  A    between atoms: S_1  and  C_23
REMARK    3  A    between atoms: O_4  and  C_14
REMARK    4  A    between atoms: O_5  and  C_20
REMARK    5  A    between atoms: O_5  and  C_22
REMARK    6  A    between atoms: O_6  and  C_21
REMARK    7  A    between atoms: N_9  and  C_11
REMARK    8  A    between atoms: N_10  and  C_19
REMARK    9  A    between atoms: C_12  and  C_19
REMARK   10  A    between atoms: C_13  and  C_20
REMARK   11  A    between atoms: C_16  and  C_21
REMARK                            x       y       z     vdW  Elec       q    Type
REMARK                         _______ _______ _______ _____ _____    ______ ____
ROOT
ATOM      3  O   UNL     1      -0.409   3.160  25.633  0.00  0.00    -0.366 OA
ATOM     11  C   UNL     1      -2.424   1.932  25.317  0.00  0.00    +0.118 C 
ATOM     12  C   UNL     1      -1.059   1.928  26.017  0.00  0.00    +0.154 C 
ATOM     14  C   UNL     1      -2.185   2.821  24.106  0.00  0.00    +0.165 C 
ATOM     16  C   UNL     1      -1.253   3.867  24.704  0.00  0.00    +0.174 C 
ENDROOT
BRANCH  11   9
ATOM      9  N   UNL     1      -3.002   0.632  25.028  0.00  0.00    -0.289 NA
ATOM     13  C   UNL     1      -4.426   0.486  25.346  0.00  0.00    +0.083 C 
ATOM     15  C   UNL     1      -2.828   0.226  23.635  0.00  0.00    +0.085 C 
ATOM     17  C   UNL     1      -4.737  -0.852  24.676  0.00  0.00    +0.022 C 
ATOM     18  C   UNL     1      -3.855  -0.882  23.432  0.00  0.00    +0.017 C 
BRANCH  13  20
ATOM     20  C   UNL     1      -5.349   1.595  24.832  0.00  0.00    +0.178 C 
BRANCH  20   5
ATOM      5  O   UNL     1      -5.705   2.429  25.920  0.00  0.00    -0.381 OA
ATOM     22  C   UNL     1      -5.434   3.799  25.646  0.00  0.00    +0.194 C 
ENDBRANCH  20   5
ENDBRANCH  13  20
ENDBRANCH  11   9
BRANCH  14   4
ATOM      4  O   UNL     1      -1.529   2.112  23.062  0.00  0.00    -0.388 OA
ATOM     27  H   UNL     1      -0.913   1.484  23.477  0.00  0.00    +0.210 HD
ENDBRANCH  14   4
BRANCH  12  19
ATOM     19  C   UNL     1      -0.112   0.787  25.660  0.00  0.00    +0.139 C 
BRANCH  19  10
ATOM     10  N   UNL     1       0.570   1.099  24.390  0.00  0.00    -0.187 NA
ATOM     28  H   UNL     1       0.339   2.025  24.006  0.00  0.00    +0.148 HD
BRANCH  10   1
ATOM      1  S   UNL     1       0.898  -0.141  23.270  0.00  0.00    +0.065 S 
ATOM      7  O   UNL     1       0.542   0.309  21.938  0.00  0.00    -0.153 OA
ATOM      8  O   UNL     1       0.373  -1.393  23.782  0.00  0.00    -0.153 OA
BRANCH   1  23
ATOM      2  S   UNL     1       3.492   1.136  22.785  0.00  0.00    -0.077 S 
ATOM     23  C   UNL     1       2.660  -0.247  23.356  0.00  0.00    +0.142 A 
ATOM     24  C   UNL     1       3.525  -1.227  23.794  0.00  0.00    +0.036 A 
ATOM     25  C   UNL     1       4.889  -0.835  23.658  0.00  0.00    +0.010 A 
ATOM     26  C   UNL     1       5.014   0.428  23.122  0.00  0.00    +0.047 A 
ENDBRANCH   1  23
ENDBRANCH  10   1
ENDBRANCH  19  10
ENDBRANCH  12  19
BRANCH  16  21
ATOM     21  C   UNL     1      -0.384   4.614  23.708  0.00  0.00    +0.190 C 
BRANCH  21   6
ATOM      6  O   UNL     1       0.633   3.741  23.242  0.00  0.00    -0.392 OA
ATOM     29  H   UNL     1       0.959   3.245  24.013  0.00  0.00    +0.210 HD
ENDBRANCH  21   6
ENDBRANCH  16  21
TORSDOF 10
ENDMDL
MODEL 8
REMARK VINA RESULT:      -2.1      2.026      4.837
REMARK  Name = 28961807
REMARK  11 active torsions:
REMARK  status: ('A' for Active; 'I' for Inactive)
REMARK    1  A    between atoms: S_1  and  N_10
REMARK    2  A    between atoms: S_1  and  C_23
REMARK    3  A    between atoms: O_4  and  C_14
REMARK    4  A    between atoms: O_5  and  C_20
REMARK    5  A    between atoms: O_5  and  C_22
REMARK    6  A    between atoms: O_6  and  C_21
REMARK    7  A    between atoms: N_9  and  C_11
REMARK    8  A    between atoms: N_10  and  C_19
REMARK    9  A    between atoms: C_12  and  C_19
REMARK   10  A    between atoms: C_13  and  C_20
REMARK   11  A    between atoms: C_16  and  C_21
REMARK                            x       y       z     vdW  Elec       q    Type
REMARK                         _______ _______ _______ _____ _____    ______ ____
ROOT
ATOM      3  O   UNL     1      -0.993   1.118  25.963  0.00  0.00    -0.366 OA
ATOM     11  C   UNL     1       0.592   0.250  24.413  0.00  0.00    +0.118 C 
ATOM     12  C   UNL     1       0.070   1.532  25.075  0.00  0.00    +0.154 C 
ATOM     14  C   UNL     1      -0.610  -0.681  24.473  0.00  0.00    +0.165 C 
ATOM     16  C   UNL     1      -1.191  -0.302  25.830  0.00  0.00    +0.174 C 
ENDROOT
BRANCH  11   9
ATOM      9  N   UNL     1       1.191   0.404  23.099  0.00  0.00    -0.289 NA
ATOM     13  C   UNL     1       2.657   0.354  23.061  0.00  0.00    +0.083 C 
ATOM     15  C   UNL     1       0.701  -0.572  22.129  0.00  0.00    +0.085 C 
ATOM     17  C   UNL     1       2.904   0.269  21.555  0.00  0.00    +0.022 C 
ATOM     18  C   UNL     1       1.738  -0.549  21.011  0.00  0.00    +0.017 C 
BRANCH  13  20
ATOM     20  C   UNL     1       3.310  -0.817  23.801  0.00  0.00    +0.178 C 
BRANCH  20   5
ATOM      5  O   UNL     1       4.678  -0.877  23.440  0.00  0.00    -0.381 OA
ATOM     22  C   UNL     1       5.431   0.164  24.052  0.00  0.00    +0.194 C 
ENDBRANCH  20   5
ENDBRANCH  13  20
ENDBRANCH  11   9
BRANCH  14   4
ATOM      4  O   UNL     1      -1.542  -0.395  23.438  0.00  0.00    -0.388 OA
ATOM     27  H   UNL     1      -1.813   0.534  23.536  0.00  0.00    +0.210 HD
ENDBRANCH  14   4
BRANCH  12  19
ATOM     19  C   UNL     1      -0.506   2.595  24.145  0.00  0.00    +0.139 C 
BRANCH  19  10
ATOM     10  N   UNL     1      -1.857   2.966  24.606  0.00  0.00    -0.187 NA
ATOM     28  H   UNL     1      -2.043   2.733  25.590  0.00  0.00    +0.148 HD
BRANCH  10   1
ATOM      1  S   UNL     1      -3.176   2.891  23.532  0.00  0.00    +0.065 S 
ATOM      7  O   UNL     1      -2.927   1.865  22.538  0.00  0.00    -0.153 OA
ATOM      8  O   UNL     1      -3.529   4.237  23.120  0.00  0.00    -0.153 OA
BRANCH   1  23
ATOM      2  S   UNL     1      -5.042   3.476  25.717  0.00  0.00    -0.077 S 
ATOM     23  C   UNL     1      -4.471   2.320  24.591  0.00  0.00    +0.142 A 
ATOM     24  C   UNL     1      -5.133   1.116  24.706  0.00  0.00    +0.036 A 
ATOM     25  C   UNL     1      -6.121   1.146  25.732  0.00  0.00    +0.010 A 
ATOM     26  C   UNL     1      -6.177   2.369  26.363  0.00  0.00    +0.047 A 
ENDBRANCH   1  23
ENDBRANCH  10   1
ENDBRANCH  19  10
ENDBRANCH  12  19
BRANCH  16  21
ATOM     21  C   UNL     1      -2.662  -0.622  26.023  0.00  0.00    +0.190 C 
BRANCH  21   6
ATOM      6  O   UNL     1      -2.968  -1.814  25.317  0.00  0.00    -0.392 OA
ATOM     29  H   UNL     1      -2.591  -1.722  24.424  0.00  0.00    +0.210 HD
ENDBRANCH  21   6
ENDBRANCH  16  21
TORSDOF 10
ENDMDL
MODEL 9
REMARK VINA RESULT:      -1.9      2.121      4.769
REMARK  Name = 28961807
REMARK  11 active torsions:
REMARK  status: ('A' for Active; 'I' for Inactive)
REMARK    1  A    between atoms: S_1  and  N_10
REMARK    2  A    between atoms: S_1  and  C_23
REMARK    3  A    between atoms: O_4  and  C_14
REMARK    4  A    between atoms: O_5  and  C_20
REMARK    5  A    between atoms: O_5  and  C_22
REMARK    6  A    between atoms: O_6  and  C_21
REMARK    7  A    between atoms: N_9  and  C_11
REMARK    8  A    between atoms: N_10  and  C_19
REMARK    9  A    between atoms: C_12  and  C_19
REMARK   10  A    between atoms: C_13  and  C_20
REMARK   11  A    between atoms: C_16  and  C_21
REMARK                            x       y       z     vdW  Elec       q    Type
REMARK                         _______ _______ _______ _____ _____    ______ ____
ROOT
ATOM      3  O   UNL     1       1.236   1.822  24.633  0.00  0.00    -0.366 OA
ATOM     11  C   UNL     1      -0.956   2.412  23.917  0.00  0.00    +0.118 C 
ATOM     12  C   UNL     1      -0.018   2.339  25.129  0.00  0.00    +0.154 C 
ATOM     14  C   UNL     1      -0.396   1.346  22.987  0.00  0.00    +0.165 C 
ATOM     16  C   UNL     1       1.098   1.515  23.233  0.00  0.00    +0.174 C 
ENDROOT
BRANCH  11   9
ATOM      9  N   UNL     1      -2.377   2.306  24.198  0.00  0.00    -0.289 NA
ATOM     13  C   UNL     1      -2.944   3.384  25.016  0.00  0.00    +0.083 C 
ATOM     15  C   UNL     1      -3.193   2.208  22.989  0.00  0.00    +0.085 C 
ATOM     17  C   UNL     1      -4.439   3.101  24.870  0.00  0.00    +0.022 C 
ATOM     18  C   UNL     1      -4.601   2.563  23.452  0.00  0.00    +0.017 C 
BRANCH  13  20
ATOM     20  C   UNL     1      -2.600   4.812  24.581  0.00  0.00    +0.178 C 
BRANCH  20   5
ATOM      5  O   UNL     1      -1.606   5.324  25.450  0.00  0.00    -0.381 OA
ATOM     22  C   UNL     1      -0.439   5.720  24.741  0.00  0.00    +0.194 C 
ENDBRANCH  20   5
ENDBRANCH  13  20
ENDBRANCH  11   9
BRANCH  14   4
ATOM      4  O   UNL     1      -0.818   0.045  23.374  0.00  0.00    -0.388 OA
ATOM     27  H   UNL     1      -0.118  -0.337  23.931  0.00  0.00    +0.210 HD
ENDBRANCH  14   4
BRANCH  12  19
ATOM     19  C   UNL     1      -0.456   1.438  26.279  0.00  0.00    +0.139 C 
BRANCH  19  10
ATOM     10  N   UNL     1      -1.512   0.522  25.807  0.00  0.00    -0.187 NA
ATOM     28  H   UNL     1      -2.451   0.942  25.785  0.00  0.00    +0.148 HD
BRANCH  10   1
ATOM      1  S   UNL     1      -1.417  -1.142  26.153  0.00  0.00    +0.065 S 
ATOM      7  O   UNL     1      -1.817  -1.369  27.529  0.00  0.00    -0.153 OA
ATOM      8  O   UNL     1      -0.150  -1.655  25.668  0.00  0.00    -0.153 OA
BRANCH   1  23
ATOM      2  S   UNL     1      -4.023  -0.770  24.862  0.00  0.00    -0.077 S 
ATOM     23  C   UNL     1      -2.677  -1.801  25.104  0.00  0.00    +0.142 A 
ATOM     24  C   UNL     1      -2.810  -2.992  24.424  0.00  0.00    +0.036 A 
ATOM     25  C   UNL     1      -4.034  -3.058  23.696  0.00  0.00    +0.010 A 
ATOM     26  C   UNL     1      -4.788  -1.917  23.847  0.00  0.00    +0.047 A 
ENDBRANCH   1  23
ENDBRANCH  10   1
ENDBRANCH  19  10
ENDBRANCH  12  19
BRANCH  16  21
ATOM     21  C   UNL     1       1.955   0.308  22.898  0.00  0.00    +0.190 C 
BRANCH  21   6
ATOM      6  O   UNL     1       1.633  -0.133  21.589  0.00  0.00    -0.392 OA
ATOM     29  H   UNL     1       0.678   0.006  21.467  0.00  0.00    +0.210 HD
ENDBRANCH  21   6
ENDBRANCH  16  21
TORSDOF 10
ENDMDL
MODEL 10
REMARK VINA RESULT:      -1.8      2.196      4.863
REMARK  Name = 28961807
REMARK  11 active torsions:
REMARK  status: ('A' for Active; 'I' for Inactive)
REMARK    1  A    between atoms: S_1  and  N_10
REMARK    2  A    between atoms: S_1  and  C_23
REMARK    3  A    between atoms: O_4  and  C_14
REMARK    4  A    between atoms: O_5  and  C_20
REMARK    5  A    between atoms: O_5  and  C_22
REMARK    6  A    between atoms: O_6  and  C_21
REMARK    7  A    between atoms: N_9  and  C_11
REMARK    8  A    between atoms: N_10  and  C_19
REMARK    9  A    between atoms: C_12  and  C_19
REMARK   10  A    between atoms: C_13  and  C_20
REMARK   11  A    between atoms: C_16  and  C_21
REMARK                            x       y       z     vdW  Elec       q    Type
REMARK                         _______ _______ _______ _____ _____    ______ ____
ROOT
ATOM      3  O   UNL     1      -3.607  -1.425  23.348  0.00  0.00    -0.366 OA
ATOM     11  C   UNL     1      -4.548   0.252  24.752  0.00  0.00    +0.118 C 
ATOM     12  C   UNL     1      -3.803   0.004  23.434  0.00  0.00    +0.154 C 
ATOM     14  C   UNL     1      -4.148  -0.945  25.602  0.00  0.00    +0.165 C 
ATOM     16  C   UNL     1      -4.116  -2.042  24.546  0.00  0.00    +0.174 C 
ENDROOT
BRANCH  11   9
ATOM      9  N   UNL     1      -4.344   1.549  25.372  0.00  0.00    -0.289 NA
ATOM     13  C   UNL     1      -3.799   2.592  24.496  0.00  0.00    +0.083 C 
ATOM     15  C   UNL     1      -5.557   2.089  25.981  0.00  0.00    +0.085 C 
ATOM     17  C   UNL     1      -3.979   3.830  25.373  0.00  0.00    +0.022 C 
ATOM     18  C   UNL     1      -5.266   3.576  26.151  0.00  0.00    +0.017 C 
BRANCH  13  20
ATOM     20  C   UNL     1      -4.491   2.761  23.140  0.00  0.00    +0.178 C 
BRANCH  20   5
ATOM      5  O   UNL     1      -3.662   3.547  22.302  0.00  0.00    -0.381 OA
ATOM     22  C   UNL     1      -2.898   2.742  21.412  0.00  0.00    +0.194 C 
ENDBRANCH  20   5
ENDBRANCH  13  20
ENDBRANCH  11   9
BRANCH  14   4
ATOM      4  O   UNL     1      -2.857  -0.769  26.172  0.00  0.00    -0.388 OA
ATOM     27  H   UNL     1      -2.284  -1.473  25.823  0.00  0.00    +0.210 HD
ENDBRANCH  14   4
BRANCH  12  19
ATOM     19  C   UNL     1      -2.432   0.657  23.292  0.00  0.00    +0.139 C 
BRANCH  19  10
ATOM     10  N   UNL     1      -1.398  -0.390  23.212  0.00  0.00    -0.187 NA
ATOM     28  H   UNL     1      -1.770  -1.336  23.057  0.00  0.00    +0.148 HD
BRANCH  10   1
ATOM      1  S   UNL     1       0.021  -0.263  24.145  0.00  0.00    +0.065 S 
ATOM      7  O   UNL     1       1.168  -0.169  23.262  0.00  0.00    -0.153 OA
ATOM      8  O   UNL     1      -0.012  -1.261  25.196  0.00  0.00    -0.153 OA
BRANCH   1  23
ATOM      2  S   UNL     1       0.016   2.658  23.886  0.00  0.00    -0.077 S 
ATOM     23  C   UNL     1      -0.198   1.311  24.921  0.00  0.00    +0.142 A 
ATOM     24  C   UNL     1      -0.513   1.692  26.207  0.00  0.00    +0.036 A 
ATOM     25  C   UNL     1      -0.577   3.109  26.344  0.00  0.00    +0.010 A 
ATOM     26  C   UNL     1      -0.310   3.756  25.158  0.00  0.00    +0.047 A 
ENDBRANCH   1  23
ENDBRANCH  10   1
ENDBRANCH  19  10
ENDBRANCH  12  19
BRANCH  16  21
ATOM     21  C   UNL     1      -3.266  -3.252  24.886  0.00  0.00    +0.190 C 
BRANCH  21   6
ATOM      6  O   UNL     1      -1.961  -3.055  24.367  0.00  0.00    -0.392 OA
ATOM     29  H   UNL     1      -1.794  -3.774  23.732  0.00  0.00    +0.210 HD
ENDBRANCH  21   6
ENDBRANCH  16  21
TORSDOF 10
ENDMDL
