MODEL 1
REMARK VINA RESULT:       3.0      0.000      0.000
REMARK  Name = 11912190
REMARK  5 active torsions:
REMARK  status: ('A' for Active; 'I' for Inactive)
REMARK    1  A    between atoms: S_1  and  N_8
REMARK    2  A    between atoms: S_1  and  C_19
REMARK    3  A    between atoms: N_8  and  C_14
REMARK    4  A    between atoms: N_9  and  C_15
REMARK    5  A    between atoms: C_23  and  C_28
REMARK                            x       y       z     vdW  Elec       q    Type
REMARK                         _______ _______ _______ _____ _____    ______ ____
ROOT
ATOM      2  O   UNL     1      -1.092   2.748  23.245  0.00  0.00    -0.370 OA
ATOM      3  O   UNL     1      -0.920   4.149  26.028  0.00  0.00    -0.370 OA
ATOM     12  C   UNL     1      -1.373   2.852  25.605  0.00  0.00    +0.170 C 
ATOM     13  C   UNL     1      -2.063   3.030  24.266  0.00  0.00    +0.171 C 
ATOM     14  C   UNL     1      -0.193   1.959  25.295  0.00  0.00    +0.133 C 
ATOM     15  C   UNL     1      -2.444   4.492  24.238  0.00  0.00    +0.130 C 
ATOM     16  C   UNL     1       0.138   2.343  23.864  0.00  0.00    +0.183 C 
ATOM     17  C   UNL     1      -1.358   5.135  25.081  0.00  0.00    +0.185 C 
ENDROOT
BRANCH  15   9
ATOM      9  N   UNL     1      -3.737   4.678  24.860  0.00  0.00    -0.306 N 
ATOM     10  N   UNL     1      -4.093   2.368  25.068  0.00  0.00    -0.214 NA
ATOM     11  N   UNL     1      -5.740   3.949  25.841  0.00  0.00    -0.223 NA
ATOM     18  C   UNL     1      -4.547   3.634  25.269  0.00  0.00    +0.216 A 
ATOM     23  C   UNL     1      -4.909   1.375  25.479  0.00  0.00    +0.076 A 
ATOM     26  C   UNL     1      -6.504   2.907  26.229  0.00  0.00    +0.116 A 
ATOM     27  C   UNL     1      -6.137   1.586  26.070  0.00  0.00    +0.048 A 
ATOM     40  H   UNL     1      -4.060   5.616  25.064  0.00  0.00    +0.149 HD
BRANCH  23  28
ATOM      6  O   UNL     1      -4.367  -2.688  22.797  0.00  0.00    -0.453 OA
ATOM      7  O   UNL     1      -3.044  -3.762  24.502  0.00  0.00    -0.453 OA
ATOM     28  C   UNL     1      -4.408   0.040  25.257  0.00  0.00    +0.004 A 
ATOM     32  C   UNL     1      -4.691  -0.622  24.057  0.00  0.00    +0.059 A 
ATOM     34  C   UNL     1      -3.635  -0.593  26.251  0.00  0.00    +0.014 A 
ATOM     35  C   UNL     1      -4.191  -1.898  23.891  0.00  0.00    +0.167 A 
ATOM     36  C   UNL     1      -3.436  -2.511  24.865  0.00  0.00    +0.166 A 
ATOM     37  C   UNL     1      -3.141  -1.884  26.058  0.00  0.00    +0.050 A 
ATOM     38  C   UNL     1      -3.637  -3.868  23.192  0.00  0.00    +0.466 C 
ENDBRANCH  23  28
ENDBRANCH  15   9
BRANCH  14   8
ATOM      8  N   UNL     1      -0.554   0.566  25.391  0.00  0.00    -0.182 NA
ATOM     39  H   UNL     1      -0.593   0.155  26.332  0.00  0.00    +0.148 HD
BRANCH   8   1
ATOM      1  S   UNL     1      -0.307  -0.464  24.064  0.00  0.00    +0.059 S 
ATOM      4  O   UNL     1      -1.105  -0.005  22.942  0.00  0.00    -0.153 OA
ATOM      5  O   UNL     1      -0.405  -1.839  24.514  0.00  0.00    -0.153 OA
BRANCH   1  19
ATOM     19  C   UNL     1       1.392  -0.166  23.681  0.00  0.00    +0.106 A 
ATOM     20  C   UNL     1       2.339  -1.113  24.033  0.00  0.00    +0.037 A 
ATOM     21  C   UNL     1       1.744   1.005  23.041  0.00  0.00    +0.029 A 
ATOM     22  C   UNL     1       3.695  -0.892  23.736  0.00  0.00    -0.016 A 
ATOM     24  C   UNL     1       3.086   1.241  22.737  0.00  0.00    +0.010 A 
ATOM     25  C   UNL     1       4.073   0.302  23.079  0.00  0.00    -0.018 A 
ATOM     29  C   UNL     1       4.682  -1.831  24.078  0.00  0.00    +0.008 A 
ATOM     30  C   UNL     1       5.428   0.525  22.783  0.00  0.00    +0.008 A 
ATOM     31  C   UNL     1       6.023  -1.595  23.776  0.00  0.00    +0.001 A 
ATOM     33  C   UNL     1       6.396  -0.420  23.130  0.00  0.00    +0.001 A 
ENDBRANCH   1  19
ENDBRANCH   8   1
ENDBRANCH  14   8
TORSDOF 5
ENDMDL
MODEL 2
REMARK VINA RESULT:       6.1      1.796      2.721
REMARK  Name = 11912190
REMARK  5 active torsions:
REMARK  status: ('A' for Active; 'I' for Inactive)
REMARK    1  A    between atoms: S_1  and  N_8
REMARK    2  A    between atoms: S_1  and  C_19
REMARK    3  A    between atoms: N_8  and  C_14
REMARK    4  A    between atoms: N_9  and  C_15
REMARK    5  A    between atoms: C_23  and  C_28
REMARK                            x       y       z     vdW  Elec       q    Type
REMARK                         _______ _______ _______ _____ _____    ______ ____
ROOT
ATOM      2  O   UNL     1      -1.537   3.649  23.387  0.00  0.00    -0.370 OA
ATOM      3  O   UNL     1      -2.435   6.356  24.654  0.00  0.00    -0.370 OA
ATOM     12  C   UNL     1      -1.911   5.136  25.206  0.00  0.00    +0.170 C 
ATOM     13  C   UNL     1      -2.496   3.990  24.403  0.00  0.00    +0.171 C 
ATOM     14  C   UNL     1      -0.424   5.042  24.954  0.00  0.00    +0.133 C 
ATOM     15  C   UNL     1      -3.739   4.576  23.775  0.00  0.00    +0.130 C 
ATOM     16  C   UNL     1      -0.369   4.466  23.550  0.00  0.00    +0.183 C 
ATOM     17  C   UNL     1      -3.373   6.040  23.615  0.00  0.00    +0.185 C 
ENDROOT
BRANCH  15   9
ATOM      9  N   UNL     1      -4.862   4.435  24.676  0.00  0.00    -0.306 N 
ATOM     10  N   UNL     1      -4.542   2.119  24.890  0.00  0.00    -0.214 NA
ATOM     11  N   UNL     1      -6.329   3.235  26.060  0.00  0.00    -0.223 NA
ATOM     18  C   UNL     1      -5.255   3.227  25.225  0.00  0.00    +0.216 A 
ATOM     23  C   UNL     1      -4.954   0.960  25.442  0.00  0.00    +0.076 A 
ATOM     26  C   UNL     1      -6.686   2.041  26.577  0.00  0.00    +0.116 A 
ATOM     27  C   UNL     1      -6.030   0.859  26.301  0.00  0.00    +0.048 A 
ATOM     40  H   UNL     1      -5.366   5.260  24.975  0.00  0.00    +0.149 HD
BRANCH  23  28
ATOM      6  O   UNL     1      -1.001  -1.918  25.730  0.00  0.00    -0.453 OA
ATOM      7  O   UNL     1      -1.884  -3.470  24.110  0.00  0.00    -0.453 OA
ATOM     28  C   UNL     1      -4.182  -0.202  25.074  0.00  0.00    +0.004 A 
ATOM     32  C   UNL     1      -2.929  -0.422  25.657  0.00  0.00    +0.059 A 
ATOM     34  C   UNL     1      -4.694  -1.111  24.127  0.00  0.00    +0.014 A 
ATOM     35  C   UNL     1      -2.228  -1.547  25.272  0.00  0.00    +0.167 A 
ATOM     36  C   UNL     1      -2.732  -2.432  24.348  0.00  0.00    +0.166 A 
ATOM     37  C   UNL     1      -3.964  -2.243  23.756  0.00  0.00    +0.050 A 
ATOM     38  C   UNL     1      -0.790  -3.138  24.989  0.00  0.00    +0.466 C 
ENDBRANCH  23  28
ENDBRANCH  15   9
BRANCH  14   8
ATOM      8  N   UNL     1       0.212   4.162  25.904  0.00  0.00    -0.182 NA
ATOM     39  H   UNL     1       1.212   4.312  26.086  0.00  0.00    +0.148 HD
BRANCH   8   1
ATOM      1  S   UNL     1      -0.449   2.627  26.207  0.00  0.00    +0.059 S 
ATOM      4  O   UNL     1      -1.894   2.693  26.094  0.00  0.00    -0.153 OA
ATOM      5  O   UNL     1       0.165   2.081  27.402  0.00  0.00    -0.153 OA
BRANCH   1  19
ATOM     19  C   UNL     1       0.163   1.690  24.839  0.00  0.00    +0.106 A 
ATOM     20  C   UNL     1       1.494   1.812  24.478  0.00  0.00    +0.037 A 
ATOM     21  C   UNL     1      -0.698   0.855  24.156  0.00  0.00    +0.029 A 
ATOM     22  C   UNL     1       1.996   1.074  23.393  0.00  0.00    -0.016 A 
ATOM     24  C   UNL     1      -0.217   0.113  23.076  0.00  0.00    +0.010 A 
ATOM     25  C   UNL     1       1.127   0.212  22.682  0.00  0.00    -0.018 A 
ATOM     29  C   UNL     1       3.340   1.173  22.999  0.00  0.00    +0.008 A 
ATOM     30  C   UNL     1       1.628  -0.526  21.596  0.00  0.00    +0.008 A 
ATOM     31  C   UNL     1       3.821   0.432  21.919  0.00  0.00    +0.001 A 
ATOM     33  C   UNL     1       2.968  -0.415  21.219  0.00  0.00    +0.001 A 
ENDBRANCH   1  19
ENDBRANCH   8   1
ENDBRANCH  14   8
TORSDOF 5
ENDMDL
MODEL 3
REMARK VINA RESULT:       6.9      0.721      1.636
REMARK  Name = 11912190
REMARK  5 active torsions:
REMARK  status: ('A' for Active; 'I' for Inactive)
REMARK    1  A    between atoms: S_1  and  N_8
REMARK    2  A    between atoms: S_1  and  C_19
REMARK    3  A    between atoms: N_8  and  C_14
REMARK    4  A    between atoms: N_9  and  C_15
REMARK    5  A    between atoms: C_23  and  C_28
REMARK                            x       y       z     vdW  Elec       q    Type
REMARK                         _______ _______ _______ _____ _____    ______ ____
ROOT
ATOM      2  O   UNL     1      -0.817   2.830  23.238  0.00  0.00    -0.370 OA
ATOM      3  O   UNL     1      -0.683   3.946  26.149  0.00  0.00    -0.370 OA
ATOM     12  C   UNL     1      -1.245   2.754  25.577  0.00  0.00    +0.170 C 
ATOM     13  C   UNL     1      -1.820   3.130  24.225  0.00  0.00    +0.171 C 
ATOM     14  C   UNL     1      -0.152   1.762  25.251  0.00  0.00    +0.133 C 
ATOM     15  C   UNL     1      -2.036   4.622  24.317  0.00  0.00    +0.130 C 
ATOM     16  C   UNL     1       0.315   2.233  23.885  0.00  0.00    +0.183 C 
ATOM     17  C   UNL     1      -0.946   5.057  25.279  0.00  0.00    +0.185 C 
ENDROOT
BRANCH  15   9
ATOM      9  N   UNL     1      -3.340   4.899  24.879  0.00  0.00    -0.306 N 
ATOM     10  N   UNL     1      -3.942   2.631  24.886  0.00  0.00    -0.214 NA
ATOM     11  N   UNL     1      -5.464   4.318  25.688  0.00  0.00    -0.223 NA
ATOM     18  C   UNL     1      -4.276   3.920  25.160  0.00  0.00    +0.216 A 
ATOM     23  C   UNL     1      -4.878   1.703  25.171  0.00  0.00    +0.076 A 
ATOM     26  C   UNL     1      -6.354   3.338  25.949  0.00  0.00    +0.116 A 
ATOM     27  C   UNL     1      -6.114   2.000  25.708  0.00  0.00    +0.048 A 
ATOM     40  H   UNL     1      -3.578   5.849  25.137  0.00  0.00    +0.149 HD
BRANCH  23  28
ATOM      6  O   UNL     1      -3.126  -2.703  26.401  0.00  0.00    -0.453 OA
ATOM      7  O   UNL     1      -3.391  -3.550  24.160  0.00  0.00    -0.453 OA
ATOM     28  C   UNL     1      -4.502   0.342  24.874  0.00  0.00    +0.004 A 
ATOM     32  C   UNL     1      -3.988  -0.477  25.885  0.00  0.00    +0.059 A 
ATOM     34  C   UNL     1      -4.655  -0.157  23.566  0.00  0.00    +0.014 A 
ATOM     35  C   UNL     1      -3.641  -1.771  25.553  0.00  0.00    +0.167 A 
ATOM     36  C   UNL     1      -3.792  -2.254  24.273  0.00  0.00    +0.166 A 
ATOM     37  C   UNL     1      -4.297  -1.471  23.255  0.00  0.00    +0.050 A 
ATOM     38  C   UNL     1      -2.971  -3.827  25.511  0.00  0.00    +0.466 C 
ENDBRANCH  23  28
ENDBRANCH  15   9
BRANCH  14   8
ATOM      8  N   UNL     1      -0.669   0.417  25.190  0.00  0.00    -0.182 NA
ATOM     39  H   UNL     1      -0.823  -0.067  26.083  0.00  0.00    +0.148 HD
BRANCH   8   1
ATOM      1  S   UNL     1      -0.435  -0.515  23.789  0.00  0.00    +0.059 S 
ATOM      4  O   UNL     1      -0.763   0.279  22.620  0.00  0.00    -0.153 OA
ATOM      5  O   UNL     1      -1.051  -1.814  23.984  0.00  0.00    -0.153 OA
BRANCH   1  19
ATOM     19  C   UNL     1       1.314  -0.766  23.805  0.00  0.00    +0.106 A 
ATOM     20  C   UNL     1       2.139   0.197  23.249  0.00  0.00    +0.037 A 
ATOM     21  C   UNL     1       1.824  -1.918  24.368  0.00  0.00    +0.029 A 
ATOM     22  C   UNL     1       3.532   0.013  23.254  0.00  0.00    -0.016 A 
ATOM     24  C   UNL     1       3.206  -2.118  24.382  0.00  0.00    +0.010 A 
ATOM     25  C   UNL     1       4.073  -1.162  23.828  0.00  0.00    -0.018 A 
ATOM     29  C   UNL     1       4.399   0.969  22.700  0.00  0.00    +0.008 A 
ATOM     30  C   UNL     1       5.466  -1.347  23.832  0.00  0.00    +0.008 A 
ATOM     31  C   UNL     1       5.780   0.769  22.712  0.00  0.00    +0.001 A 
ATOM     33  C   UNL     1       6.312  -0.386  23.277  0.00  0.00    +0.001 A 
ENDBRANCH   1  19
ENDBRANCH   8   1
ENDBRANCH  14   8
TORSDOF 5
ENDMDL
