MODEL 1
REMARK VINA RESULT:       5.6      0.000      0.000
REMARK  Name = 7049502
REMARK  16 active torsions:
REMARK  status: ('A' for Active; 'I' for Inactive)
REMARK    1  A    between atoms: O_5  and  C_32
REMARK    2  A    between atoms: O_5  and  C_35
REMARK    3  A    between atoms: N_7  and  C_12
REMARK    4  A    between atoms: N_8  and  C_19
REMARK    5  A    between atoms: N_9  and  C_29
REMARK    6  A    between atoms: C_11  and  C_16
REMARK    7  A    between atoms: C_15  and  C_17
REMARK    8  A    between atoms: C_17  and  C_18
REMARK    9  A    between atoms: C_18  and  C_20
REMARK   10  A    between atoms: C_18  and  C_21
REMARK   11  A    between atoms: C_18  and  C_22
REMARK   12  A    between atoms: C_19  and  C_23
REMARK   13  A    between atoms: C_19  and  C_26
REMARK   14  A    between atoms: C_23  and  C_25
REMARK   15  A    between atoms: C_25  and  C_27
REMARK   16  A    between atoms: C_25  and  C_28
REMARK                            x       y       z     vdW  Elec       q    Type
REMARK                         _______ _______ _______ _____ _____    ______ ____
ROOT
ATOM      1  O   UNL     1      -1.704   5.074  24.104  0.00  0.00    -0.276 OA
ATOM      6  N   UNL     1      -1.002   3.636  25.777  0.00  0.00    -0.288 N 
ATOM     11  C   UNL     1       0.356   3.464  25.281  0.00  0.00    +0.164 C 
ATOM     12  C   UNL     1       0.032   2.054  27.216  0.00  0.00    +0.094 C 
ATOM     13  C   UNL     1       1.114   2.792  26.423  0.00  0.00    +0.055 C 
ATOM     14  C   UNL     1      -1.198   2.942  27.049  0.00  0.00    +0.131 C 
ATOM     15  C   UNL     1      -1.903   4.504  25.178  0.00  0.00    +0.217 C 
ENDROOT
BRANCH  12   7
ATOM      3  O   UNL     1      -2.268   1.141  25.772  0.00  0.00    -0.253 OA
ATOM      7  N   UNL     1      -0.194   0.725  26.706  0.00  0.00    -0.295 N 
ATOM      9  N   UNL     1      -1.291  -0.989  25.636  0.00  0.00    -0.269 N 
ATOM     24  C   UNL     1      -1.350   0.358  26.006  0.00  0.00    +0.304 C 
ATOM     36  H   UNL     1       0.490   0.004  26.915  0.00  0.00    +0.151 HD
ATOM     38  H   UNL     1      -0.455  -1.500  25.909  0.00  0.00    +0.156 HD
BRANCH   9  29
ATOM     29  C   UNL     1      -2.255  -1.736  24.921  0.00  0.00    +0.038 A 
ATOM     30  C   UNL     1      -3.532  -1.214  24.717  0.00  0.00    +0.069 A 
ATOM     31  C   UNL     1      -1.929  -2.997  24.420  0.00  0.00    +0.023 A 
ATOM     32  C   UNL     1      -4.483  -1.952  24.012  0.00  0.00    +0.122 A 
ATOM     33  C   UNL     1      -2.879  -3.735  23.716  0.00  0.00    +0.005 A 
ATOM     34  C   UNL     1      -4.157  -3.212  23.512  0.00  0.00    +0.046 A 
BRANCH  32   5
ATOM      5  O   UNL     1      -5.730  -1.442  23.812  0.00  0.00    -0.495 OA
ATOM     35  C   UNL     1      -5.952  -0.094  24.221  0.00  0.00    +0.277 C 
ENDBRANCH  32   5
ENDBRANCH   9  29
ENDBRANCH  12   7
BRANCH  11  16
ATOM      2  O   UNL     1      -0.700   2.477  23.382  0.00  0.00    -0.274 OA
ATOM      8  N   UNL     1       1.522   1.955  23.833  0.00  0.00    -0.302 N 
ATOM     16  C   UNL     1       0.315   2.594  24.060  0.00  0.00    +0.234 C 
ATOM     37  H   UNL     1       2.290   2.105  24.481  0.00  0.00    +0.150 HD
BRANCH   8  19
ATOM     19  C   UNL     1       1.738   1.043  22.733  0.00  0.00    +0.159 C 
BRANCH  19  26
ATOM      4  O   UNL     1       0.947  -0.718  24.212  0.00  0.00    -0.274 OA
ATOM     10  N   UNL     1       0.387  -0.819  21.987  0.00  0.00    -0.328 N 
ATOM     26  C   UNL     1       1.011  -0.250  23.077  0.00  0.00    +0.231 C 
ATOM     39  H   UNL     1      -0.147  -1.677  22.082  0.00  0.00    +0.145 HD
ATOM     40  H   UNL     1       0.445  -0.421  21.055  0.00  0.00    +0.145 HD
ENDBRANCH  19  26
BRANCH  19  23
ATOM     23  C   UNL     1       3.228   0.766  22.491  0.00  0.00    +0.034 C 
BRANCH  23  25
ATOM     25  C   UNL     1       3.973   0.147  23.691  0.00  0.00    -0.015 C 
ATOM     27  C   UNL     1       5.372   0.760  23.801  0.00  0.00    +0.007 C 
ATOM     28  C   UNL     1       4.085  -1.374  23.586  0.00  0.00    +0.007 C 
ENDBRANCH  23  25
ENDBRANCH  19  23
ENDBRANCH   8  19
ENDBRANCH  11  16
BRANCH  15  17
ATOM     17  C   UNL     1      -3.195   4.718  25.926  0.00  0.00    +0.102 C 
BRANCH  17  18
ATOM     18  C   UNL     1      -4.386   3.986  25.281  0.00  0.00    -0.029 C 
ATOM     20  C   UNL     1      -4.007   3.415  23.904  0.00  0.00    +0.011 C 
ATOM     21  C   UNL     1      -4.894   2.848  26.183  0.00  0.00    +0.011 C 
ATOM     22  C   UNL     1      -5.523   5.008  25.093  0.00  0.00    +0.011 C 
ENDBRANCH  17  18
ENDBRANCH  15  17
TORSDOF 10
ENDMDL
MODEL 2
REMARK VINA RESULT:       6.2      2.024      5.738
REMARK  Name = 7049502
REMARK  16 active torsions:
REMARK  status: ('A' for Active; 'I' for Inactive)
REMARK    1  A    between atoms: O_5  and  C_32
REMARK    2  A    between atoms: O_5  and  C_35
REMARK    3  A    between atoms: N_7  and  C_12
REMARK    4  A    between atoms: N_8  and  C_19
REMARK    5  A    between atoms: N_9  and  C_29
REMARK    6  A    between atoms: C_11  and  C_16
REMARK    7  A    between atoms: C_15  and  C_17
REMARK    8  A    between atoms: C_17  and  C_18
REMARK    9  A    between atoms: C_18  and  C_20
REMARK   10  A    between atoms: C_18  and  C_21
REMARK   11  A    between atoms: C_18  and  C_22
REMARK   12  A    between atoms: C_19  and  C_23
REMARK   13  A    between atoms: C_19  and  C_26
REMARK   14  A    between atoms: C_23  and  C_25
REMARK   15  A    between atoms: C_25  and  C_27
REMARK   16  A    between atoms: C_25  and  C_28
REMARK                            x       y       z     vdW  Elec       q    Type
REMARK                         _______ _______ _______ _____ _____    ______ ____
ROOT
ATOM      1  O   UNL     1      -0.878  -2.704  25.690  0.00  0.00    -0.276 OA
ATOM      6  N   UNL     1      -0.678  -1.171  23.967  0.00  0.00    -0.288 N 
ATOM     11  C   UNL     1       0.410  -0.405  24.559  0.00  0.00    +0.164 C 
ATOM     12  C   UNL     1      -0.270   0.646  22.491  0.00  0.00    +0.094 C 
ATOM     13  C   UNL     1       0.928   0.485  23.432  0.00  0.00    +0.055 C 
ATOM     14  C   UNL     1      -1.009  -0.681  22.629  0.00  0.00    +0.131 C 
ATOM     15  C   UNL     1      -1.180  -2.320  24.558  0.00  0.00    +0.217 C 
ENDROOT
BRANCH  12   7
ATOM      3  O   UNL     1      -2.750   0.533  23.921  0.00  0.00    -0.253 OA
ATOM      7  N   UNL     1      -1.099   1.763  22.868  0.00  0.00    -0.295 N 
ATOM      9  N   UNL     1      -2.887   2.873  23.794  0.00  0.00    -0.269 N 
ATOM     24  C   UNL     1      -2.303   1.623  23.570  0.00  0.00    +0.304 C 
ATOM     36  H   UNL     1      -0.830   2.692  22.557  0.00  0.00    +0.151 HD
ATOM     38  H   UNL     1      -2.384   3.681  23.436  0.00  0.00    +0.156 HD
BRANCH   9  29
ATOM     29  C   UNL     1      -4.099   3.157  24.464  0.00  0.00    +0.038 A 
ATOM     30  C   UNL     1      -4.867   2.118  24.989  0.00  0.00    +0.069 A 
ATOM     31  C   UNL     1      -4.527   4.478  24.599  0.00  0.00    +0.023 A 
ATOM     32  C   UNL     1      -6.063   2.399  25.649  0.00  0.00    +0.122 A 
ATOM     33  C   UNL     1      -5.723   4.759  25.259  0.00  0.00    +0.005 A 
ATOM     34  C   UNL     1      -6.491   3.719  25.784  0.00  0.00    +0.046 A 
BRANCH  32   5
ATOM      5  O   UNL     1      -6.813   1.384  26.162  0.00  0.00    -0.495 OA
ATOM     35  C   UNL     1      -6.882   1.284  27.583  0.00  0.00    +0.277 C 
ENDBRANCH  32   5
ENDBRANCH   9  29
ENDBRANCH  12   7
BRANCH  11  16
ATOM      2  O   UNL     1      -1.002  -0.030  26.446  0.00  0.00    -0.274 OA
ATOM      8  N   UNL     1       0.431   1.669  25.756  0.00  0.00    -0.302 N 
ATOM     16  C   UNL     1      -0.137   0.407  25.694  0.00  0.00    +0.234 C 
ATOM     37  H   UNL     1       1.121   1.934  25.059  0.00  0.00    +0.150 HD
BRANCH   8  19
ATOM     19  C   UNL     1       0.060   2.654  26.745  0.00  0.00    +0.159 C 
BRANCH  19  26
ATOM      4  O   UNL     1      -1.886   4.066  26.385  0.00  0.00    -0.274 OA
ATOM     10  N   UNL     1      -0.094   4.284  24.966  0.00  0.00    -0.328 N 
ATOM     26  C   UNL     1      -0.763   3.717  26.030  0.00  0.00    +0.231 C 
ATOM     39  H   UNL     1      -0.525   5.017  24.412  0.00  0.00    +0.145 HD
ATOM     40  H   UNL     1       0.835   3.988  24.683  0.00  0.00    +0.145 HD
ENDBRANCH  19  26
BRANCH  19  23
ATOM     23  C   UNL     1       1.283   3.294  27.417  0.00  0.00    +0.034 C 
BRANCH  23  25
ATOM     25  C   UNL     1       1.853   2.500  28.610  0.00  0.00    -0.015 C 
ATOM     27  C   UNL     1       0.909   2.624  29.810  0.00  0.00    +0.007 C 
ATOM     28  C   UNL     1       3.253   2.970  29.006  0.00  0.00    +0.007 C 
ENDBRANCH  23  25
ENDBRANCH  19  23
ENDBRANCH   8  19
ENDBRANCH  11  16
BRANCH  15  17
ATOM     17  C   UNL     1      -2.163  -3.104  23.726  0.00  0.00    +0.102 C 
BRANCH  17  18
ATOM     18  C   UNL     1      -3.625  -2.867  24.146  0.00  0.00    -0.029 C 
ATOM     20  C   UNL     1      -4.312  -1.852  23.216  0.00  0.00    +0.011 C 
ATOM     21  C   UNL     1      -4.424  -4.181  24.147  0.00  0.00    +0.011 C 
ATOM     22  C   UNL     1      -3.617  -2.295  25.576  0.00  0.00    +0.011 C 
ENDBRANCH  17  18
ENDBRANCH  15  17
TORSDOF 10
ENDMDL
MODEL 3
REMARK VINA RESULT:       6.3      2.133      5.853
REMARK  Name = 7049502
REMARK  16 active torsions:
REMARK  status: ('A' for Active; 'I' for Inactive)
REMARK    1  A    between atoms: O_5  and  C_32
REMARK    2  A    between atoms: O_5  and  C_35
REMARK    3  A    between atoms: N_7  and  C_12
REMARK    4  A    between atoms: N_8  and  C_19
REMARK    5  A    between atoms: N_9  and  C_29
REMARK    6  A    between atoms: C_11  and  C_16
REMARK    7  A    between atoms: C_15  and  C_17
REMARK    8  A    between atoms: C_17  and  C_18
REMARK    9  A    between atoms: C_18  and  C_20
REMARK   10  A    between atoms: C_18  and  C_21
REMARK   11  A    between atoms: C_18  and  C_22
REMARK   12  A    between atoms: C_19  and  C_23
REMARK   13  A    between atoms: C_19  and  C_26
REMARK   14  A    between atoms: C_23  and  C_25
REMARK   15  A    between atoms: C_25  and  C_27
REMARK   16  A    between atoms: C_25  and  C_28
REMARK                            x       y       z     vdW  Elec       q    Type
REMARK                         _______ _______ _______ _____ _____    ______ ____
ROOT
ATOM      1  O   UNL     1      -0.365  -2.200  25.943  0.00  0.00    -0.276 OA
ATOM      6  N   UNL     1      -0.517  -0.943  24.005  0.00  0.00    -0.288 N 
ATOM     11  C   UNL     1       0.563  -0.022  24.326  0.00  0.00    +0.164 C 
ATOM     12  C   UNL     1      -0.457   0.646  22.240  0.00  0.00    +0.094 C 
ATOM     13  C   UNL     1       0.858   0.716  23.022  0.00  0.00    +0.055 C 
ATOM     14  C   UNL     1      -1.053  -0.691  22.667  0.00  0.00    +0.131 C 
ATOM     15  C   UNL     1      -0.838  -2.018  24.819  0.00  0.00    +0.217 C 
ENDROOT
BRANCH  12   7
ATOM      3  O   UNL     1      -2.759   0.570  23.943  0.00  0.00    -0.253 OA
ATOM      7  N   UNL     1      -1.329   1.748  22.559  0.00  0.00    -0.295 N 
ATOM      9  N   UNL     1      -3.094   2.856  23.529  0.00  0.00    -0.269 N 
ATOM     24  C   UNL     1      -2.439   1.628  23.405  0.00  0.00    +0.304 C 
ATOM     36  H   UNL     1      -1.168   2.641  22.102  0.00  0.00    +0.151 HD
ATOM     38  H   UNL     1      -2.697   3.639  23.014  0.00  0.00    +0.156 HD
BRANCH   9  29
ATOM     29  C   UNL     1      -4.249   3.151  24.289  0.00  0.00    +0.038 A 
ATOM     30  C   UNL     1      -4.995   2.117  24.855  0.00  0.00    +0.069 A 
ATOM     31  C   UNL     1      -4.644   4.477  24.472  0.00  0.00    +0.023 A 
ATOM     32  C   UNL     1      -6.135   2.409  25.604  0.00  0.00    +0.122 A 
ATOM     33  C   UNL     1      -5.784   4.768  25.220  0.00  0.00    +0.005 A 
ATOM     34  C   UNL     1      -6.530   3.734  25.787  0.00  0.00    +0.046 A 
BRANCH  32   5
ATOM      5  O   UNL     1      -6.863   1.399  26.158  0.00  0.00    -0.495 OA
ATOM     35  C   UNL     1      -6.899   1.332  27.582  0.00  0.00    +0.277 C 
ENDBRANCH  32   5
ENDBRANCH   9  29
ENDBRANCH  12   7
BRANCH  11  16
ATOM      2  O   UNL     1      -0.858   0.647  26.123  0.00  0.00    -0.274 OA
ATOM      8  N   UNL     1       0.831   2.088  25.427  0.00  0.00    -0.302 N 
ATOM     16  C   UNL     1       0.092   0.918  25.396  0.00  0.00    +0.234 C 
ATOM     37  H   UNL     1       1.580   2.217  24.753  0.00  0.00    +0.150 HD
BRANCH   8  19
ATOM     19  C   UNL     1       0.563   3.167  26.351  0.00  0.00    +0.159 C 
BRANCH  19  26
ATOM      4  O   UNL     1       0.022   2.209  28.519  0.00  0.00    -0.274 OA
ATOM     10  N   UNL     1       2.221   2.664  28.038  0.00  0.00    -0.328 N 
ATOM     26  C   UNL     1       0.873   2.644  27.747  0.00  0.00    +0.231 C 
ATOM     39  H   UNL     1       2.565   2.328  28.932  0.00  0.00    +0.145 HD
ATOM     40  H   UNL     1       2.915   3.024  27.391  0.00  0.00    +0.145 HD
ENDBRANCH  19  26
BRANCH  19  23
ATOM     23  C   UNL     1      -0.891   3.651  26.276  0.00  0.00    +0.034 C 
BRANCH  23  25
ATOM     25  C   UNL     1      -1.236   4.465  25.012  0.00  0.00    -0.015 C 
ATOM     27  C   UNL     1       0.021   4.648  24.157  0.00  0.00    +0.007 C 
ATOM     28  C   UNL     1      -1.835   5.832  25.346  0.00  0.00    +0.007 C 
ENDBRANCH  23  25
ENDBRANCH  19  23
ENDBRANCH   8  19
ENDBRANCH  11  16
BRANCH  15  17
ATOM     17  C   UNL     1      -1.843  -2.989  24.251  0.00  0.00    +0.102 C 
BRANCH  17  18
ATOM     18  C   UNL     1      -3.273  -2.734  24.759  0.00  0.00    -0.029 C 
ATOM     20  C   UNL     1      -3.283  -1.692  25.890  0.00  0.00    +0.011 C 
ATOM     21  C   UNL     1      -4.192  -2.261  23.621  0.00  0.00    +0.011 C 
ATOM     22  C   UNL     1      -3.821  -4.063  25.312  0.00  0.00    +0.011 C 
ENDBRANCH  17  18
ENDBRANCH  15  17
TORSDOF 10
ENDMDL
MODEL 4
REMARK VINA RESULT:       6.9      2.062      5.391
REMARK  Name = 7049502
REMARK  16 active torsions:
REMARK  status: ('A' for Active; 'I' for Inactive)
REMARK    1  A    between atoms: O_5  and  C_32
REMARK    2  A    between atoms: O_5  and  C_35
REMARK    3  A    between atoms: N_7  and  C_12
REMARK    4  A    between atoms: N_8  and  C_19
REMARK    5  A    between atoms: N_9  and  C_29
REMARK    6  A    between atoms: C_11  and  C_16
REMARK    7  A    between atoms: C_15  and  C_17
REMARK    8  A    between atoms: C_17  and  C_18
REMARK    9  A    between atoms: C_18  and  C_20
REMARK   10  A    between atoms: C_18  and  C_21
REMARK   11  A    between atoms: C_18  and  C_22
REMARK   12  A    between atoms: C_19  and  C_23
REMARK   13  A    between atoms: C_19  and  C_26
REMARK   14  A    between atoms: C_23  and  C_25
REMARK   15  A    between atoms: C_25  and  C_27
REMARK   16  A    between atoms: C_25  and  C_28
REMARK                            x       y       z     vdW  Elec       q    Type
REMARK                         _______ _______ _______ _____ _____    ______ ____
ROOT
ATOM      1  O   UNL     1      -5.332   4.067  24.343  0.00  0.00    -0.276 OA
ATOM      6  N   UNL     1      -3.439   3.857  25.659  0.00  0.00    -0.288 N 
ATOM     11  C   UNL     1      -2.534   4.544  24.750  0.00  0.00    +0.164 C 
ATOM     12  C   UNL     1      -1.282   3.718  26.644  0.00  0.00    +0.094 C 
ATOM     13  C   UNL     1      -1.272   4.807  25.568  0.00  0.00    +0.055 C 
ATOM     14  C   UNL     1      -2.767   3.491  26.906  0.00  0.00    +0.131 C 
ATOM     15  C   UNL     1      -4.798   3.748  25.407  0.00  0.00    +0.217 C 
ENDROOT
BRANCH  12   7
ATOM      3  O   UNL     1       0.223   3.388  24.228  0.00  0.00    -0.253 OA
ATOM      7  N   UNL     1      -0.627   2.515  26.194  0.00  0.00    -0.295 N 
ATOM      9  N   UNL     1       0.615   1.151  24.821  0.00  0.00    -0.269 N 
ATOM     24  C   UNL     1       0.093   2.437  24.995  0.00  0.00    +0.304 C 
ATOM     36  H   UNL     1      -0.743   1.667  26.740  0.00  0.00    +0.151 HD
ATOM     38  H   UNL     1       0.413   0.475  25.554  0.00  0.00    +0.156 HD
BRANCH   9  29
ATOM     29  C   UNL     1       1.395   0.670  23.746  0.00  0.00    +0.038 A 
ATOM     30  C   UNL     1       2.767   0.920  23.710  0.00  0.00    +0.069 A 
ATOM     31  C   UNL     1       0.793  -0.058  22.718  0.00  0.00    +0.023 A 
ATOM     32  C   UNL     1       3.536   0.445  22.649  0.00  0.00    +0.122 A 
ATOM     33  C   UNL     1       1.562  -0.533  21.656  0.00  0.00    +0.005 A 
ATOM     34  C   UNL     1       2.934  -0.281  21.622  0.00  0.00    +0.046 A 
BRANCH  32   5
ATOM      5  O   UNL     1       4.875   0.690  22.615  0.00  0.00    -0.495 OA
ATOM     35  C   UNL     1       5.695  -0.066  23.505  0.00  0.00    +0.277 C 
ENDBRANCH  32   5
ENDBRANCH   9  29
ENDBRANCH  12   7
BRANCH  11  16
ATOM      2  O   UNL     1      -1.689   4.056  22.571  0.00  0.00    -0.274 OA
ATOM      8  N   UNL     1      -2.723   2.361  23.784  0.00  0.00    -0.302 N 
ATOM     16  C   UNL     1      -2.254   3.647  23.581  0.00  0.00    +0.234 C 
ATOM     37  H   UNL     1      -3.204   2.142  24.652  0.00  0.00    +0.150 HD
BRANCH   8  19
ATOM     19  C   UNL     1      -2.599   1.310  22.800  0.00  0.00    +0.159 C 
BRANCH  19  26
ATOM      4  O   UNL     1      -3.703   2.814  21.241  0.00  0.00    -0.274 OA
ATOM     10  N   UNL     1      -2.020   1.462  20.458  0.00  0.00    -0.328 N 
ATOM     26  C   UNL     1      -2.862   1.940  21.440  0.00  0.00    +0.231 C 
ATOM     39  H   UNL     1      -2.080   1.811  19.507  0.00  0.00    +0.145 HD
ATOM     40  H   UNL     1      -1.328   0.741  20.635  0.00  0.00    +0.145 HD
ENDBRANCH  19  26
BRANCH  19  23
ATOM     23  C   UNL     1      -3.583   0.159  23.051  0.00  0.00    +0.034 C 
BRANCH  23  25
ATOM     25  C   UNL     1      -2.955  -1.102  23.678  0.00  0.00    -0.015 C 
ATOM     27  C   UNL     1      -4.053  -2.121  23.999  0.00  0.00    +0.007 C 
ATOM     28  C   UNL     1      -2.159  -0.788  24.946  0.00  0.00    +0.007 C 
ENDBRANCH  23  25
ENDBRANCH  19  23
ENDBRANCH   8  19
ENDBRANCH  11  16
BRANCH  15  17
ATOM     17  C   UNL     1      -5.627   3.185  26.535  0.00  0.00    +0.102 C 
BRANCH  17  18
ATOM     18  C   UNL     1      -6.129   1.758  26.253  0.00  0.00    -0.029 C 
ATOM     20  C   UNL     1      -6.952   1.705  24.954  0.00  0.00    +0.011 C 
ATOM     21  C   UNL     1      -4.958   0.765  26.156  0.00  0.00    +0.011 C 
ATOM     22  C   UNL     1      -7.034   1.336  27.425  0.00  0.00    +0.011 C 
ENDBRANCH  17  18
ENDBRANCH  15  17
TORSDOF 10
ENDMDL
MODEL 5
REMARK VINA RESULT:       7.2      2.408      5.963
REMARK  Name = 7049502
REMARK  16 active torsions:
REMARK  status: ('A' for Active; 'I' for Inactive)
REMARK    1  A    between atoms: O_5  and  C_32
REMARK    2  A    between atoms: O_5  and  C_35
REMARK    3  A    between atoms: N_7  and  C_12
REMARK    4  A    between atoms: N_8  and  C_19
REMARK    5  A    between atoms: N_9  and  C_29
REMARK    6  A    between atoms: C_11  and  C_16
REMARK    7  A    between atoms: C_15  and  C_17
REMARK    8  A    between atoms: C_17  and  C_18
REMARK    9  A    between atoms: C_18  and  C_20
REMARK   10  A    between atoms: C_18  and  C_21
REMARK   11  A    between atoms: C_18  and  C_22
REMARK   12  A    between atoms: C_19  and  C_23
REMARK   13  A    between atoms: C_19  and  C_26
REMARK   14  A    between atoms: C_23  and  C_25
REMARK   15  A    between atoms: C_25  and  C_27
REMARK   16  A    between atoms: C_25  and  C_28
REMARK                            x       y       z     vdW  Elec       q    Type
REMARK                         _______ _______ _______ _____ _____    ______ ____
ROOT
ATOM      1  O   UNL     1      -5.483   2.006  23.635  0.00  0.00    -0.276 OA
ATOM      6  N   UNL     1      -3.245   2.573  23.451  0.00  0.00    -0.288 N 
ATOM     11  C   UNL     1      -2.828   1.359  22.764  0.00  0.00    +0.164 C 
ATOM     12  C   UNL     1      -0.888   2.732  23.201  0.00  0.00    +0.094 C 
ATOM     13  C   UNL     1      -1.422   1.657  22.250  0.00  0.00    +0.055 C 
ATOM     14  C   UNL     1      -2.138   3.519  23.583  0.00  0.00    +0.131 C 
ATOM     15  C   UNL     1      -4.573   2.828  23.760  0.00  0.00    +0.217 C 
ENDROOT
BRANCH  12   7
ATOM      3  O   UNL     1      -0.130   4.097  25.603  0.00  0.00    -0.253 OA
ATOM      7  N   UNL     1      -0.245   2.154  24.355  0.00  0.00    -0.295 N 
ATOM      9  N   UNL     1       0.702   2.072  26.448  0.00  0.00    -0.269 N 
ATOM     24  C   UNL     1       0.093   2.894  25.495  0.00  0.00    +0.304 C 
ATOM     36  H   UNL     1       0.031   1.178  24.317  0.00  0.00    +0.151 HD
ATOM     38  H   UNL     1       0.813   1.092  26.200  0.00  0.00    +0.156 HD
BRANCH   9  29
ATOM     29  C   UNL     1       1.187   2.436  27.725  0.00  0.00    +0.038 A 
ATOM     30  C   UNL     1       0.334   2.412  28.829  0.00  0.00    +0.069 A 
ATOM     31  C   UNL     1       2.519   2.820  27.882  0.00  0.00    +0.023 A 
ATOM     32  C   UNL     1       0.813   2.771  30.088  0.00  0.00    +0.122 A 
ATOM     33  C   UNL     1       2.998   3.179  29.141  0.00  0.00    +0.005 A 
ATOM     34  C   UNL     1       2.144   3.155  30.245  0.00  0.00    +0.046 A 
BRANCH  32   5
ATOM      5  O   UNL     1      -0.020   2.747  31.166  0.00  0.00    -0.495 OA
ATOM     35  C   UNL     1       0.513   2.234  32.385  0.00  0.00    +0.277 C 
ENDBRANCH  32   5
ENDBRANCH   9  29
ENDBRANCH  12   7
BRANCH  11  16
ATOM      2  O   UNL     1      -3.810  -0.038  24.432  0.00  0.00    -0.274 OA
ATOM      8  N   UNL     1      -1.610  -0.432  23.785  0.00  0.00    -0.302 N 
ATOM     16  C   UNL     1      -2.827   0.226  23.746  0.00  0.00    +0.234 C 
ATOM     37  H   UNL     1      -0.853  -0.105  23.190  0.00  0.00    +0.150 HD
BRANCH   8  19
ATOM     19  C   UNL     1      -1.341  -1.546  24.665  0.00  0.00    +0.159 C 
BRANCH  19  26
ATOM      4  O   UNL     1       0.736  -2.391  25.605  0.00  0.00    -0.274 OA
ATOM     10  N   UNL     1       0.847  -0.853  23.904  0.00  0.00    -0.328 N 
ATOM     26  C   UNL     1       0.171  -1.648  24.806  0.00  0.00    +0.231 C 
ATOM     39  H   UNL     1       1.861  -0.839  23.881  0.00  0.00    +0.145 HD
ATOM     40  H   UNL     1       0.369  -0.244  23.247  0.00  0.00    +0.145 HD
ENDBRANCH  19  26
BRANCH  19  23
ATOM     23  C   UNL     1      -1.914  -2.864  24.127  0.00  0.00    +0.034 C 
BRANCH  23  25
ATOM     25  C   UNL     1      -3.261  -3.284  24.750  0.00  0.00    -0.015 C 
ATOM     27  C   UNL     1      -4.399  -2.986  23.770  0.00  0.00    +0.007 C 
ATOM     28  C   UNL     1      -3.532  -2.582  26.081  0.00  0.00    +0.007 C 
ENDBRANCH  23  25
ENDBRANCH  19  23
ENDBRANCH   8  19
ENDBRANCH  11  16
BRANCH  15  17
ATOM     17  C   UNL     1      -4.864   4.210  24.290  0.00  0.00    +0.102 C 
BRANCH  17  18
ATOM     18  C   UNL     1      -5.142   4.223  25.804  0.00  0.00    -0.029 C 
ATOM     20  C   UNL     1      -5.706   2.872  26.277  0.00  0.00    +0.011 C 
ATOM     21  C   UNL     1      -3.867   4.550  26.600  0.00  0.00    +0.011 C 
ATOM     22  C   UNL     1      -6.189   5.318  26.082  0.00  0.00    +0.011 C 
ENDBRANCH  17  18
ENDBRANCH  15  17
TORSDOF 10
ENDMDL
MODEL 6
REMARK VINA RESULT:       7.2      2.392      5.685
REMARK  Name = 7049502
REMARK  16 active torsions:
REMARK  status: ('A' for Active; 'I' for Inactive)
REMARK    1  A    between atoms: O_5  and  C_32
REMARK    2  A    between atoms: O_5  and  C_35
REMARK    3  A    between atoms: N_7  and  C_12
REMARK    4  A    between atoms: N_8  and  C_19
REMARK    5  A    between atoms: N_9  and  C_29
REMARK    6  A    between atoms: C_11  and  C_16
REMARK    7  A    between atoms: C_15  and  C_17
REMARK    8  A    between atoms: C_17  and  C_18
REMARK    9  A    between atoms: C_18  and  C_20
REMARK   10  A    between atoms: C_18  and  C_21
REMARK   11  A    between atoms: C_18  and  C_22
REMARK   12  A    between atoms: C_19  and  C_23
REMARK   13  A    between atoms: C_19  and  C_26
REMARK   14  A    between atoms: C_23  and  C_25
REMARK   15  A    between atoms: C_25  and  C_27
REMARK   16  A    between atoms: C_25  and  C_28
REMARK                            x       y       z     vdW  Elec       q    Type
REMARK                         _______ _______ _______ _____ _____    ______ ____
ROOT
ATOM      1  O   UNL     1      -4.351  -0.272  23.946  0.00  0.00    -0.276 OA
ATOM      6  N   UNL     1      -3.478   1.846  24.284  0.00  0.00    -0.288 N 
ATOM     11  C   UNL     1      -2.827   1.960  22.987  0.00  0.00    +0.164 C 
ATOM     12  C   UNL     1      -2.315   3.917  24.309  0.00  0.00    +0.094 C 
ATOM     13  C   UNL     1      -2.446   3.434  22.862  0.00  0.00    +0.055 C 
ATOM     14  C   UNL     1      -3.348   3.081  25.058  0.00  0.00    +0.131 C 
ATOM     15  C   UNL     1      -4.263   0.754  24.623  0.00  0.00    +0.217 C 
ENDROOT
BRANCH  12   7
ATOM      3  O   UNL     1      -1.604   3.267  27.007  0.00  0.00    -0.253 OA
ATOM      7  N   UNL     1      -0.985   3.712  24.824  0.00  0.00    -0.295 N 
ATOM      9  N   UNL     1       0.655   3.255  26.369  0.00  0.00    -0.269 N 
ATOM     24  C   UNL     1      -0.720   3.394  26.162  0.00  0.00    +0.304 C 
ATOM     36  H   UNL     1      -0.196   3.864  24.202  0.00  0.00    +0.151 HD
ATOM     38  H   UNL     1       1.254   3.394  25.559  0.00  0.00    +0.156 HD
BRANCH   9  29
ATOM     29  C   UNL     1       1.324   2.939  27.574  0.00  0.00    +0.038 A 
ATOM     30  C   UNL     1       0.591   2.591  28.709  0.00  0.00    +0.069 A 
ATOM     31  C   UNL     1       2.718   2.977  27.628  0.00  0.00    +0.023 A 
ATOM     32  C   UNL     1       1.252   2.280  29.897  0.00  0.00    +0.122 A 
ATOM     33  C   UNL     1       3.378   2.667  28.817  0.00  0.00    +0.005 A 
ATOM     34  C   UNL     1       2.645   2.318  29.952  0.00  0.00    +0.046 A 
BRANCH  32   5
ATOM      5  O   UNL     1       0.537   1.939  31.005  0.00  0.00    -0.495 OA
ATOM     35  C   UNL     1       0.191   2.992  31.903  0.00  0.00    +0.277 C 
ENDBRANCH  32   5
ENDBRANCH   9  29
ENDBRANCH  12   7
BRANCH  11  16
ATOM      2  O   UNL     1      -1.145   0.633  21.935  0.00  0.00    -0.274 OA
ATOM      8  N   UNL     1      -1.143   0.824  24.254  0.00  0.00    -0.302 N 
ATOM     16  C   UNL     1      -1.616   1.076  22.978  0.00  0.00    +0.234 C 
ATOM     37  H   UNL     1      -1.633   1.222  25.050  0.00  0.00    +0.150 HD
BRANCH   8  19
ATOM     19  C   UNL     1       0.001  -0.019  24.520  0.00  0.00    +0.159 C 
BRANCH  19  26
ATOM      4  O   UNL     1       1.586   1.669  23.778  0.00  0.00    -0.274 OA
ATOM     10  N   UNL     1       1.705  -0.431  22.855  0.00  0.00    -0.328 N 
ATOM     26  C   UNL     1       1.156   0.521  23.688  0.00  0.00    +0.231 C 
ATOM     39  H   UNL     1       2.493  -0.206  22.257  0.00  0.00    +0.145 HD
ATOM     40  H   UNL     1       1.342  -1.377  22.792  0.00  0.00    +0.145 HD
ENDBRANCH  19  26
BRANCH  19  23
ATOM     23  C   UNL     1      -0.265  -1.489  24.168  0.00  0.00    +0.034 C 
BRANCH  23  25
ATOM     25  C   UNL     1      -1.273  -2.202  25.093  0.00  0.00    -0.015 C 
ATOM     27  C   UNL     1      -2.422  -2.775  24.260  0.00  0.00    +0.007 C 
ATOM     28  C   UNL     1      -1.833  -1.273  26.171  0.00  0.00    +0.007 C 
ENDBRANCH  23  25
ENDBRANCH  19  23
ENDBRANCH   8  19
ENDBRANCH  11  16
BRANCH  15  17
ATOM     17  C   UNL     1      -5.026   0.878  25.918  0.00  0.00    +0.102 C 
BRANCH  17  18
ATOM     18  C   UNL     1      -6.182   1.891  25.836  0.00  0.00    -0.029 C 
ATOM     20  C   UNL     1      -5.659   3.336  25.890  0.00  0.00    +0.011 C 
ATOM     21  C   UNL     1      -7.005   1.693  24.551  0.00  0.00    +0.011 C 
ATOM     22  C   UNL     1      -7.102   1.657  27.049  0.00  0.00    +0.011 C 
ENDBRANCH  17  18
ENDBRANCH  15  17
TORSDOF 10
ENDMDL
MODEL 7
REMARK VINA RESULT:       7.7      2.347      5.412
REMARK  Name = 7049502
REMARK  16 active torsions:
REMARK  status: ('A' for Active; 'I' for Inactive)
REMARK    1  A    between atoms: O_5  and  C_32
REMARK    2  A    between atoms: O_5  and  C_35
REMARK    3  A    between atoms: N_7  and  C_12
REMARK    4  A    between atoms: N_8  and  C_19
REMARK    5  A    between atoms: N_9  and  C_29
REMARK    6  A    between atoms: C_11  and  C_16
REMARK    7  A    between atoms: C_15  and  C_17
REMARK    8  A    between atoms: C_17  and  C_18
REMARK    9  A    between atoms: C_18  and  C_20
REMARK   10  A    between atoms: C_18  and  C_21
REMARK   11  A    between atoms: C_18  and  C_22
REMARK   12  A    between atoms: C_19  and  C_23
REMARK   13  A    between atoms: C_19  and  C_26
REMARK   14  A    between atoms: C_23  and  C_25
REMARK   15  A    between atoms: C_25  and  C_27
REMARK   16  A    between atoms: C_25  and  C_28
REMARK                            x       y       z     vdW  Elec       q    Type
REMARK                         _______ _______ _______ _____ _____    ______ ____
ROOT
ATOM      1  O   UNL     1      -4.353  -0.344  23.636  0.00  0.00    -0.276 OA
ATOM      6  N   UNL     1      -3.560   1.762  24.181  0.00  0.00    -0.288 N 
ATOM     11  C   UNL     1      -2.956   2.046  22.887  0.00  0.00    +0.164 C 
ATOM     12  C   UNL     1      -2.484   3.868  24.403  0.00  0.00    +0.094 C 
ATOM     13  C   UNL     1      -2.641   3.539  22.916  0.00  0.00    +0.055 C 
ATOM     14  C   UNL     1      -3.457   2.909  25.082  0.00  0.00    +0.131 C 
ATOM     15  C   UNL     1      -4.287   0.605  24.419  0.00  0.00    +0.217 C 
ENDROOT
BRANCH  12   7
ATOM      3  O   UNL     1      -1.642   3.265  27.074  0.00  0.00    -0.253 OA
ATOM      7  N   UNL     1      -1.130   3.668  24.855  0.00  0.00    -0.295 N 
ATOM      9  N   UNL     1       0.582   3.234  26.326  0.00  0.00    -0.269 N 
ATOM     24  C   UNL     1      -0.801   3.374  26.184  0.00  0.00    +0.304 C 
ATOM     36  H   UNL     1      -0.373   3.806  24.192  0.00  0.00    +0.151 HD
ATOM     38  H   UNL     1       1.141   3.356  25.484  0.00  0.00    +0.156 HD
BRANCH   9  29
ATOM     29  C   UNL     1       1.309   2.939  27.502  0.00  0.00    +0.038 A 
ATOM     30  C   UNL     1       0.635   2.562  28.663  0.00  0.00    +0.069 A 
ATOM     31  C   UNL     1       2.702   3.026  27.501  0.00  0.00    +0.023 A 
ATOM     32  C   UNL     1       1.353   2.271  29.823  0.00  0.00    +0.122 A 
ATOM     33  C   UNL     1       3.420   2.736  28.661  0.00  0.00    +0.005 A 
ATOM     34  C   UNL     1       2.745   2.358  29.823  0.00  0.00    +0.046 A 
BRANCH  32   5
ATOM      5  O   UNL     1       0.695   1.902  30.957  0.00  0.00    -0.495 OA
ATOM     35  C   UNL     1       0.206   2.949  31.793  0.00  0.00    +0.277 C 
ENDBRANCH  32   5
ENDBRANCH   9  29
ENDBRANCH  12   7
BRANCH  11  16
ATOM      2  O   UNL     1      -1.056   1.209  21.709  0.00  0.00    -0.274 OA
ATOM      8  N   UNL     1      -1.430   0.498  23.893  0.00  0.00    -0.302 N 
ATOM     16  C   UNL     1      -1.710   1.223  22.747  0.00  0.00    +0.234 C 
ATOM     37  H   UNL     1      -2.062   0.565  24.686  0.00  0.00    +0.150 HD
BRANCH   8  19
ATOM     19  C   UNL     1      -0.297  -0.391  24.008  0.00  0.00    +0.159 C 
BRANCH  19  26
ATOM      4  O   UNL     1      -0.023  -2.268  25.529  0.00  0.00    -0.274 OA
ATOM     10  N   UNL     1      -1.056  -0.369  26.304  0.00  0.00    -0.328 N 
ATOM     26  C   UNL     1      -0.444  -1.131  25.331  0.00  0.00    +0.231 C 
ATOM     39  H   UNL     1      -1.202  -0.738  27.238  0.00  0.00    +0.145 HD
ATOM     40  H   UNL     1      -1.397   0.571  26.129  0.00  0.00    +0.145 HD
ENDBRANCH  19  26
BRANCH  19  23
ATOM     23  C   UNL     1       1.039   0.361  23.966  0.00  0.00    +0.034 C 
BRANCH  23  25
ATOM     25  C   UNL     1       2.068  -0.205  22.967  0.00  0.00    -0.015 C 
ATOM     27  C   UNL     1       3.234   0.776  22.814  0.00  0.00    +0.007 C 
ATOM     28  C   UNL     1       1.453  -0.490  21.596  0.00  0.00    +0.007 C 
ENDBRANCH  23  25
ENDBRANCH  19  23
ENDBRANCH   8  19
ENDBRANCH  11  16
BRANCH  15  17
ATOM     17  C   UNL     1      -5.013   0.552  25.741  0.00  0.00    +0.102 C 
BRANCH  17  18
ATOM     18  C   UNL     1      -6.073   1.659  25.884  0.00  0.00    -0.029 C 
ATOM     20  C   UNL     1      -5.417   3.029  26.124  0.00  0.00    +0.011 C 
ATOM     21  C   UNL     1      -6.971   1.734  24.638  0.00  0.00    +0.011 C 
ATOM     22  C   UNL     1      -6.951   1.315  27.102  0.00  0.00    +0.011 C 
ENDBRANCH  17  18
ENDBRANCH  15  17
TORSDOF 10
ENDMDL
MODEL 8
REMARK VINA RESULT:       8.0      1.875      6.033
REMARK  Name = 7049502
REMARK  16 active torsions:
REMARK  status: ('A' for Active; 'I' for Inactive)
REMARK    1  A    between atoms: O_5  and  C_32
REMARK    2  A    between atoms: O_5  and  C_35
REMARK    3  A    between atoms: N_7  and  C_12
REMARK    4  A    between atoms: N_8  and  C_19
REMARK    5  A    between atoms: N_9  and  C_29
REMARK    6  A    between atoms: C_11  and  C_16
REMARK    7  A    between atoms: C_15  and  C_17
REMARK    8  A    between atoms: C_17  and  C_18
REMARK    9  A    between atoms: C_18  and  C_20
REMARK   10  A    between atoms: C_18  and  C_21
REMARK   11  A    between atoms: C_18  and  C_22
REMARK   12  A    between atoms: C_19  and  C_23
REMARK   13  A    between atoms: C_19  and  C_26
REMARK   14  A    between atoms: C_23  and  C_25
REMARK   15  A    between atoms: C_25  and  C_27
REMARK   16  A    between atoms: C_25  and  C_28
REMARK                            x       y       z     vdW  Elec       q    Type
REMARK                         _______ _______ _______ _____ _____    ______ ____
ROOT
ATOM      1  O   UNL     1      -5.544   2.735  26.524  0.00  0.00    -0.276 OA
ATOM      6  N   UNL     1      -4.388   2.194  24.593  0.00  0.00    -0.288 N 
ATOM     11  C   UNL     1      -4.932   0.851  24.451  0.00  0.00    +0.164 C 
ATOM     12  C   UNL     1      -3.291   1.231  22.719  0.00  0.00    +0.094 C 
ATOM     13  C   UNL     1      -4.543   0.412  23.041  0.00  0.00    +0.055 C 
ATOM     14  C   UNL     1      -3.521   2.540  23.467  0.00  0.00    +0.131 C 
ATOM     15  C   UNL     1      -4.810   3.061  25.589  0.00  0.00    +0.217 C 
ENDROOT
BRANCH  12   7
ATOM      3  O   UNL     1      -0.594   2.014  22.149  0.00  0.00    -0.253 OA
ATOM      7  N   UNL     1      -2.089   0.567  23.158  0.00  0.00    -0.295 N 
ATOM      9  N   UNL     1       0.164   0.177  23.397  0.00  0.00    -0.269 N 
ATOM     24  C   UNL     1      -0.802   1.016  22.835  0.00  0.00    +0.304 C 
ATOM     36  H   UNL     1      -2.178  -0.303  23.676  0.00  0.00    +0.151 HD
ATOM     38  H   UNL     1      -0.179  -0.612  23.942  0.00  0.00    +0.156 HD
BRANCH   9  29
ATOM     29  C   UNL     1       1.570   0.288  23.304  0.00  0.00    +0.038 A 
ATOM     30  C   UNL     1       2.378  -0.817  23.576  0.00  0.00    +0.069 A 
ATOM     31  C   UNL     1       2.151   1.504  22.941  0.00  0.00    +0.023 A 
ATOM     32  C   UNL     1       3.765  -0.706  23.484  0.00  0.00    +0.122 A 
ATOM     33  C   UNL     1       3.538   1.615  22.849  0.00  0.00    +0.005 A 
ATOM     34  C   UNL     1       4.345   0.509  23.121  0.00  0.00    +0.046 A 
BRANCH  32   5
ATOM      5  O   UNL     1       4.553  -1.785  23.748  0.00  0.00    -0.495 OA
ATOM     35  C   UNL     1       5.881  -1.522  24.198  0.00  0.00    +0.277 C 
ENDBRANCH  32   5
ENDBRANCH   9  29
ENDBRANCH  12   7
BRANCH  11  16
ATOM      2  O   UNL     1      -4.840  -0.212  26.586  0.00  0.00    -0.274 OA
ATOM      8  N   UNL     1      -3.107  -0.568  25.075  0.00  0.00    -0.302 N 
ATOM     16  C   UNL     1      -4.313  -0.031  25.493  0.00  0.00    +0.234 C 
ATOM     37  H   UNL     1      -2.751  -0.325  24.155  0.00  0.00    +0.150 HD
BRANCH   8  19
ATOM     19  C   UNL     1      -2.299  -1.434  25.902  0.00  0.00    +0.159 C 
BRANCH  19  26
ATOM      4  O   UNL     1      -0.694   0.378  26.128  0.00  0.00    -0.274 OA
ATOM     10  N   UNL     1       0.097  -1.761  25.860  0.00  0.00    -0.328 N 
ATOM     26  C   UNL     1      -0.907  -0.821  25.962  0.00  0.00    +0.231 C 
ATOM     39  H   UNL     1       1.073  -1.487  25.901  0.00  0.00    +0.145 HD
ATOM     40  H   UNL     1      -0.092  -2.750  25.725  0.00  0.00    +0.145 HD
ENDBRANCH  19  26
BRANCH  19  23
ATOM     23  C   UNL     1      -2.225  -2.864  25.350  0.00  0.00    +0.034 C 
BRANCH  23  25
ATOM     25  C   UNL     1      -2.713  -3.020  23.895  0.00  0.00    -0.015 C 
ATOM     27  C   UNL     1      -4.217  -3.305  23.882  0.00  0.00    +0.007 C 
ATOM     28  C   UNL     1      -1.973  -4.131  23.148  0.00  0.00    +0.007 C 
ENDBRANCH  23  25
ENDBRANCH  19  23
ENDBRANCH   8  19
ENDBRANCH  11  16
BRANCH  15  17
ATOM     17  C   UNL     1      -4.299   4.476  25.481  0.00  0.00    +0.102 C 
BRANCH  17  18
ATOM     18  C   UNL     1      -2.877   4.642  26.044  0.00  0.00    -0.029 C 
ATOM     20  C   UNL     1      -2.908   4.934  27.554  0.00  0.00    +0.011 C 
ATOM     21  C   UNL     1      -2.025   3.388  25.784  0.00  0.00    +0.011 C 
ATOM     22  C   UNL     1      -2.222   5.837  25.327  0.00  0.00    +0.011 C 
ENDBRANCH  17  18
ENDBRANCH  15  17
TORSDOF 10
ENDMDL
MODEL 9
REMARK VINA RESULT:       8.7      1.841      6.623
REMARK  Name = 7049502
REMARK  16 active torsions:
REMARK  status: ('A' for Active; 'I' for Inactive)
REMARK    1  A    between atoms: O_5  and  C_32
REMARK    2  A    between atoms: O_5  and  C_35
REMARK    3  A    between atoms: N_7  and  C_12
REMARK    4  A    between atoms: N_8  and  C_19
REMARK    5  A    between atoms: N_9  and  C_29
REMARK    6  A    between atoms: C_11  and  C_16
REMARK    7  A    between atoms: C_15  and  C_17
REMARK    8  A    between atoms: C_17  and  C_18
REMARK    9  A    between atoms: C_18  and  C_20
REMARK   10  A    between atoms: C_18  and  C_21
REMARK   11  A    between atoms: C_18  and  C_22
REMARK   12  A    between atoms: C_19  and  C_23
REMARK   13  A    between atoms: C_19  and  C_26
REMARK   14  A    between atoms: C_23  and  C_25
REMARK   15  A    between atoms: C_25  and  C_27
REMARK   16  A    between atoms: C_25  and  C_28
REMARK                            x       y       z     vdW  Elec       q    Type
REMARK                         _______ _______ _______ _____ _____    ______ ____
ROOT
ATOM      1  O   UNL     1       1.776  -0.988  22.099  0.00  0.00    -0.276 OA
ATOM      6  N   UNL     1       1.420   0.537  23.804  0.00  0.00    -0.288 N 
ATOM     11  C   UNL     1       0.270  -0.140  24.386  0.00  0.00    +0.164 C 
ATOM     12  C   UNL     1       0.658   1.931  25.570  0.00  0.00    +0.094 C 
ATOM     13  C   UNL     1       0.058   0.532  25.741  0.00  0.00    +0.055 C 
ATOM     14  C   UNL     1       1.807   1.706  24.592  0.00  0.00    +0.131 C 
ATOM     15  C   UNL     1       2.132   0.001  22.741  0.00  0.00    +0.217 C 
ENDROOT
BRANCH  12   7
ATOM      3  O   UNL     1      -2.110   2.106  26.288  0.00  0.00    -0.253 OA
ATOM      7  N   UNL     1      -0.308   2.869  25.056  0.00  0.00    -0.295 N 
ATOM      9  N   UNL     1      -2.344   3.904  24.797  0.00  0.00    -0.269 N 
ATOM     24  C   UNL     1      -1.648   2.890  25.462  0.00  0.00    +0.304 C 
ATOM     36  H   UNL     1      -0.018   3.507  24.321  0.00  0.00    +0.151 HD
ATOM     38  H   UNL     1      -1.810   4.467  24.139  0.00  0.00    +0.156 HD
BRANCH   9  29
ATOM     29  C   UNL     1      -3.709   4.249  24.927  0.00  0.00    +0.038 A 
ATOM     30  C   UNL     1      -4.538   3.513  25.773  0.00  0.00    +0.069 A 
ATOM     31  C   UNL     1      -4.227   5.327  24.208  0.00  0.00    +0.023 A 
ATOM     32  C   UNL     1      -5.884   3.853  25.901  0.00  0.00    +0.122 A 
ATOM     33  C   UNL     1      -5.573   5.668  24.335  0.00  0.00    +0.005 A 
ATOM     34  C   UNL     1      -6.402   4.931  25.182  0.00  0.00    +0.046 A 
BRANCH  32   5
ATOM      5  O   UNL     1      -6.693   3.135  26.728  0.00  0.00    -0.495 OA
ATOM     35  C   UNL     1      -6.614   1.714  26.639  0.00  0.00    +0.277 C 
ENDBRANCH  32   5
ENDBRANCH   9  29
ENDBRANCH  12   7
BRANCH  11  16
ATOM      2  O   UNL     1      -0.841   0.731  22.462  0.00  0.00    -0.274 OA
ATOM      8  N   UNL     1      -2.044  -0.584  23.958  0.00  0.00    -0.302 N 
ATOM     16  C   UNL     1      -0.911   0.056  23.484  0.00  0.00    +0.234 C 
ATOM     37  H   UNL     1      -1.992  -1.093  24.836  0.00  0.00    +0.150 HD
BRANCH   8  19
ATOM     19  C   UNL     1      -3.321  -0.532  23.285  0.00  0.00    +0.159 C 
BRANCH  19  26
ATOM      4  O   UNL     1      -3.645   1.838  22.849  0.00  0.00    -0.274 OA
ATOM     10  N   UNL     1      -4.790   0.876  24.591  0.00  0.00    -0.328 N 
ATOM     26  C   UNL     1      -3.902   0.852  23.536  0.00  0.00    +0.231 C 
ATOM     39  H   UNL     1      -5.261   1.735  24.855  0.00  0.00    +0.145 HD
ATOM     40  H   UNL     1      -4.997   0.054  25.150  0.00  0.00    +0.145 HD
ENDBRANCH  19  26
BRANCH  19  23
ATOM     23  C   UNL     1      -4.288  -1.613  23.787  0.00  0.00    +0.034 C 
BRANCH  23  25
ATOM     25  C   UNL     1      -3.694  -2.573  24.837  0.00  0.00    -0.015 C 
ATOM     27  C   UNL     1      -3.396  -1.806  26.128  0.00  0.00    +0.007 C 
ATOM     28  C   UNL     1      -2.421  -3.262  24.343  0.00  0.00    +0.007 C 
ENDBRANCH  23  25
ENDBRANCH  19  23
ENDBRANCH   8  19
ENDBRANCH  11  16
BRANCH  15  17
ATOM     17  C   UNL     1       3.409   0.721  22.385  0.00  0.00    +0.102 C 
BRANCH  17  18
ATOM     18  C   UNL     1       4.650   0.101  23.051  0.00  0.00    -0.029 C 
ATOM     20  C   UNL     1       5.290   1.078  24.051  0.00  0.00    +0.011 C 
ATOM     21  C   UNL     1       4.297  -1.211  23.772  0.00  0.00    +0.011 C 
ATOM     22  C   UNL     1       5.674  -0.208  21.943  0.00  0.00    +0.011 C 
ENDBRANCH  17  18
ENDBRANCH  15  17
TORSDOF 10
ENDMDL
MODEL 10
REMARK VINA RESULT:       9.3      1.870      6.325
REMARK  Name = 7049502
REMARK  16 active torsions:
REMARK  status: ('A' for Active; 'I' for Inactive)
REMARK    1  A    between atoms: O_5  and  C_32
REMARK    2  A    between atoms: O_5  and  C_35
REMARK    3  A    between atoms: N_7  and  C_12
REMARK    4  A    between atoms: N_8  and  C_19
REMARK    5  A    between atoms: N_9  and  C_29
REMARK    6  A    between atoms: C_11  and  C_16
REMARK    7  A    between atoms: C_15  and  C_17
REMARK    8  A    between atoms: C_17  and  C_18
REMARK    9  A    between atoms: C_18  and  C_20
REMARK   10  A    between atoms: C_18  and  C_21
REMARK   11  A    between atoms: C_18  and  C_22
REMARK   12  A    between atoms: C_19  and  C_23
REMARK   13  A    between atoms: C_19  and  C_26
REMARK   14  A    between atoms: C_23  and  C_25
REMARK   15  A    between atoms: C_25  and  C_27
REMARK   16  A    between atoms: C_25  and  C_28
REMARK                            x       y       z     vdW  Elec       q    Type
REMARK                         _______ _______ _______ _____ _____    ______ ____
ROOT
ATOM      1  O   UNL     1       2.899   1.161  22.702  0.00  0.00    -0.276 OA
ATOM      6  N   UNL     1       1.327  -0.413  23.343  0.00  0.00    -0.288 N 
ATOM     11  C   UNL     1       0.287   0.014  22.418  0.00  0.00    +0.164 C 
ATOM     12  C   UNL     1      -0.572  -1.761  23.815  0.00  0.00    +0.094 C 
ATOM     13  C   UNL     1      -0.751  -1.105  22.443  0.00  0.00    +0.055 C 
ATOM     14  C   UNL     1       0.920  -1.602  24.091  0.00  0.00    +0.131 C 
ATOM     15  C   UNL     1       2.591   0.157  23.347  0.00  0.00    +0.217 C 
ENDROOT
BRANCH  12   7
ATOM      3  O   UNL     1      -2.940  -0.207  23.387  0.00  0.00    -0.253 OA
ATOM      7  N   UNL     1      -1.375  -1.118  24.825  0.00  0.00    -0.295 N 
ATOM      9  N   UNL     1      -3.094   0.128  25.705  0.00  0.00    -0.269 N 
ATOM     24  C   UNL     1      -2.524  -0.374  24.532  0.00  0.00    +0.304 C 
ATOM     36  H   UNL     1      -1.060  -1.155  25.790  0.00  0.00    +0.151 HD
ATOM     38  H   UNL     1      -2.622  -0.104  26.576  0.00  0.00    +0.156 HD
BRANCH   9  29
ATOM     29  C   UNL     1      -4.256   0.923  25.835  0.00  0.00    +0.038 A 
ATOM     30  C   UNL     1      -4.295   2.200  25.274  0.00  0.00    +0.069 A 
ATOM     31  C   UNL     1      -5.365   0.430  26.525  0.00  0.00    +0.023 A 
ATOM     32  C   UNL     1      -5.441   2.983  25.403  0.00  0.00    +0.122 A 
ATOM     33  C   UNL     1      -6.511   1.214  26.653  0.00  0.00    +0.005 A 
ATOM     34  C   UNL     1      -6.549   2.491  26.092  0.00  0.00    +0.046 A 
BRANCH  32   5
ATOM      5  O   UNL     1      -5.479   4.230  24.855  0.00  0.00    -0.495 OA
ATOM     35  C   UNL     1      -6.204   5.230  25.569  0.00  0.00    +0.277 C 
ENDBRANCH  32   5
ENDBRANCH   9  29
ENDBRANCH  12   7
BRANCH  11  16
ATOM      2  O   UNL     1      -1.074   1.966  22.229  0.00  0.00    -0.274 OA
ATOM      8  N   UNL     1       0.187   1.655  24.159  0.00  0.00    -0.302 N 
ATOM     16  C   UNL     1      -0.289   1.310  22.906  0.00  0.00    +0.234 C 
ATOM     37  H   UNL     1       0.861   1.046  24.616  0.00  0.00    +0.150 HD
BRANCH   8  19
ATOM     19  C   UNL     1      -0.195   2.869  24.843  0.00  0.00    +0.159 C 
BRANCH  19  26
ATOM      4  O   UNL     1      -1.216   2.256  26.963  0.00  0.00    -0.274 OA
ATOM     10  N   UNL     1       1.054   2.597  26.896  0.00  0.00    -0.328 N 
ATOM     26  C   UNL     1      -0.205   2.556  26.333  0.00  0.00    +0.231 C 
ATOM     39  H   UNL     1       1.190   2.393  27.880  0.00  0.00    +0.145 HD
ATOM     40  H   UNL     1       1.882   2.844  26.364  0.00  0.00    +0.145 HD
ENDBRANCH  19  26
BRANCH  19  23
ATOM     23  C   UNL     1      -1.573   3.378  24.398  0.00  0.00    +0.034 C 
BRANCH  23  25
ATOM     25  C   UNL     1      -1.834   4.870  24.685  0.00  0.00    -0.015 C 
ATOM     27  C   UNL     1      -0.509   5.638  24.670  0.00  0.00    +0.007 C 
ATOM     28  C   UNL     1      -2.541   5.091  26.023  0.00  0.00    +0.007 C 
ENDBRANCH  23  25
ENDBRANCH  19  23
ENDBRANCH   8  19
ENDBRANCH  11  16
BRANCH  15  17
ATOM     17  C   UNL     1       3.610  -0.527  24.223  0.00  0.00    +0.102 C 
BRANCH  17  18
ATOM     18  C   UNL     1       5.050  -0.367  23.701  0.00  0.00    -0.029 C 
ATOM     20  C   UNL     1       5.061   0.019  22.213  0.00  0.00    +0.011 C 
ATOM     21  C   UNL     1       5.820   0.691  24.509  0.00  0.00    +0.011 C 
ATOM     22  C   UNL     1       5.763  -1.723  23.863  0.00  0.00    +0.011 C 
ENDBRANCH  17  18
ENDBRANCH  15  17
TORSDOF 10
ENDMDL
