MODEL 1
REMARK VINA RESULT:      -4.3      0.000      0.000
REMARK  Name = 75368649
REMARK  2 active torsions:
REMARK  status: ('A' for Active; 'I' for Inactive)
REMARK    1  A    between atoms: N_2  and  C_6
REMARK    2  A    between atoms: N_4  and  C_17
REMARK                            x       y       z     vdW  Elec       q    Type
REMARK                         _______ _______ _______ _____ _____    ______ ____
ROOT
ATOM      1  O   UNL     1      -7.826  -9.563  11.252  0.00  0.00    -0.252 OA
ATOM      2  N   UNL     1      -6.078 -10.226  12.690  0.00  0.00    -0.281 N 
ATOM      3  N   UNL     1      -8.115  -9.866  13.564  0.00  0.00    -0.278 N 
ATOM      4  N   UNL     1      -8.972  -9.350  16.192  0.00  0.00    -0.302 NA
ATOM      5  C   UNL     1      -7.329 -10.371  14.671  0.00  0.00    +0.109 C 
ATOM      7  C   UNL     1      -5.903 -10.389  14.123  0.00  0.00    +0.133 C 
ATOM      8  C   UNL     1      -7.530  -9.496  15.907  0.00  0.00    +0.108 C 
ATOM     11  C   UNL     1      -7.397  -9.852  12.361  0.00  0.00    +0.305 C 
ATOM     12  C   UNL     1      -9.512  -9.547  13.774  0.00  0.00    +0.125 C 
ATOM     15  C   UNL     1      -9.672  -8.723  15.053  0.00  0.00    +0.103 C 
ATOM     17  C   UNL     1      -9.174  -8.565  17.410  0.00  0.00    +0.105 C 
ENDROOT
BRANCH   2   6
ATOM      6  C   UNL     1      -4.967 -10.296  11.771  0.00  0.00    +0.078 C 
ATOM      9  C   UNL     1      -4.833  -8.994  10.980  0.00  0.00    +0.022 C 
ATOM     10  C   UNL     1      -3.673 -10.629  12.519  0.00  0.00    +0.022 C 
ATOM     13  C   UNL     1      -3.630  -9.026  10.041  0.00  0.00    +0.002 C 
ATOM     14  C   UNL     1      -2.471 -10.660  11.578  0.00  0.00    +0.002 C 
ATOM     16  C   UNL     1      -2.342  -9.360  10.788  0.00  0.00    +0.000 C 
ENDBRANCH   2   6
TORSDOF 1
ENDMDL
MODEL 2
REMARK VINA RESULT:      -3.9      2.128      6.267
REMARK  Name = 75368649
REMARK  2 active torsions:
REMARK  status: ('A' for Active; 'I' for Inactive)
REMARK    1  A    between atoms: N_2  and  C_6
REMARK    2  A    between atoms: N_4  and  C_17
REMARK                            x       y       z     vdW  Elec       q    Type
REMARK                         _______ _______ _______ _____ _____    ______ ____
ROOT
ATOM      1  O   UNL     1      -3.794 -10.781  15.004  0.00  0.00    -0.252 OA
ATOM      2  N   UNL     1      -6.010 -10.755  14.195  0.00  0.00    -0.281 N 
ATOM      3  N   UNL     1      -4.321 -10.685  12.717  0.00  0.00    -0.278 N 
ATOM      4  N   UNL     1      -4.204  -9.868  10.028  0.00  0.00    -0.302 NA
ATOM      5  C   UNL     1      -5.514 -10.781  11.901  0.00  0.00    +0.109 C 
ATOM      7  C   UNL     1      -6.653 -10.594  12.902  0.00  0.00    +0.133 C 
ATOM      8  C   UNL     1      -5.473  -9.748  10.776  0.00  0.00    +0.108 C 
ATOM     11  C   UNL     1      -4.604 -10.749  14.088  0.00  0.00    +0.305 C 
ATOM     12  C   UNL     1      -3.024 -10.644  12.073  0.00  0.00    +0.125 C 
ATOM     15  C   UNL     1      -3.047  -9.642  10.916  0.00  0.00    +0.103 C 
ATOM     17  C   UNL     1      -4.181  -8.924   8.911  0.00  0.00    +0.105 C 
ENDROOT
BRANCH   2   6
ATOM      6  C   UNL     1      -6.761 -10.758  15.427  0.00  0.00    +0.078 C 
ATOM      9  C   UNL     1      -6.270  -9.654  16.366  0.00  0.00    +0.022 C 
ATOM     10  C   UNL     1      -8.259 -10.621  15.142  0.00  0.00    +0.022 C 
ATOM     13  C   UNL     1      -7.088  -9.605  17.653  0.00  0.00    +0.002 C 
ATOM     14  C   UNL     1      -9.075 -10.570  16.431  0.00  0.00    +0.002 C 
ATOM     16  C   UNL     1      -8.581  -9.470  17.367  0.00  0.00    +0.000 C 
ENDBRANCH   2   6
TORSDOF 1
ENDMDL
MODEL 3
REMARK VINA RESULT:      -3.6     14.856     17.157
REMARK  Name = 75368649
REMARK  2 active torsions:
REMARK  status: ('A' for Active; 'I' for Inactive)
REMARK    1  A    between atoms: N_2  and  C_6
REMARK    2  A    between atoms: N_4  and  C_17
REMARK                            x       y       z     vdW  Elec       q    Type
REMARK                         _______ _______ _______ _____ _____    ______ ____
ROOT
ATOM      1  O   UNL     1      -5.327   2.005  25.259  0.00  0.00    -0.252 OA
ATOM      2  N   UNL     1      -3.316   0.777  25.357  0.00  0.00    -0.281 N 
ATOM      3  N   UNL     1      -3.221   3.015  25.516  0.00  0.00    -0.278 N 
ATOM      4  N   UNL     1      -1.122   4.844  25.122  0.00  0.00    -0.302 NA
ATOM      5  C   UNL     1      -1.858   2.577  25.736  0.00  0.00    +0.109 C 
ATOM      7  C   UNL     1      -1.897   1.088  25.397  0.00  0.00    +0.133 C 
ATOM      8  C   UNL     1      -0.892   3.403  24.888  0.00  0.00    +0.108 C 
ATOM     11  C   UNL     1      -4.110   1.941  25.368  0.00  0.00    +0.305 C 
ATOM     12  C   UNL     1      -3.530   4.428  25.575  0.00  0.00    +0.125 C 
ATOM     15  C   UNL     1      -2.503   5.221  24.763  0.00  0.00    +0.103 C 
ATOM     17  C   UNL     1      -0.161   5.642  24.362  0.00  0.00    +0.105 C 
ENDROOT
BRANCH   2   6
ATOM      6  C   UNL     1      -3.797  -0.571  25.170  0.00  0.00    +0.078 C 
ATOM      9  C   UNL     1      -4.061  -0.854  23.690  0.00  0.00    +0.022 C 
ATOM     10  C   UNL     1      -2.810  -1.580  25.762  0.00  0.00    +0.022 C 
ATOM     13  C   UNL     1      -4.519  -2.292  23.464  0.00  0.00    +0.002 C 
ATOM     14  C   UNL     1      -3.269  -3.018  25.534  0.00  0.00    +0.002 C 
ATOM     16  C   UNL     1      -3.535  -3.296  24.057  0.00  0.00    +0.000 C 
ENDBRANCH   2   6
TORSDOF 1
ENDMDL
MODEL 4
REMARK VINA RESULT:      -3.5     14.645     16.852
REMARK  Name = 75368649
REMARK  2 active torsions:
REMARK  status: ('A' for Active; 'I' for Inactive)
REMARK    1  A    between atoms: N_2  and  C_6
REMARK    2  A    between atoms: N_4  and  C_17
REMARK                            x       y       z     vdW  Elec       q    Type
REMARK                         _______ _______ _______ _____ _____    ______ ____
ROOT
ATOM      1  O   UNL     1       0.031   0.849  24.504  0.00  0.00    -0.252 OA
ATOM      2  N   UNL     1      -2.191   1.633  24.593  0.00  0.00    -0.281 N 
ATOM      3  N   UNL     1      -1.811  -0.563  24.864  0.00  0.00    -0.278 N 
ATOM      4  N   UNL     1      -3.484  -2.810  24.613  0.00  0.00    -0.302 NA
ATOM      5  C   UNL     1      -3.232  -0.410  25.097  0.00  0.00    +0.109 C 
ATOM      7  C   UNL     1      -3.512   1.034  24.685  0.00  0.00    +0.133 C 
ATOM      8  C   UNL     1      -4.015  -1.463  24.315  0.00  0.00    +0.108 C 
ATOM     11  C   UNL     1      -1.170   0.663  24.641  0.00  0.00    +0.305 C 
ATOM     12  C   UNL     1      -1.211  -1.876  24.984  0.00  0.00    +0.125 C 
ATOM     15  C   UNL     1      -2.059  -2.908  24.238  0.00  0.00    +0.103 C 
ATOM     17  C   UNL     1      -4.266  -3.831  23.918  0.00  0.00    +0.105 C 
ENDROOT
BRANCH   2   6
ATOM      6  C   UNL     1      -2.007   3.040  24.329  0.00  0.00    +0.078 C 
ATOM      9  C   UNL     1      -3.279   3.825  24.656  0.00  0.00    +0.022 C 
ATOM     10  C   UNL     1      -0.805   3.579  25.109  0.00  0.00    +0.022 C 
ATOM     13  C   UNL     1      -3.088   5.323  24.436  0.00  0.00    +0.002 C 
ATOM     14  C   UNL     1      -0.616   5.077  24.888  0.00  0.00    +0.002 C 
ATOM     16  C   UNL     1      -1.888   5.858  25.212  0.00  0.00    +0.000 C 
ENDBRANCH   2   6
TORSDOF 1
ENDMDL
MODEL 5
REMARK VINA RESULT:      -3.0     15.470     17.368
REMARK  Name = 75368649
REMARK  2 active torsions:
REMARK  status: ('A' for Active; 'I' for Inactive)
REMARK    1  A    between atoms: N_2  and  C_6
REMARK    2  A    between atoms: N_4  and  C_17
REMARK                            x       y       z     vdW  Elec       q    Type
REMARK                         _______ _______ _______ _____ _____    ______ ____
ROOT
ATOM      1  O   UNL     1      -2.596  -0.799  25.810  0.00  0.00    -0.252 OA
ATOM      2  N   UNL     1      -2.532   1.330  24.797  0.00  0.00    -0.281 N 
ATOM      3  N   UNL     1      -1.007  -0.201  24.188  0.00  0.00    -0.278 N 
ATOM      4  N   UNL     1       1.496   0.033  22.926  0.00  0.00    -0.302 NA
ATOM      5  C   UNL     1      -0.768   0.922  23.304  0.00  0.00    +0.109 C 
ATOM      7  C   UNL     1      -1.649   2.029  23.879  0.00  0.00    +0.133 C 
ATOM      8  C   UNL     1       0.723   1.250  23.253  0.00  0.00    +0.108 C 
ATOM     11  C   UNL     1      -2.109   0.005  25.028  0.00  0.00    +0.305 C 
ATOM     12  C   UNL     1      -0.199  -1.395  24.051  0.00  0.00    +0.125 C 
ATOM     15  C   UNL     1       1.280  -1.016  23.942  0.00  0.00    +0.103 C 
ATOM     17  C   UNL     1       2.920   0.349  22.814  0.00  0.00    +0.105 C 
ENDROOT
BRANCH   2   6
ATOM      6  C   UNL     1      -3.610   2.003  25.483  0.00  0.00    +0.078 C 
ATOM      9  C   UNL     1      -3.558   3.510  25.226  0.00  0.00    +0.022 C 
ATOM     10  C   UNL     1      -4.960   1.414  25.068  0.00  0.00    +0.022 C 
ATOM     13  C   UNL     1      -4.721   4.236  25.897  0.00  0.00    +0.002 C 
ATOM     14  C   UNL     1      -6.122   2.141  25.739  0.00  0.00    +0.002 C 
ATOM     16  C   UNL     1      -6.066   3.645  25.485  0.00  0.00    +0.000 C 
ENDBRANCH   2   6
TORSDOF 1
ENDMDL
MODEL 6
REMARK VINA RESULT:      -2.9     14.644     16.798
REMARK  Name = 75368649
REMARK  2 active torsions:
REMARK  status: ('A' for Active; 'I' for Inactive)
REMARK    1  A    between atoms: N_2  and  C_6
REMARK    2  A    between atoms: N_4  and  C_17
REMARK                            x       y       z     vdW  Elec       q    Type
REMARK                         _______ _______ _______ _____ _____    ______ ____
ROOT
ATOM      1  O   UNL     1       0.126   0.550  23.783  0.00  0.00    -0.252 OA
ATOM      2  N   UNL     1      -2.232   0.540  23.781  0.00  0.00    -0.281 N 
ATOM      3  N   UNL     1      -1.162   2.511  23.896  0.00  0.00    -0.278 N 
ATOM      4  N   UNL     1      -1.994   5.059  24.748  0.00  0.00    -0.302 NA
ATOM      5  C   UNL     1      -2.563   2.864  23.790  0.00  0.00    +0.109 C 
ATOM      7  C   UNL     1      -3.286   1.528  23.946  0.00  0.00    +0.133 C 
ATOM      8  C   UNL     1      -2.926   3.916  24.837  0.00  0.00    +0.108 C 
ATOM     11  C   UNL     1      -0.952   1.128  23.812  0.00  0.00    +0.305 C 
ATOM     12  C   UNL     1      -0.169   3.563  23.967  0.00  0.00    +0.125 C 
ATOM     15  C   UNL     1      -0.603   4.623  24.982  0.00  0.00    +0.103 C 
ATOM     17  C   UNL     1      -2.371   6.100  25.704  0.00  0.00    +0.105 C 
ENDROOT
BRANCH   2   6
ATOM      6  C   UNL     1      -2.510  -0.876  23.750  0.00  0.00    +0.078 C 
ATOM      9  C   UNL     1      -1.745  -1.603  24.858  0.00  0.00    +0.022 C 
ATOM     10  C   UNL     1      -4.016  -1.129  23.856  0.00  0.00    +0.022 C 
ATOM     13  C   UNL     1      -2.067  -3.095  24.878  0.00  0.00    +0.002 C 
ATOM     14  C   UNL     1      -4.336  -2.621  23.877  0.00  0.00    +0.002 C 
ATOM     16  C   UNL     1      -3.569  -3.345  24.980  0.00  0.00    +0.000 C 
ENDBRANCH   2   6
TORSDOF 1
ENDMDL
MODEL 7
REMARK VINA RESULT:      -2.7     15.686     17.626
REMARK  Name = 75368649
REMARK  2 active torsions:
REMARK  status: ('A' for Active; 'I' for Inactive)
REMARK    1  A    between atoms: N_2  and  C_6
REMARK    2  A    between atoms: N_4  and  C_17
REMARK                            x       y       z     vdW  Elec       q    Type
REMARK                         _______ _______ _______ _____ _____    ______ ____
ROOT
ATOM      1  O   UNL     1      -1.363   3.816  24.742  0.00  0.00    -0.252 OA
ATOM      2  N   UNL     1      -2.476   1.762  24.421  0.00  0.00    -0.281 N 
ATOM      3  N   UNL     1      -0.233   1.799  24.324  0.00  0.00    -0.278 N 
ATOM      4  N   UNL     1       1.633   0.020  23.201  0.00  0.00    -0.302 NA
ATOM      5  C   UNL     1      -0.578   0.397  24.214  0.00  0.00    +0.109 C 
ATOM      7  C   UNL     1      -2.096   0.409  24.049  0.00  0.00    +0.133 C 
ATOM      8  C   UNL     1       0.187  -0.250  23.061  0.00  0.00    +0.108 C 
ATOM     11  C   UNL     1      -1.357   2.612  24.527  0.00  0.00    +0.305 C 
ATOM     12  C   UNL     1       1.161   2.189  24.321  0.00  0.00    +0.125 C 
ATOM     15  C   UNL     1       1.901   1.472  23.189  0.00  0.00    +0.103 C 
ATOM     17  C   UNL     1       2.382  -0.646  22.136  0.00  0.00    +0.105 C 
ENDROOT
BRANCH   2   6
ATOM      6  C   UNL     1      -3.858   2.171  24.507  0.00  0.00    +0.078 C 
ATOM      9  C   UNL     1      -4.757   0.981  24.848  0.00  0.00    +0.022 C 
ATOM     10  C   UNL     1      -4.020   3.301  25.527  0.00  0.00    +0.022 C 
ATOM     13  C   UNL     1      -6.216   1.402  24.997  0.00  0.00    +0.002 C 
ATOM     14  C   UNL     1      -5.480   3.720  25.676  0.00  0.00    +0.002 C 
ATOM     16  C   UNL     1      -6.375   2.529  26.013  0.00  0.00    +0.000 C 
ENDBRANCH   2   6
TORSDOF 1
ENDMDL
MODEL 8
REMARK VINA RESULT:      -2.6      3.544      4.209
REMARK  Name = 75368649
REMARK  2 active torsions:
REMARK  status: ('A' for Active; 'I' for Inactive)
REMARK    1  A    between atoms: N_2  and  C_6
REMARK    2  A    between atoms: N_4  and  C_17
REMARK                            x       y       z     vdW  Elec       q    Type
REMARK                         _______ _______ _______ _____ _____    ______ ____
ROOT
ATOM      1  O   UNL     1      -4.813  -7.801   9.589  0.00  0.00    -0.252 OA
ATOM      2  N   UNL     1      -4.845  -9.723  10.955  0.00  0.00    -0.281 N 
ATOM      3  N   UNL     1      -6.647  -9.266   9.695  0.00  0.00    -0.278 N 
ATOM      4  N   UNL     1      -9.323 -10.113   9.858  0.00  0.00    -0.302 NA
ATOM      5  C   UNL     1      -6.941 -10.549  10.298  0.00  0.00    +0.109 C 
ATOM      7  C   UNL     1      -5.823 -10.734  11.321  0.00  0.00    +0.133 C 
ATOM      8  C   UNL     1      -8.353 -10.550  10.883  0.00  0.00    +0.108 C 
ATOM     11  C   UNL     1      -5.364  -8.804  10.021  0.00  0.00    +0.305 C 
ATOM     12  C   UNL     1      -7.605  -8.673   8.785  0.00  0.00    +0.125 C 
ATOM     15  C   UNL     1      -9.011  -8.750   9.385  0.00  0.00    +0.103 C 
ATOM     17  C   UNL     1     -10.685 -10.169  10.389  0.00  0.00    +0.105 C 
ENDROOT
BRANCH   2   6
ATOM      6  C   UNL     1      -3.565  -9.623  11.615  0.00  0.00    +0.078 C 
ATOM      9  C   UNL     1      -3.395 -10.744  12.642  0.00  0.00    +0.022 C 
ATOM     10  C   UNL     1      -2.431  -9.633  10.587  0.00  0.00    +0.022 C 
ATOM     13  C   UNL     1      -2.025 -10.690  13.313  0.00  0.00    +0.002 C 
ATOM     14  C   UNL     1      -1.061  -9.581  11.260  0.00  0.00    +0.002 C 
ATOM     16  C   UNL     1      -0.896 -10.698  12.287  0.00  0.00    +0.000 C 
ENDBRANCH   2   6
TORSDOF 1
ENDMDL
MODEL 9
REMARK VINA RESULT:      -2.4      3.109      5.934
REMARK  Name = 75368649
REMARK  2 active torsions:
REMARK  status: ('A' for Active; 'I' for Inactive)
REMARK    1  A    between atoms: N_2  and  C_6
REMARK    2  A    between atoms: N_4  and  C_17
REMARK                            x       y       z     vdW  Elec       q    Type
REMARK                         _______ _______ _______ _____ _____    ______ ____
ROOT
ATOM      1  O   UNL     1      -7.802  -8.818  11.949  0.00  0.00    -0.252 OA
ATOM      2  N   UNL     1      -7.072  -9.560   9.833  0.00  0.00    -0.281 N 
ATOM      3  N   UNL     1      -5.821 -10.041  11.635  0.00  0.00    -0.278 N 
ATOM      4  N   UNL     1      -3.122 -10.781  11.910  0.00  0.00    -0.302 NA
ATOM      5  C   UNL     1      -5.169 -10.735  10.544  0.00  0.00    +0.109 C 
ATOM      7  C   UNL     1      -5.889 -10.215   9.301  0.00  0.00    +0.133 C 
ATOM      8  C   UNL     1      -3.664 -10.472  10.571  0.00  0.00    +0.108 C 
ATOM     11  C   UNL     1      -7.002  -9.402  11.232  0.00  0.00    +0.305 C 
ATOM     12  C   UNL     1      -5.280 -10.157  12.973  0.00  0.00    +0.125 C 
ATOM     15  C   UNL     1      -3.764  -9.945  12.944  0.00  0.00    +0.103 C 
ATOM     17  C   UNL     1      -1.672 -10.591  11.929  0.00  0.00    +0.105 C 
ENDROOT
BRANCH   2   6
ATOM      6  C   UNL     1      -8.096  -9.016   8.973  0.00  0.00    +0.078 C 
ATOM      9  C   UNL     1      -9.474  -9.554   9.364  0.00  0.00    +0.022 C 
ATOM     10  C   UNL     1      -8.066  -7.486   9.005  0.00  0.00    +0.022 C 
ATOM     13  C   UNL     1     -10.579  -8.949   8.502  0.00  0.00    +0.002 C 
ATOM     14  C   UNL     1      -9.172  -6.883   8.143  0.00  0.00    +0.002 C 
ATOM     16  C   UNL     1     -10.546  -7.424   8.533  0.00  0.00    +0.000 C 
ENDBRANCH   2   6
TORSDOF 1
ENDMDL
MODEL 10
REMARK VINA RESULT:      -2.3     15.963     16.955
REMARK  Name = 75368649
REMARK  2 active torsions:
REMARK  status: ('A' for Active; 'I' for Inactive)
REMARK    1  A    between atoms: N_2  and  C_6
REMARK    2  A    between atoms: N_4  and  C_17
REMARK                            x       y       z     vdW  Elec       q    Type
REMARK                         _______ _______ _______ _____ _____    ______ ____
ROOT
ATOM      1  O   UNL     1      -0.138   3.103  25.953  0.00  0.00    -0.252 OA
ATOM      2  N   UNL     1      -0.610   1.653  24.154  0.00  0.00    -0.281 N 
ATOM      3  N   UNL     1      -2.271   2.912  24.988  0.00  0.00    -0.278 N 
ATOM      4  N   UNL     1      -5.070   2.681  24.831  0.00  0.00    -0.302 NA
ATOM      5  C   UNL     1      -2.858   2.250  23.841  0.00  0.00    +0.109 C 
ATOM      7  C   UNL     1      -1.797   1.232  23.429  0.00  0.00    +0.133 C 
ATOM      8  C   UNL     1      -4.214   1.649  24.210  0.00  0.00    +0.108 C 
ATOM     11  C   UNL     1      -0.908   2.621  25.134  0.00  0.00    +0.305 C 
ATOM     12  C   UNL     1      -3.075   3.836  25.761  0.00  0.00    +0.125 C 
ATOM     15  C   UNL     1      -4.444   3.217  26.056  0.00  0.00    +0.103 C 
ATOM     17  C   UNL     1      -6.392   2.132  25.132  0.00  0.00    +0.105 C 
ENDROOT
BRANCH   2   6
ATOM      6  C   UNL     1       0.670   1.013  23.962  0.00  0.00    +0.078 C 
ATOM      9  C   UNL     1       0.533  -0.217  23.063  0.00  0.00    +0.022 C 
ATOM     10  C   UNL     1       1.687   2.007  23.395  0.00  0.00    +0.022 C 
ATOM     13  C   UNL     1       1.883  -0.877  22.803  0.00  0.00    +0.002 C 
ATOM     14  C   UNL     1       3.037   1.344  23.134  0.00  0.00    +0.002 C 
ATOM     16  C   UNL     1       2.896   0.115  22.239  0.00  0.00    +0.000 C 
ENDBRANCH   2   6
TORSDOF 1
ENDMDL
