MODEL 1
REMARK VINA RESULT:      17.1      0.000      0.000
REMARK  Name = 9424937
REMARK  5 active torsions:
REMARK  status: ('A' for Active; 'I' for Inactive)
REMARK    1  A    between atoms: N_4  and  C_14
REMARK    2  A    between atoms: N_7  and  C_21
REMARK    3  A    between atoms: N_8  and  C_28
REMARK    4  A    between atoms: C_25  and  C_26
REMARK    5  A    between atoms: C_33  and  C_34
REMARK                            x       y       z     vdW  Elec       q    Type
REMARK                         _______ _______ _______ _____ _____    ______ ____
ROOT
ATOM      1  O   UNL     1      -4.009   5.041  26.923  0.00  0.00    -0.268 OA
ATOM      4  N   UNL     1      -3.710   0.738  24.358  0.00  0.00    -0.298 NA
ATOM      5  N   UNL     1      -3.355   3.841  25.021  0.00  0.00    -0.310 N 
ATOM      9  C   UNL     1      -5.051   2.672  23.493  0.00  0.00    +0.024 C 
ATOM     10  C   UNL     1      -2.661   2.539  22.985  0.00  0.00    +0.052 C 
ATOM     11  C   UNL     1      -4.019   2.929  22.407  0.00  0.00    +0.017 C 
ATOM     12  C   UNL     1      -5.033   1.185  23.906  0.00  0.00    +0.090 C 
ATOM     13  C   UNL     1      -2.673   1.040  23.361  0.00  0.00    +0.094 C 
ATOM     15  C   UNL     1      -4.763   3.615  24.665  0.00  0.00    +0.130 C 
ATOM     16  C   UNL     1      -2.303   3.390  24.202  0.00  0.00    +0.047 A 
ATOM     21  C   UNL     1      -1.026   3.694  24.525  0.00  0.00    +0.055 A 
ATOM     22  C   UNL     1      -3.128   4.606  26.179  0.00  0.00    +0.252 A 
ATOM     23  C   UNL     1      -0.741   4.480  25.702  0.00  0.00    +0.030 A 
ATOM     24  C   UNL     1      -1.714   4.915  26.503  0.00  0.00    +0.072 A 
ENDROOT
BRANCH   4  14
ATOM      2  O   UNL     1      -1.452  -4.864  23.278  0.00  0.00    -0.276 OA
ATOM      6  N   UNL     1      -3.142  -3.434  23.980  0.00  0.00    -0.302 N 
ATOM     14  C   UNL     1      -3.723  -0.687  24.685  0.00  0.00    +0.060 C 
ATOM     17  C   UNL     1      -4.578  -1.452  23.667  0.00  0.00    +0.038 C 
ATOM     18  C   UNL     1      -2.291  -1.235  24.703  0.00  0.00    +0.038 C 
ATOM     19  C   UNL     1      -4.530  -2.957  23.933  0.00  0.00    +0.109 C 
ATOM     20  C   UNL     1      -2.288  -2.744  24.949  0.00  0.00    +0.109 C 
ATOM     25  C   UNL     1      -2.623  -4.482  23.220  0.00  0.00    +0.212 C 
ATOM     26  C   UNL     1      -3.578  -5.170  22.278  0.00  0.00    +0.109 C 
ENDBRANCH   4  14
BRANCH  21   7
ATOM      3  O   UNL     1       0.723   1.561  25.217  0.00  0.00    -0.252 OA
ATOM      7  N   UNL     1       0.060   3.276  23.804  0.00  0.00    -0.268 N 
ATOM      8  N   UNL     1       1.906   2.039  23.246  0.00  0.00    -0.269 N 
ATOM     27  C   UNL     1       0.889   2.218  24.191  0.00  0.00    +0.308 C 
ATOM     35  H   UNL     1       0.144   3.578  22.840  0.00  0.00    +0.156 HD
ATOM     36  H   UNL     1       1.905   2.672  22.450  0.00  0.00    +0.156 HD
BRANCH   8  28
ATOM     28  C   UNL     1       2.946   1.082  23.260  0.00  0.00    +0.035 A 
ATOM     29  C   UNL     1       4.264   1.512  23.244  0.00  0.00    +0.023 A 
ATOM     30  C   UNL     1       2.628  -0.266  23.293  0.00  0.00    +0.023 A 
ATOM     31  C   UNL     1       5.290   0.567  23.259  0.00  0.00    +0.005 A 
ATOM     32  C   UNL     1       3.655  -1.210  23.308  0.00  0.00    +0.005 A 
ATOM     33  C   UNL     1       4.986  -0.793  23.290  0.00  0.00    -0.050 A 
ATOM     34  C   UNL     1       6.084  -1.803  23.307  0.00  0.00    +0.044 C 
ENDBRANCH   8  28
ENDBRANCH  21   7
TORSDOF 3
ENDMDL
