MODEL 1
REMARK VINA RESULT:       1.7      0.000      0.000
REMARK  Name = 45361388
REMARK  12 active torsions:
REMARK  status: ('A' for Active; 'I' for Inactive)
REMARK    1  A    between atoms: O_1  and  C_11
REMARK    2  A    between atoms: O_4  and  C_31
REMARK    3  A    between atoms: O_4  and  C_36
REMARK    4  A    between atoms: N_5  and  C_15
REMARK    5  A    between atoms: N_6  and  C_25
REMARK    6  A    between atoms: C_8  and  C_18
REMARK    7  A    between atoms: C_10  and  C_20
REMARK    8  A    between atoms: C_14  and  C_19
REMARK    9  A    between atoms: C_19  and  C_21
REMARK   10  A    between atoms: C_19  and  C_22
REMARK   11  A    between atoms: C_23  and  C_24
REMARK   12  A    between atoms: C_25  and  C_28
REMARK                            x       y       z     vdW  Elec       q    Type
REMARK                         _______ _______ _______ _____ _____    ______ ____
ROOT
ATOM      8  C   UNL     1      -3.089  -1.291  24.875  0.00  0.00    -0.027 C 
ATOM      9  C   UNL     1      -2.738   0.036  24.125  0.00  0.00    +0.028 C 
ATOM     10  C   UNL     1      -1.195   0.323  24.188  0.00  0.00    +0.012 C 
ATOM     11  C   UNL     1      -3.655   1.205  24.589  0.00  0.00    +0.122 C 
ATOM     12  C   UNL     1      -4.594  -1.602  24.698  0.00  0.00    +0.007 C 
ATOM     13  C   UNL     1      -2.291  -2.455  24.243  0.00  0.00    +0.009 C 
ATOM     14  C   UNL     1      -5.158   0.850  24.507  0.00  0.00    +0.029 C 
ATOM     15  C   UNL     1      -0.399  -0.885  23.619  0.00  0.00    +0.076 C 
ATOM     16  C   UNL     1      -5.495  -0.476  25.187  0.00  0.00    +0.007 C 
ATOM     17  C   UNL     1      -0.786  -2.221  24.251  0.00  0.00    +0.023 C 
ATOM     18  C   UNL     1      -2.771  -1.219  26.391  0.00  0.00    +0.011 C 
ATOM     20  C   UNL     1      -0.775   1.601  23.444  0.00  0.00    +0.010 C 
ENDROOT
BRANCH  15   5
ATOM      3  O   UNL     1       1.483  -0.310  21.528  0.00  0.00    -0.270 OA
ATOM      5  N   UNL     1       1.029  -0.704  23.767  0.00  0.00    -0.308 N 
ATOM     23  C   UNL     1       1.857  -0.429  22.692  0.00  0.00    +0.244 C 
ATOM     37  H   UNL     1       1.424  -0.903  24.681  0.00  0.00    +0.149 HD
BRANCH  23  24
ATOM     24  C   UNL     1       3.303  -0.298  23.007  0.00  0.00    +0.037 A 
ATOM     26  C   UNL     1       3.985  -1.359  23.603  0.00  0.00    +0.016 A 
ATOM     27  C   UNL     1       3.977   0.886  22.708  0.00  0.00    +0.016 A 
ATOM     29  C   UNL     1       5.342  -1.234  23.901  0.00  0.00    +0.046 A 
ATOM     30  C   UNL     1       5.334   1.010  23.006  0.00  0.00    +0.046 A 
ATOM     31  C   UNL     1       6.016  -0.050  23.602  0.00  0.00    +0.120 A 
BRANCH  31   4
ATOM      4  O   UNL     1       7.342   0.071  23.893  0.00  0.00    -0.495 OA
ATOM     36  C   UNL     1       8.266  -0.412  22.920  0.00  0.00    +0.277 C 
ENDBRANCH  31   4
ENDBRANCH  23  24
ENDBRANCH  15   5
BRANCH  11   1
ATOM      1  O   UNL     1      -3.454   2.335  23.737  0.00  0.00    -0.391 OA
ATOM     38  H   UNL     1      -4.218   2.402  23.139  0.00  0.00    +0.210 HD
ENDBRANCH  11   1
BRANCH  14  19
ATOM     19  C   UNL     1      -6.037   1.964  25.089  0.00  0.00    +0.077 C 
ATOM     21  C   UNL     1      -7.240   2.210  24.185  0.00  0.00    +0.017 C 
BRANCH  19  22
ATOM      2  O   UNL     1      -5.229   4.161  24.467  0.00  0.00    -0.276 OA
ATOM      6  N   UNL     1      -4.458   3.212  26.439  0.00  0.00    -0.311 N 
ATOM     22  C   UNL     1      -5.212   3.233  25.275  0.00  0.00    +0.216 C 
ATOM     39  H   UNL     1      -4.540   2.431  27.081  0.00  0.00    +0.149 HD
BRANCH   6  25
ATOM     25  C   UNL     1      -3.594   4.302  26.830  0.00  0.00    +0.141 C 
BRANCH  25  28
ATOM      7  N   UNL     1      -0.127   3.071  25.960  0.00  0.00    -0.263 NA
ATOM     28  C   UNL     1      -2.245   4.213  26.176  0.00  0.00    -0.012 A 
ATOM     32  C   UNL     1      -1.852   5.141  25.217  0.00  0.00    +0.008 A 
ATOM     33  C   UNL     1      -1.355   3.207  26.509  0.00  0.00    +0.115 A 
ATOM     34  C   UNL     1      -0.596   5.034  24.630  0.00  0.00    +0.020 A 
ATOM     35  C   UNL     1       0.222   3.991  25.033  0.00  0.00    +0.111 A 
ENDBRANCH  25  28
ENDBRANCH   6  25
ENDBRANCH  19  22
ENDBRANCH  14  19
TORSDOF 8
ENDMDL
