MODEL 1
REMARK VINA RESULT:      -3.2      0.000      0.000
REMARK  Name = 11885335
REMARK  4 active torsions:
REMARK  status: ('A' for Active; 'I' for Inactive)
REMARK    1  A    between atoms: S_1  and  C_27
REMARK    2  A    between atoms: S_1  and  C_28
REMARK    3  A    between atoms: N_4  and  C_12
REMARK    4  A    between atoms: C_20  and  C_22
REMARK                            x       y       z     vdW  Elec       q    Type
REMARK                         _______ _______ _______ _____ _____    ______ ____
ROOT
ATOM      3  O   UNL     1      17.405  -6.263  31.904  0.00  0.00    -0.267 OA
ATOM      4  N   UNL     1      15.552  -9.946  29.048  0.00  0.00    -0.298 NA
ATOM      5  N   UNL     1      15.696  -7.754  31.363  0.00  0.00    -0.311 N 
ATOM      6  C   UNL     1      15.985 -10.297  31.493  0.00  0.00    +0.024 C 
ATOM      7  C   UNL     1      13.844  -9.353  30.772  0.00  0.00    +0.050 C 
ATOM      8  C   UNL     1      14.489 -10.304  31.777  0.00  0.00    +0.017 C 
ATOM      9  C   UNL     1      16.251 -10.765  30.047  0.00  0.00    +0.090 C 
ATOM     10  C   UNL     1      14.113  -9.859  29.337  0.00  0.00    +0.094 C 
ATOM     11  C   UNL     1      16.535  -8.892  31.769  0.00  0.00    +0.130 C 
ATOM     13  C   UNL     1      14.376  -7.944  30.947  0.00  0.00    +0.026 A 
ATOM     16  C   UNL     1      13.593  -6.884  30.688  0.00  0.00    +0.022 A 
ATOM     17  C   UNL     1      16.257  -6.470  31.510  0.00  0.00    +0.259 A 
ATOM     20  C   UNL     1      15.365  -5.303  31.179  0.00  0.00    +0.047 A 
ATOM     21  C   UNL     1      14.101  -5.545  30.801  0.00  0.00    +0.015 A 
ENDROOT
BRANCH   4  12
ATOM      2  O   UNL     1      16.286  -9.911  24.915  0.00  0.00    -0.380 OA
ATOM     12  C   UNL     1      15.786 -10.451  27.698  0.00  0.00    +0.061 C 
ATOM     14  C   UNL     1      14.691  -9.960  26.748  0.00  0.00    +0.047 C 
ATOM     15  C   UNL     1      17.162 -10.021  27.179  0.00  0.00    +0.047 C 
ATOM     18  C   UNL     1      15.001 -10.385  25.316  0.00  0.00    +0.161 C 
ATOM     19  C   UNL     1      17.335 -10.442  25.724  0.00  0.00    +0.161 C 
ENDBRANCH   4  12
BRANCH  20  22
ATOM     22  C   UNL     1      15.862  -3.917  31.256  0.00  0.00    -0.013 A 
ATOM     23  C   UNL     1      16.230  -3.243  30.091  0.00  0.00    +0.010 A 
ATOM     24  C   UNL     1      15.965  -3.279  32.492  0.00  0.00    +0.010 A 
ATOM     25  C   UNL     1      16.700  -1.931  30.162  0.00  0.00    +0.015 A 
ATOM     26  C   UNL     1      16.434  -1.968  32.563  0.00  0.00    +0.015 A 
ATOM     27  C   UNL     1      16.803  -1.294  31.398  0.00  0.00    +0.008 A 
BRANCH  27   1
ATOM      1  S   UNL     1      17.405   0.380  31.490  0.00  0.00    -0.129 S 
ATOM     28  C   UNL     1      16.437   1.046  32.873  0.00  0.00    +0.090 C 
ENDBRANCH  27   1
ENDBRANCH  20  22
TORSDOF 3
ENDMDL
