MODEL 1
REMARK VINA RESULT:       4.0      0.000      0.000
REMARK  Name = 11885938
REMARK  9 active torsions:
REMARK  status: ('A' for Active; 'I' for Inactive)
REMARK    1  A    between atoms: O_3  and  C_14
REMARK    2  A    between atoms: O_3  and  C_18
REMARK    3  A    between atoms: O_7  and  C_29
REMARK    4  A    between atoms: O_7  and  C_30
REMARK    5  A    between atoms: N_8  and  C_13
REMARK    6  A    between atoms: N_9  and  C_22
REMARK    7  A    between atoms: C_17  and  C_19
REMARK    8  A    between atoms: C_20  and  C_23
REMARK    9  A    between atoms: C_21  and  C_24
REMARK                            x       y       z     vdW  Elec       q    Type
REMARK                         _______ _______ _______ _____ _____    ______ ____
ROOT
ATOM      1  O   UNL     1      -3.088   2.357  25.730  0.00  0.00    -0.368 OA
ATOM      2  O   UNL     1      -5.959   3.291  25.185  0.00  0.00    -0.368 OA
ATOM     11  C   UNL     1      -5.180   2.214  24.622  0.00  0.00    +0.173 C 
ATOM     12  C   UNL     1      -3.754   2.716  24.507  0.00  0.00    +0.192 C 
ATOM     13  C   UNL     1      -5.085   1.072  25.605  0.00  0.00    +0.130 C 
ATOM     14  C   UNL     1      -3.942   4.210  24.391  0.00  0.00    +0.235 C 
ATOM     15  C   UNL     1      -3.956   1.523  26.515  0.00  0.00    +0.185 C 
ATOM     16  C   UNL     1      -5.126   4.455  25.299  0.00  0.00    +0.207 C 
ENDROOT
BRANCH  13   8
ATOM      4  O   UNL     1      -2.830  -0.567  26.136  0.00  0.00    -0.270 OA
ATOM      8  N   UNL     1      -4.760  -0.166  24.940  0.00  0.00    -0.304 N 
ATOM     17  C   UNL     1      -3.629  -0.908  25.265  0.00  0.00    +0.250 C 
ATOM     36  H   UNL     1      -5.323  -0.428  24.139  0.00  0.00    +0.149 HD
BRANCH  17  19
ATOM      6  O   UNL     1      -2.426  -3.880  23.516  0.00  0.00    -0.359 OA
ATOM     10  N   UNL     1      -3.760  -3.938  23.131  0.00  0.00    -0.083 NA
ATOM     19  C   UNL     1      -3.420  -2.130  24.474  0.00  0.00    +0.101 A 
ATOM     20  C   UNL     1      -2.236  -2.800  24.315  0.00  0.00    +0.147 A 
ATOM     21  C   UNL     1      -4.334  -2.881  23.715  0.00  0.00    +0.093 A 
ATOM     23  C   UNL     1      -0.869  -2.592  24.812  0.00  0.00    +0.090 C 
ATOM     24  C   UNL     1      -5.771  -2.631  23.517  0.00  0.00    +0.070 C 
ENDBRANCH  17  19
ENDBRANCH  13   8
BRANCH  14   3
ATOM      3  O   UNL     1      -2.810   4.952  24.783  0.00  0.00    -0.442 OA
BRANCH   3  18
ATOM      5  O   UNL     1      -0.529   4.894  24.930  0.00  0.00    -0.226 OA
ATOM      9  N   UNL     1      -1.750   3.102  24.046  0.00  0.00    -0.251 N 
ATOM     18  C   UNL     1      -1.580   4.352  24.610  0.00  0.00    +0.405 C 
ATOM     37  H   UNL     1      -2.708   2.823  23.852  0.00  0.00    +0.158 HD
BRANCH   9  22
ATOM     22  C   UNL     1      -0.754   2.159  23.704  0.00  0.00    +0.037 A 
ATOM     25  C   UNL     1       0.545   2.309  24.190  0.00  0.00    +0.027 A 
ATOM     26  C   UNL     1      -1.072   1.078  22.882  0.00  0.00    +0.027 A 
ATOM     27  C   UNL     1       1.527   1.377  23.853  0.00  0.00    +0.048 A 
ATOM     28  C   UNL     1      -0.090   0.147  22.545  0.00  0.00    +0.048 A 
ATOM     29  C   UNL     1       1.209   0.296  23.029  0.00  0.00    +0.129 A 
BRANCH  29   7
ATOM      7  O   UNL     1       2.167  -0.614  22.703  0.00  0.00    -0.456 OA
BRANCH   7  30
ATOM     30  C   UNL     1       3.458  -0.376  23.144  0.00  0.00    +0.128 A 
ATOM     31  C   UNL     1       4.147  -1.364  23.848  0.00  0.00    +0.046 A 
ATOM     32  C   UNL     1       4.069   0.851  22.886  0.00  0.00    +0.046 A 
ATOM     33  C   UNL     1       5.447  -1.124  24.293  0.00  0.00    +0.004 A 
ATOM     34  C   UNL     1       5.369   1.091  23.331  0.00  0.00    +0.004 A 
ATOM     35  C   UNL     1       6.058   0.103  24.035  0.00  0.00    +0.000 A 
ENDBRANCH   7  30
ENDBRANCH  29   7
ENDBRANCH   9  22
ENDBRANCH   3  18
ENDBRANCH  14   3
TORSDOF 7
ENDMDL
