MODEL 1
REMARK VINA RESULT:      13.5      0.000      0.000
REMARK  Name = 11885173
REMARK  2 active torsions:
REMARK  status: ('A' for Active; 'I' for Inactive)
REMARK    1  A    between atoms: N_7  and  C_21
REMARK    2  A    between atoms: C_18  and  C_20
REMARK                            x       y       z     vdW  Elec       q    Type
REMARK                         _______ _______ _______ _____ _____    ______ ____
ROOT
ATOM      3  O   UNL     1       0.716   1.698  26.074  0.00  0.00    -0.267 OA
ATOM      4  O   UNL     1      -4.200   1.848  23.012  0.00  0.00    -0.252 OA
ATOM      5  N   UNL     1      -3.936   3.170  24.893  0.00  0.00    -0.284 N 
ATOM      6  N   UNL     1      -0.780   3.336  25.354  0.00  0.00    -0.311 N 
ATOM      7  N   UNL     1      -4.458   0.880  25.103  0.00  0.00    -0.269 N 
ATOM      8  C   UNL     1      -2.697   4.190  26.817  0.00  0.00    +0.027 C 
ATOM      9  C   UNL     1      -2.395   5.096  24.553  0.00  0.00    +0.054 C 
ATOM     10  C   UNL     1      -2.552   5.481  26.023  0.00  0.00    +0.018 C 
ATOM     11  C   UNL     1      -3.926   3.385  26.349  0.00  0.00    +0.114 C 
ATOM     12  C   UNL     1      -1.400   3.383  26.684  0.00  0.00    +0.130 C 
ATOM     13  C   UNL     1      -3.667   4.366  24.086  0.00  0.00    +0.119 C 
ATOM     14  C   UNL     1      -1.185   4.208  24.339  0.00  0.00    +0.027 A 
ATOM     15  C   UNL     1      -0.525   4.233  23.171  0.00  0.00    +0.022 A 
ATOM     16  C   UNL     1       0.307   2.454  25.191  0.00  0.00    +0.259 A 
ATOM     17  C   UNL     1      -4.194   1.943  24.242  0.00  0.00    +0.306 C 
ATOM     18  C   UNL     1       1.000   2.476  23.855  0.00  0.00    +0.047 A 
ATOM     19  C   UNL     1       0.580   3.348  22.927  0.00  0.00    +0.015 A 
ATOM     32  H   UNL     1      -4.864   1.085  26.010  0.00  0.00    +0.156 HD
ENDROOT
BRANCH  18  20
ATOM      1 CL   UNL     1       5.518  -1.258  22.648  0.00  0.00    -0.084 Cl
ATOM     20  C   UNL     1       2.112   1.557  23.558  0.00  0.00    -0.013 A 
ATOM     22  C   UNL     1       1.903   0.178  23.580  0.00  0.00    +0.010 A 
ATOM     23  C   UNL     1       3.376   2.064  23.253  0.00  0.00    +0.010 A 
ATOM     26  C   UNL     1       2.955  -0.693  23.298  0.00  0.00    +0.020 A 
ATOM     27  C   UNL     1       4.429   1.194  22.973  0.00  0.00    +0.020 A 
ATOM     28  C   UNL     1       4.219  -0.185  22.995  0.00  0.00    +0.041 A 
ENDBRANCH  18  20
BRANCH   7  21
ATOM      2 CL   UNL     1      -3.667  -4.888  24.017  0.00  0.00    -0.084 Cl
ATOM     21  C   UNL     1      -4.269  -0.500  24.844  0.00  0.00    +0.035 A 
ATOM     24  C   UNL     1      -3.539  -1.279  25.739  0.00  0.00    +0.025 A 
ATOM     25  C   UNL     1      -4.813  -1.070  23.696  0.00  0.00    +0.025 A 
ATOM     29  C   UNL     1      -3.353  -2.638  25.482  0.00  0.00    +0.022 A 
ATOM     30  C   UNL     1      -4.627  -2.428  23.440  0.00  0.00    +0.022 A 
ATOM     31  C   UNL     1      -3.897  -3.212  24.333  0.00  0.00    +0.041 A 
ENDBRANCH   7  21
TORSDOF 2
ENDMDL
