MODEL 1
REMARK VINA RESULT:       8.1      0.000      0.000
REMARK  Name = 28990896
REMARK  6 active torsions:
REMARK  status: ('A' for Active; 'I' for Inactive)
REMARK    1  A    between atoms: N_3  and  C_14
REMARK    2  A    between atoms: N_5  and  C_29
REMARK    3  A    between atoms: N_6  and  C_27
REMARK    4  A    between atoms: C_14  and  C_17
REMARK    5  A    between atoms: C_18  and  C_21
REMARK    6  A    between atoms: C_24  and  C_27
REMARK                            x       y       z     vdW  Elec       q    Type
REMARK                         _______ _______ _______ _____ _____    ______ ____
ROOT
ATOM      1  O   UNL     1      -0.312  -0.458  22.164  0.00  0.00    -0.267 OA
ATOM      3  N   UNL     1      -4.026  -0.650  25.528  0.00  0.00    -0.297 NA
ATOM      4  N   UNL     1      -1.547  -1.614  23.768  0.00  0.00    -0.311 N 
ATOM      7  C   UNL     1      -4.046  -2.116  23.495  0.00  0.00    +0.024 C 
ATOM      8  C   UNL     1      -2.870  -2.864  25.508  0.00  0.00    +0.050 C 
ATOM      9  C   UNL     1      -3.743  -3.340  24.350  0.00  0.00    +0.017 C 
ATOM     10  C   UNL     1      -4.783  -1.053  24.336  0.00  0.00    +0.090 C 
ATOM     11  C   UNL     1      -3.642  -1.815  26.339  0.00  0.00    +0.094 C 
ATOM     12  C   UNL     1      -2.732  -1.592  22.898  0.00  0.00    +0.130 C 
ATOM     13  C   UNL     1      -1.565  -2.281  24.995  0.00  0.00    +0.026 A 
ATOM     15  C   UNL     1      -0.442  -2.387  25.721  0.00  0.00    +0.022 A 
ATOM     16  C   UNL     1      -0.375  -1.025  23.257  0.00  0.00    +0.259 A 
ATOM     18  C   UNL     1       0.862  -1.129  24.109  0.00  0.00    +0.047 A 
ATOM     19  C   UNL     1       0.786  -1.795  25.271  0.00  0.00    +0.015 A 
ENDROOT
BRANCH  18  21
ATOM     21  C   UNL     1       2.131  -0.509  23.692  0.00  0.00    -0.008 A 
ATOM     24  C   UNL     1       2.173   0.790  23.190  0.00  0.00    -0.025 A 
ATOM     26  C   UNL     1       3.307  -1.251  23.806  0.00  0.00    +0.009 A 
ATOM     30  C   UNL     1       3.391   1.349  22.802  0.00  0.00    +0.005 A 
ATOM     32  C   UNL     1       4.525  -0.692  23.418  0.00  0.00    +0.001 A 
ATOM     36  C   UNL     1       4.567   0.607  22.915  0.00  0.00    +0.000 A 
BRANCH  24  27
ATOM     27  C   UNL     1       0.934   1.615  23.053  0.00  0.00    +0.120 C 
BRANCH  27   6
ATOM      2  O   UNL     1      -1.131   3.578  26.135  0.00  0.00    -0.377 OA
ATOM      6  N   UNL     1       0.650   2.392  24.258  0.00  0.00    -0.294 NA
ATOM     33  C   UNL     1      -0.084   1.581  25.241  0.00  0.00    +0.113 C 
ATOM     34  C   UNL     1      -0.117   3.601  23.931  0.00  0.00    +0.113 C 
ATOM     37  C   UNL     1      -0.379   2.415  26.483  0.00  0.00    +0.175 C 
ATOM     38  C   UNL     1      -0.410   4.388  25.205  0.00  0.00    +0.175 C 
ENDBRANCH  27   6
ENDBRANCH  24  27
ENDBRANCH  18  21
BRANCH   3  14
ATOM     14  C   UNL     1      -4.778   0.317  26.325  0.00  0.00    +0.121 C 
BRANCH  14  17
ATOM      5  N   UNL     1      -5.336   3.787  25.236  0.00  0.00    -0.349 N 
ATOM     17  C   UNL     1      -4.829   1.669  25.665  0.00  0.00    -0.008 A 
ATOM     20  C   UNL     1      -4.145   2.058  24.480  0.00  0.00    +0.004 A 
ATOM     22  C   UNL     1      -5.554   2.752  26.106  0.00  0.00    +0.091 A 
ATOM     23  C   UNL     1      -4.480   3.392  24.232  0.00  0.00    +0.049 A 
ATOM     25  C   UNL     1      -3.270   1.403  23.590  0.00  0.00    +0.010 A 
ATOM     28  C   UNL     1      -3.981   4.105  23.136  0.00  0.00    +0.026 A 
ATOM     29  C   UNL     1      -5.931   5.100  25.365  0.00  0.00    +0.149 C 
ATOM     31  C   UNL     1      -2.763   2.105  22.490  0.00  0.00    +0.001 A 
ATOM     35  C   UNL     1      -3.116   3.434  22.268  0.00  0.00    +0.002 A 
ENDBRANCH  14  17
ENDBRANCH   3  14
TORSDOF 5
ENDMDL
MODEL 2
REMARK VINA RESULT:      11.6      1.692      6.803
REMARK  Name = 28990896
REMARK  6 active torsions:
REMARK  status: ('A' for Active; 'I' for Inactive)
REMARK    1  A    between atoms: N_3  and  C_14
REMARK    2  A    between atoms: N_5  and  C_29
REMARK    3  A    between atoms: N_6  and  C_27
REMARK    4  A    between atoms: C_14  and  C_17
REMARK    5  A    between atoms: C_18  and  C_21
REMARK    6  A    between atoms: C_24  and  C_27
REMARK                            x       y       z     vdW  Elec       q    Type
REMARK                         _______ _______ _______ _____ _____    ______ ____
ROOT
ATOM      1  O   UNL     1      -2.341   1.827  26.410  0.00  0.00    -0.267 OA
ATOM      3  N   UNL     1      -0.016  -1.499  23.464  0.00  0.00    -0.297 NA
ATOM      4  N   UNL     1      -2.196  -0.295  25.457  0.00  0.00    -0.311 N 
ATOM      7  C   UNL     1      -0.249  -1.895  25.928  0.00  0.00    +0.024 C 
ATOM      8  C   UNL     1      -2.051  -2.585  24.421  0.00  0.00    +0.050 C 
ATOM      9  C   UNL     1      -1.279  -2.988  25.675  0.00  0.00    +0.017 C 
ATOM     10  C   UNL     1       0.699  -1.771  24.716  0.00  0.00    +0.090 C 
ATOM     11  C   UNL     1      -1.078  -2.488  23.225  0.00  0.00    +0.094 C 
ATOM     12  C   UNL     1      -0.985  -0.584  26.238  0.00  0.00    +0.130 C 
ATOM     13  C   UNL     1      -2.770  -1.265  24.631  0.00  0.00    +0.026 A 
ATOM     15  C   UNL     1      -3.937  -1.021  24.015  0.00  0.00    +0.022 A 
ATOM     16  C   UNL     1      -2.799   0.960  25.663  0.00  0.00    +0.259 A 
ATOM     18  C   UNL     1      -4.089   1.219  24.932  0.00  0.00    +0.047 A 
ATOM     19  C   UNL     1      -4.599   0.243  24.166  0.00  0.00    +0.015 A 
ENDROOT
BRANCH  18  21
ATOM     21  C   UNL     1      -4.782   2.515  25.041  0.00  0.00    -0.008 A 
ATOM     24  C   UNL     1      -4.500   3.563  24.166  0.00  0.00    -0.025 A 
ATOM     26  C   UNL     1      -5.736   2.681  26.044  0.00  0.00    +0.009 A 
ATOM     30  C   UNL     1      -5.172   4.779  24.295  0.00  0.00    +0.005 A 
ATOM     32  C   UNL     1      -6.408   3.897  26.173  0.00  0.00    +0.001 A 
ATOM     36  C   UNL     1      -6.126   4.946  25.299  0.00  0.00    +0.000 A 
BRANCH  24  27
ATOM     27  C   UNL     1      -3.484   3.421  23.079  0.00  0.00    +0.120 C 
BRANCH  27   6
ATOM      2  O   UNL     1       0.025   3.666  25.370  0.00  0.00    -0.377 OA
ATOM      6  N   UNL     1      -2.140   3.785  23.526  0.00  0.00    -0.294 NA
ATOM     33  C   UNL     1      -1.285   2.594  23.632  0.00  0.00    +0.113 C 
ATOM     34  C   UNL     1      -2.192   4.484  24.816  0.00  0.00    +0.113 C 
ATOM     37  C   UNL     1       0.106   2.996  24.112  0.00  0.00    +0.175 C 
ATOM     38  C   UNL     1      -0.778   4.843  25.267  0.00  0.00    +0.175 C 
ENDBRANCH  27   6
ENDBRANCH  24  27
ENDBRANCH  18  21
BRANCH   3  14
ATOM     14  C   UNL     1       0.908  -1.441  22.334  0.00  0.00    +0.121 C 
BRANCH  14  17
ATOM      5  N   UNL     1       3.219   1.405  22.645  0.00  0.00    -0.349 N 
ATOM     17  C   UNL     1       2.031  -0.469  22.577  0.00  0.00    -0.008 A 
ATOM     20  C   UNL     1       3.295  -0.765  23.158  0.00  0.00    +0.004 A 
ATOM     22  C   UNL     1       2.014   0.873  22.271  0.00  0.00    +0.091 A 
ATOM     23  C   UNL     1       4.022   0.428  23.190  0.00  0.00    +0.049 A 
ATOM     25  C   UNL     1       3.895  -1.937  23.662  0.00  0.00    +0.010 A 
ATOM     28  C   UNL     1       5.322   0.508  23.702  0.00  0.00    +0.026 A 
ATOM     29  C   UNL     1       3.582   2.796  22.481  0.00  0.00    +0.149 C 
ATOM     31  C   UNL     1       5.195  -1.871  24.179  0.00  0.00    +0.001 A 
ATOM     35  C   UNL     1       5.895  -0.667  24.196  0.00  0.00    +0.002 A 
ENDBRANCH  14  17
ENDBRANCH   3  14
TORSDOF 5
ENDMDL
