MODEL 1
REMARK VINA RESULT:      -4.6      0.000      0.000
REMARK  Name = 75536591
REMARK  8 active torsions:
REMARK  status: ('A' for Active; 'I' for Inactive)
REMARK    1  A    between atoms: O_3  and  C_8
REMARK    2  A    between atoms: N_5  and  C_7
REMARK    3  A    between atoms: N_5  and  C_12
REMARK    4  A    between atoms: N_6  and  C_11
REMARK    5  A    between atoms: C_9  and  C_11
REMARK    6  A    between atoms: C_12  and  C_13
REMARK    7  A    between atoms: C_12  and  C_14
REMARK    8  A    between atoms: C_15  and  C_16
REMARK                            x       y       z     vdW  Elec       q    Type
REMARK                         _______ _______ _______ _____ _____    ______ ____
ROOT
ATOM      2  O   UNL     1      -4.286   3.816  25.955  0.00  0.00    -0.371 OA
ATOM      7  C   UNL     1      -2.206   4.154  24.859  0.00  0.00    +0.111 C 
ATOM      8  C   UNL     1      -2.944   3.017  24.179  0.00  0.00    +0.164 C 
ATOM      9  C   UNL     1      -4.375   3.292  24.620  0.00  0.00    +0.165 C 
ATOM     10  C   UNL     1      -2.928   4.226  26.194  0.00  0.00    +0.181 C 
ENDROOT
BRANCH   8   3
ATOM      3  O   UNL     1      -2.812   3.045  22.771  0.00  0.00    -0.388 OA
ATOM     21  H   UNL     1      -2.801   2.127  22.447  0.00  0.00    +0.210 HD
ENDBRANCH   8   3
BRANCH   7   5
ATOM      5  N   UNL     1      -0.778   3.922  24.999  0.00  0.00    -0.307 NA
ATOM     20  H   UNL     1      -0.396   4.518  25.734  0.00  0.00    +0.123 HD
BRANCH   5  12
ATOM     12  C   UNL     1      -0.498   2.523  25.300  0.00  0.00    +0.048 C 
ATOM     13  C   UNL     1       0.400   1.940  24.214  0.00  0.00    +0.023 C 
ATOM     14  C   UNL     1       0.150   2.395  26.675  0.00  0.00    +0.023 C 
ENDBRANCH   5  12
ENDBRANCH   7   5
BRANCH   9  11
ATOM     11  C   UNL     1      -5.253   2.053  24.615  0.00  0.00    +0.138 C 
BRANCH  11   6
ATOM      4  O   UNL     1      -4.583  -0.044  26.459  0.00  0.00    -0.270 OA
ATOM      6  N   UNL     1      -4.489   0.873  24.330  0.00  0.00    -0.308 N 
ATOM     15  C   UNL     1      -4.211  -0.096  25.289  0.00  0.00    +0.251 C 
ATOM     22  H   UNL     1      -4.136   0.771  23.385  0.00  0.00    +0.149 HD
BRANCH  15  16
ATOM      1  S   UNL     1      -1.680  -1.158  24.999  0.00  0.00    -0.092 S 
ATOM     16  C   UNL     1      -3.384  -1.245  24.841  0.00  0.00    +0.074 A 
ATOM     17  C   UNL     1      -3.790  -2.438  24.285  0.00  0.00    +0.021 A 
ATOM     18  C   UNL     1      -2.691  -3.292  23.986  0.00  0.00    +0.008 A 
ATOM     19  C   UNL     1      -1.484  -2.720  24.325  0.00  0.00    +0.046 A 
ENDBRANCH  15  16
ENDBRANCH  11   6
ENDBRANCH   9  11
TORSDOF 6
ENDMDL
MODEL 2
REMARK VINA RESULT:      -4.4      3.486      5.800
REMARK  Name = 75536591
REMARK  8 active torsions:
REMARK  status: ('A' for Active; 'I' for Inactive)
REMARK    1  A    between atoms: O_3  and  C_8
REMARK    2  A    between atoms: N_5  and  C_7
REMARK    3  A    between atoms: N_5  and  C_12
REMARK    4  A    between atoms: N_6  and  C_11
REMARK    5  A    between atoms: C_9  and  C_11
REMARK    6  A    between atoms: C_12  and  C_13
REMARK    7  A    between atoms: C_12  and  C_14
REMARK    8  A    between atoms: C_15  and  C_16
REMARK                            x       y       z     vdW  Elec       q    Type
REMARK                         _______ _______ _______ _____ _____    ______ ____
ROOT
ATOM      2  O   UNL     1      -0.620   1.801  24.274  0.00  0.00    -0.371 OA
ATOM      7  C   UNL     1      -2.972   2.027  24.513  0.00  0.00    +0.111 C 
ATOM      8  C   UNL     1      -2.658   0.630  24.014  0.00  0.00    +0.164 C 
ATOM      9  C   UNL     1      -1.197   0.494  24.423  0.00  0.00    +0.165 C 
ATOM     10  C   UNL     1      -1.686   2.763  24.178  0.00  0.00    +0.181 C 
ENDROOT
BRANCH   8   3
ATOM      3  O   UNL     1      -3.469  -0.361  24.615  0.00  0.00    -0.388 OA
ATOM     21  H   UNL     1      -3.175  -0.479  25.535  0.00  0.00    +0.210 HD
ENDBRANCH   8   3
BRANCH   7   5
ATOM      5  N   UNL     1      -4.143   2.621  23.888  0.00  0.00    -0.307 NA
ATOM     20  H   UNL     1      -4.590   1.946  23.268  0.00  0.00    +0.123 HD
BRANCH   5  12
ATOM     12  C   UNL     1      -5.097   3.084  24.889  0.00  0.00    +0.048 C 
ATOM     13  C   UNL     1      -5.939   1.907  25.371  0.00  0.00    +0.023 C 
ATOM     14  C   UNL     1      -4.364   3.747  26.052  0.00  0.00    +0.023 C 
ENDBRANCH   5  12
ENDBRANCH   7   5
BRANCH   9  11
ATOM     11  C   UNL     1      -0.428  -0.505  23.578  0.00  0.00    +0.138 C 
BRANCH  11   6
ATOM      4  O   UNL     1       1.557  -0.250  21.519  0.00  0.00    -0.270 OA
ATOM      6  N   UNL     1       0.988  -0.367  23.765  0.00  0.00    -0.308 N 
ATOM     15  C   UNL     1       1.880  -0.249  22.704  0.00  0.00    +0.251 C 
ATOM     22  H   UNL     1       1.328  -0.372  24.720  0.00  0.00    +0.149 HD
BRANCH  15  16
ATOM      1  S   UNL     1       4.094  -1.474  23.805  0.00  0.00    -0.092 S 
ATOM     16  C   UNL     1       3.317  -0.140  23.064  0.00  0.00    +0.074 A 
ATOM     17  C   UNL     1       4.174   0.924  22.889  0.00  0.00    +0.021 A 
ATOM     18  C   UNL     1       5.485   0.641  23.368  0.00  0.00    +0.008 A 
ATOM     19  C   UNL     1       5.581  -0.630  23.891  0.00  0.00    +0.046 A 
ENDBRANCH  15  16
ENDBRANCH  11   6
ENDBRANCH   9  11
TORSDOF 6
ENDMDL
MODEL 3
REMARK VINA RESULT:      -4.4      2.452      4.770
REMARK  Name = 75536591
REMARK  8 active torsions:
REMARK  status: ('A' for Active; 'I' for Inactive)
REMARK    1  A    between atoms: O_3  and  C_8
REMARK    2  A    between atoms: N_5  and  C_7
REMARK    3  A    between atoms: N_5  and  C_12
REMARK    4  A    between atoms: N_6  and  C_11
REMARK    5  A    between atoms: C_9  and  C_11
REMARK    6  A    between atoms: C_12  and  C_13
REMARK    7  A    between atoms: C_12  and  C_14
REMARK    8  A    between atoms: C_15  and  C_16
REMARK                            x       y       z     vdW  Elec       q    Type
REMARK                         _______ _______ _______ _____ _____    ______ ____
ROOT
ATOM      2  O   UNL     1      -1.452  -2.018  23.592  0.00  0.00    -0.371 OA
ATOM      7  C   UNL     1       0.027  -0.518  24.690  0.00  0.00    +0.111 C 
ATOM      8  C   UNL     1      -1.239  -0.656  25.514  0.00  0.00    +0.164 C 
ATOM      9  C   UNL     1      -1.788  -1.976  24.988  0.00  0.00    +0.165 C 
ATOM     10  C   UNL     1      -0.437  -1.030  23.337  0.00  0.00    +0.181 C 
ENDROOT
BRANCH   8   3
ATOM      3  O   UNL     1      -0.983  -0.708  26.905  0.00  0.00    -0.388 OA
ATOM     21  H   UNL     1      -1.526  -0.029  27.341  0.00  0.00    +0.210 HD
ENDBRANCH   8   3
BRANCH   7   5
ATOM      5  N   UNL     1       0.543   0.840  24.635  0.00  0.00    -0.307 NA
ATOM     20  H   UNL     1       0.912   1.037  23.705  0.00  0.00    +0.123 HD
BRANCH   5  12
ATOM     12  C   UNL     1      -0.491   1.810  24.975  0.00  0.00    +0.048 C 
ATOM     13  C   UNL     1      -0.069   2.587  26.218  0.00  0.00    +0.023 C 
ATOM     14  C   UNL     1      -0.743   2.750  23.800  0.00  0.00    +0.023 C 
ENDBRANCH   5  12
ENDBRANCH   7   5
BRANCH   9  11
ATOM     11  C   UNL     1      -3.291  -2.110  25.157  0.00  0.00    +0.138 C 
BRANCH  11   6
ATOM      4  O   UNL     1      -3.845   0.002  23.292  0.00  0.00    -0.270 OA
ATOM      6  N   UNL     1      -3.899  -0.844  25.452  0.00  0.00    -0.308 N 
ATOM     15  C   UNL     1      -4.130   0.125  24.481  0.00  0.00    +0.251 C 
ATOM     22  H   UNL     1      -4.148  -0.667  26.419  0.00  0.00    +0.149 HD
BRANCH  15  16
ATOM      1  S   UNL     1      -4.036   2.883  24.491  0.00  0.00    -0.092 S 
ATOM     16  C   UNL     1      -4.743   1.393  24.953  0.00  0.00    +0.074 A 
ATOM     17  C   UNL     1      -5.852   1.574  25.750  0.00  0.00    +0.021 A 
ATOM     18  C   UNL     1      -6.125   2.952  25.983  0.00  0.00    +0.008 A 
ATOM     19  C   UNL     1      -5.215   3.773  25.356  0.00  0.00    +0.046 A 
ENDBRANCH  15  16
ENDBRANCH  11   6
ENDBRANCH   9  11
TORSDOF 6
ENDMDL
MODEL 4
REMARK VINA RESULT:      -4.2      2.415      5.467
REMARK  Name = 75536591
REMARK  8 active torsions:
REMARK  status: ('A' for Active; 'I' for Inactive)
REMARK    1  A    between atoms: O_3  and  C_8
REMARK    2  A    between atoms: N_5  and  C_7
REMARK    3  A    between atoms: N_5  and  C_12
REMARK    4  A    between atoms: N_6  and  C_11
REMARK    5  A    between atoms: C_9  and  C_11
REMARK    6  A    between atoms: C_12  and  C_13
REMARK    7  A    between atoms: C_12  and  C_14
REMARK    8  A    between atoms: C_15  and  C_16
REMARK                            x       y       z     vdW  Elec       q    Type
REMARK                         _______ _______ _______ _____ _____    ______ ____
ROOT
ATOM      2  O   UNL     1      -0.532   0.820  26.099  0.00  0.00    -0.371 OA
ATOM      7  C   UNL     1      -0.547  -1.111  24.716  0.00  0.00    +0.111 C 
ATOM      8  C   UNL     1      -0.445   0.124  23.841  0.00  0.00    +0.164 C 
ATOM      9  C   UNL     1       0.075   1.149  24.840  0.00  0.00    +0.165 C 
ATOM     10  C   UNL     1      -1.059  -0.516  26.017  0.00  0.00    +0.181 C 
ENDROOT
BRANCH   8   3
ATOM      3  O   UNL     1       0.442  -0.050  22.753  0.00  0.00    -0.388 OA
ATOM     21  H   UNL     1       1.349   0.098  23.071  0.00  0.00    +0.210 HD
ENDBRANCH   8   3
BRANCH   7   5
ATOM      5  N   UNL     1      -1.424  -2.137  24.179  0.00  0.00    -0.307 NA
ATOM     20  H   UNL     1      -1.072  -3.063  24.423  0.00  0.00    +0.123 HD
BRANCH   5  12
ATOM     12  C   UNL     1      -2.786  -1.978  24.675  0.00  0.00    +0.048 C 
ATOM     13  C   UNL     1      -3.606  -1.186  23.661  0.00  0.00    +0.023 C 
ATOM     14  C   UNL     1      -3.415  -3.342  24.943  0.00  0.00    +0.023 C 
ENDBRANCH   5  12
ENDBRANCH   7   5
BRANCH   9  11
ATOM     11  C   UNL     1      -0.267   2.580  24.464  0.00  0.00    +0.138 C 
BRANCH  11   6
ATOM      4  O   UNL     1      -2.721   2.144  23.038  0.00  0.00    -0.270 OA
ATOM      6  N   UNL     1      -1.586   2.934  24.901  0.00  0.00    -0.308 N 
ATOM     15  C   UNL     1      -2.725   2.684  24.142  0.00  0.00    +0.251 C 
ATOM     22  H   UNL     1      -1.664   3.397  25.800  0.00  0.00    +0.149 HD
BRANCH  15  16
ATOM      1  S   UNL     1      -5.225   1.974  25.070  0.00  0.00    -0.092 S 
ATOM     16  C   UNL     1      -4.014   3.136  24.724  0.00  0.00    +0.074 A 
ATOM     17  C   UNL     1      -4.416   4.412  25.048  0.00  0.00    +0.021 A 
ATOM     18  C   UNL     1      -5.734   4.438  25.588  0.00  0.00    +0.008 A 
ATOM     19  C   UNL     1      -6.289   3.180  25.657  0.00  0.00    +0.046 A 
ENDBRANCH  15  16
ENDBRANCH  11   6
ENDBRANCH   9  11
TORSDOF 6
ENDMDL
MODEL 5
REMARK VINA RESULT:      -3.7      1.953      3.581
REMARK  Name = 75536591
REMARK  8 active torsions:
REMARK  status: ('A' for Active; 'I' for Inactive)
REMARK    1  A    between atoms: O_3  and  C_8
REMARK    2  A    between atoms: N_5  and  C_7
REMARK    3  A    between atoms: N_5  and  C_12
REMARK    4  A    between atoms: N_6  and  C_11
REMARK    5  A    between atoms: C_9  and  C_11
REMARK    6  A    between atoms: C_12  and  C_13
REMARK    7  A    between atoms: C_12  and  C_14
REMARK    8  A    between atoms: C_15  and  C_16
REMARK                            x       y       z     vdW  Elec       q    Type
REMARK                         _______ _______ _______ _____ _____    ______ ____
ROOT
ATOM      2  O   UNL     1      -1.416   3.425  23.409  0.00  0.00    -0.371 OA
ATOM      7  C   UNL     1      -2.394   4.061  25.478  0.00  0.00    +0.111 C 
ATOM      8  C   UNL     1      -1.460   2.889  25.712  0.00  0.00    +0.164 C 
ATOM      9  C   UNL     1      -0.570   2.972  24.479  0.00  0.00    +0.165 C 
ATOM     10  C   UNL     1      -2.619   3.972  23.978  0.00  0.00    +0.181 C 
ENDROOT
BRANCH   8   3
ATOM      3  O   UNL     1      -0.716   3.014  26.909  0.00  0.00    -0.388 OA
ATOM     21  H   UNL     1      -1.107   2.422  27.575  0.00  0.00    +0.210 HD
ENDBRANCH   8   3
BRANCH   7   5
ATOM      5  N   UNL     1      -3.629   3.985  26.241  0.00  0.00    -0.307 NA
ATOM     20  H   UNL     1      -3.797   4.867  26.725  0.00  0.00    +0.123 HD
BRANCH   5  12
ATOM     12  C   UNL     1      -4.762   3.668  25.379  0.00  0.00    +0.048 C 
ATOM     13  C   UNL     1      -5.256   2.258  25.689  0.00  0.00    +0.023 C 
ATOM     14  C   UNL     1      -5.875   4.694  25.568  0.00  0.00    +0.023 C 
ENDBRANCH   5  12
ENDBRANCH   7   5
BRANCH   9  11
ATOM     11  C   UNL     1       0.063   1.644  24.105  0.00  0.00    +0.138 C 
BRANCH  11   6
ATOM      4  O   UNL     1      -1.116  -0.035  26.114  0.00  0.00    -0.270 OA
ATOM      6  N   UNL     1      -0.932   0.631  23.900  0.00  0.00    -0.308 N 
ATOM     15  C   UNL     1      -1.449  -0.139  24.936  0.00  0.00    +0.251 C 
ATOM     22  H   UNL     1      -1.244   0.480  22.947  0.00  0.00    +0.149 HD
BRANCH  15  16
ATOM      1  S   UNL     1      -1.974  -2.806  24.463  0.00  0.00    -0.092 S 
ATOM     16  C   UNL     1      -2.453  -1.165  24.554  0.00  0.00    +0.074 A 
ATOM     17  C   UNL     1      -3.784  -0.997  24.241  0.00  0.00    +0.021 A 
ATOM     18  C   UNL     1      -4.419  -2.232  23.924  0.00  0.00    +0.008 A 
ATOM     19  C   UNL     1      -3.550  -3.297  24.007  0.00  0.00    +0.046 A 
ENDBRANCH  15  16
ENDBRANCH  11   6
ENDBRANCH   9  11
TORSDOF 6
ENDMDL
MODEL 6
REMARK VINA RESULT:      -3.5      3.505      6.010
REMARK  Name = 75536591
REMARK  8 active torsions:
REMARK  status: ('A' for Active; 'I' for Inactive)
REMARK    1  A    between atoms: O_3  and  C_8
REMARK    2  A    between atoms: N_5  and  C_7
REMARK    3  A    between atoms: N_5  and  C_12
REMARK    4  A    between atoms: N_6  and  C_11
REMARK    5  A    between atoms: C_9  and  C_11
REMARK    6  A    between atoms: C_12  and  C_13
REMARK    7  A    between atoms: C_12  and  C_14
REMARK    8  A    between atoms: C_15  and  C_16
REMARK                            x       y       z     vdW  Elec       q    Type
REMARK                         _______ _______ _______ _____ _____    ______ ____
ROOT
ATOM      2  O   UNL     1      -1.570   2.502  24.936  0.00  0.00    -0.371 OA
ATOM      7  C   UNL     1      -2.558   0.344  24.846  0.00  0.00    +0.111 C 
ATOM      8  C   UNL     1      -1.304   0.349  23.994  0.00  0.00    +0.164 C 
ATOM      9  C   UNL     1      -0.561   1.545  24.573  0.00  0.00    +0.165 C 
ATOM     10  C   UNL     1      -2.842   1.832  24.973  0.00  0.00    +0.181 C 
ENDROOT
BRANCH   8   3
ATOM      3  O   UNL     1      -0.556  -0.846  24.115  0.00  0.00    -0.388 OA
ATOM     21  H   UNL     1       0.170  -0.819  23.469  0.00  0.00    +0.210 HD
ENDBRANCH   8   3
BRANCH   7   5
ATOM      5  N   UNL     1      -3.663  -0.394  24.257  0.00  0.00    -0.307 NA
ATOM     20  H   UNL     1      -3.447  -0.637  23.290  0.00  0.00    +0.123 HD
BRANCH   5  12
ATOM     12  C   UNL     1      -3.955  -1.603  25.018  0.00  0.00    +0.048 C 
ATOM     13  C   UNL     1      -3.548  -2.827  24.205  0.00  0.00    +0.023 C 
ATOM     14  C   UNL     1      -3.231  -1.571  26.361  0.00  0.00    +0.023 C 
ENDBRANCH   5  12
ENDBRANCH   7   5
BRANCH   9  11
ATOM     11  C   UNL     1       0.415   2.175  23.595  0.00  0.00    +0.138 C 
BRANCH  11   6
ATOM      4  O   UNL     1       1.566   0.031  22.070  0.00  0.00    -0.270 OA
ATOM      6  N   UNL     1       1.732   1.627  23.746  0.00  0.00    -0.308 N 
ATOM     15  C   UNL     1       2.209   0.584  22.959  0.00  0.00    +0.251 C 
ATOM     22  H   UNL     1       2.316   2.026  24.473  0.00  0.00    +0.149 HD
BRANCH  15  16
ATOM      1  S   UNL     1       3.816  -1.496  23.801  0.00  0.00    -0.092 S 
ATOM     16  C   UNL     1       3.586   0.112  23.258  0.00  0.00    +0.074 A 
ATOM     17  C   UNL     1       4.774   0.801  23.164  0.00  0.00    +0.021 A 
ATOM     18  C   UNL     1       5.889  -0.001  23.542  0.00  0.00    +0.008 A 
ATOM     19  C   UNL     1       5.510  -1.273  23.910  0.00  0.00    +0.046 A 
ENDBRANCH  15  16
ENDBRANCH  11   6
ENDBRANCH   9  11
TORSDOF 6
ENDMDL
MODEL 7
REMARK VINA RESULT:      -3.3      1.640      2.253
REMARK  Name = 75536591
REMARK  8 active torsions:
REMARK  status: ('A' for Active; 'I' for Inactive)
REMARK    1  A    between atoms: O_3  and  C_8
REMARK    2  A    between atoms: N_5  and  C_7
REMARK    3  A    between atoms: N_5  and  C_12
REMARK    4  A    between atoms: N_6  and  C_11
REMARK    5  A    between atoms: C_9  and  C_11
REMARK    6  A    between atoms: C_12  and  C_13
REMARK    7  A    between atoms: C_12  and  C_14
REMARK    8  A    between atoms: C_15  and  C_16
REMARK                            x       y       z     vdW  Elec       q    Type
REMARK                         _______ _______ _______ _____ _____    ______ ____
ROOT
ATOM      2  O   UNL     1      -5.986   2.057  25.955  0.00  0.00    -0.371 OA
ATOM      7  C   UNL     1      -4.476   3.829  25.483  0.00  0.00    +0.111 C 
ATOM      8  C   UNL     1      -4.160   2.655  24.576  0.00  0.00    +0.164 C 
ATOM      9  C   UNL     1      -5.474   1.886  24.624  0.00  0.00    +0.165 C 
ATOM     10  C   UNL     1      -5.293   3.155  26.574  0.00  0.00    +0.181 C 
ENDROOT
BRANCH   8   3
ATOM      3  O   UNL     1      -3.831   3.055  23.260  0.00  0.00    -0.388 OA
ATOM     21  H   UNL     1      -2.867   2.985  23.152  0.00  0.00    +0.210 HD
ENDBRANCH   8   3
BRANCH   7   5
ATOM      5  N   UNL     1      -3.296   4.504  25.996  0.00  0.00    -0.307 NA
ATOM     20  H   UNL     1      -3.207   4.344  27.000  0.00  0.00    +0.123 HD
BRANCH   5  12
ATOM     12  C   UNL     1      -2.090   4.051  25.313  0.00  0.00    +0.048 C 
ATOM     13  C   UNL     1      -1.243   5.258  24.923  0.00  0.00    +0.023 C 
ATOM     14  C   UNL     1      -1.304   3.094  26.203  0.00  0.00    +0.023 C 
ENDBRANCH   5  12
ENDBRANCH   7   5
BRANCH   9  11
ATOM     11  C   UNL     1      -5.315   0.407  24.322  0.00  0.00    +0.138 C 
BRANCH  11   6
ATOM      4  O   UNL     1      -3.657  -0.960  26.227  0.00  0.00    -0.270 OA
ATOM      6  N   UNL     1      -3.934   0.053  24.158  0.00  0.00    -0.308 N 
ATOM     15  C   UNL     1      -3.205  -0.612  25.138  0.00  0.00    +0.251 C 
ATOM     22  H   UNL     1      -3.491   0.323  23.287  0.00  0.00    +0.149 HD
BRANCH  15  16
ATOM      1  S   UNL     1      -0.903   0.252  23.886  0.00  0.00    -0.092 S 
ATOM     16  C   UNL     1      -1.778  -0.882  24.825  0.00  0.00    +0.074 A 
ATOM     17  C   UNL     1      -1.003  -1.960  25.188  0.00  0.00    +0.021 A 
ATOM     18  C   UNL     1       0.328  -1.855  24.690  0.00  0.00    +0.008 A 
ATOM     19  C   UNL     1       0.519  -0.700  23.966  0.00  0.00    +0.046 A 
ENDBRANCH  15  16
ENDBRANCH  11   6
ENDBRANCH   9  11
TORSDOF 6
ENDMDL
MODEL 8
REMARK VINA RESULT:      -3.2      2.209      3.443
REMARK  Name = 75536591
REMARK  8 active torsions:
REMARK  status: ('A' for Active; 'I' for Inactive)
REMARK    1  A    between atoms: O_3  and  C_8
REMARK    2  A    between atoms: N_5  and  C_7
REMARK    3  A    between atoms: N_5  and  C_12
REMARK    4  A    between atoms: N_6  and  C_11
REMARK    5  A    between atoms: C_9  and  C_11
REMARK    6  A    between atoms: C_12  and  C_13
REMARK    7  A    between atoms: C_12  and  C_14
REMARK    8  A    between atoms: C_15  and  C_16
REMARK                            x       y       z     vdW  Elec       q    Type
REMARK                         _______ _______ _______ _____ _____    ______ ____
ROOT
ATOM      2  O   UNL     1      -5.348   0.987  25.500  0.00  0.00    -0.371 OA
ATOM      7  C   UNL     1      -4.675   3.077  24.596  0.00  0.00    +0.111 C 
ATOM      8  C   UNL     1      -3.738   1.997  24.093  0.00  0.00    +0.164 C 
ATOM      9  C   UNL     1      -4.587   0.750  24.305  0.00  0.00    +0.165 C 
ATOM     10  C   UNL     1      -5.306   2.394  25.797  0.00  0.00    +0.181 C 
ENDROOT
BRANCH   8   3
ATOM      3  O   UNL     1      -3.384   2.169  22.734  0.00  0.00    -0.388 OA
ATOM     21  H   UNL     1      -2.479   2.523  22.697  0.00  0.00    +0.210 HD
ENDBRANCH   8   3
BRANCH   7   5
ATOM      5  N   UNL     1      -4.003   4.320  24.940  0.00  0.00    -0.307 NA
ATOM     20  H   UNL     1      -4.569   4.853  25.600  0.00  0.00    +0.123 HD
BRANCH   5  12
ATOM     12  C   UNL     1      -2.685   4.066  25.507  0.00  0.00    +0.048 C 
ATOM     13  C   UNL     1      -1.714   5.146  25.041  0.00  0.00    +0.023 C 
ATOM     14  C   UNL     1      -2.763   4.020  27.030  0.00  0.00    +0.023 C 
ENDBRANCH   5  12
ENDBRANCH   7   5
BRANCH   9  11
ATOM     11  C   UNL     1      -3.765  -0.516  24.463  0.00  0.00    +0.138 C 
BRANCH  11   6
ATOM      4  O   UNL     1      -1.420   0.238  25.938  0.00  0.00    -0.270 OA
ATOM      6  N   UNL     1      -2.440  -0.348  23.939  0.00  0.00    -0.308 N 
ATOM     15  C   UNL     1      -1.358   0.021  24.730  0.00  0.00    +0.251 C 
ATOM     22  H   UNL     1      -2.317  -0.497  22.943  0.00  0.00    +0.149 HD
BRANCH  15  16
ATOM      1  S   UNL     1       0.790   1.662  24.172  0.00  0.00    -0.092 S 
ATOM     16  C   UNL     1      -0.057   0.180  24.031  0.00  0.00    +0.074 A 
ATOM     17  C   UNL     1       0.615  -0.725  23.240  0.00  0.00    +0.021 A 
ATOM     18  C   UNL     1       1.841  -0.197  22.744  0.00  0.00    +0.008 A 
ATOM     19  C   UNL     1       2.061   1.092  23.175  0.00  0.00    +0.046 A 
ENDBRANCH  15  16
ENDBRANCH  11   6
ENDBRANCH   9  11
TORSDOF 6
ENDMDL
MODEL 9
REMARK VINA RESULT:      -3.2      2.068      5.333
REMARK  Name = 75536591
REMARK  8 active torsions:
REMARK  status: ('A' for Active; 'I' for Inactive)
REMARK    1  A    between atoms: O_3  and  C_8
REMARK    2  A    between atoms: N_5  and  C_7
REMARK    3  A    between atoms: N_5  and  C_12
REMARK    4  A    between atoms: N_6  and  C_11
REMARK    5  A    between atoms: C_9  and  C_11
REMARK    6  A    between atoms: C_12  and  C_13
REMARK    7  A    between atoms: C_12  and  C_14
REMARK    8  A    between atoms: C_15  and  C_16
REMARK                            x       y       z     vdW  Elec       q    Type
REMARK                         _______ _______ _______ _____ _____    ______ ____
ROOT
ATOM      2  O   UNL     1      -4.990  -1.322  23.906  0.00  0.00    -0.371 OA
ATOM      7  C   UNL     1      -2.946  -2.233  24.702  0.00  0.00    +0.111 C 
ATOM      8  C   UNL     1      -3.072  -0.803  25.189  0.00  0.00    +0.164 C 
ATOM      9  C   UNL     1      -4.574  -0.583  25.065  0.00  0.00    +0.165 C 
ATOM     10  C   UNL     1      -3.949  -2.252  23.560  0.00  0.00    +0.181 C 
ENDROOT
BRANCH   8   3
ATOM      3  O   UNL     1      -2.623  -0.636  26.519  0.00  0.00    -0.388 OA
ATOM     21  H   UNL     1      -2.288  -1.492  26.838  0.00  0.00    +0.210 HD
ENDBRANCH   8   3
BRANCH   7   5
ATOM      5  N   UNL     1      -1.602  -2.590  24.280  0.00  0.00    -0.307 NA
ATOM     20  H   UNL     1      -1.537  -2.573  23.262  0.00  0.00    +0.123 HD
BRANCH   5  12
ATOM     12  C   UNL     1      -0.612  -1.688  24.856  0.00  0.00    +0.048 C 
ATOM     13  C   UNL     1       0.466  -2.501  25.565  0.00  0.00    +0.023 C 
ATOM     14  C   UNL     1      -0.006  -0.804  23.770  0.00  0.00    +0.023 C 
ENDBRANCH   5  12
ENDBRANCH   7   5
BRANCH   9  11
ATOM     11  C   UNL     1      -4.956   0.878  24.905  0.00  0.00    +0.138 C 
BRANCH  11   6
ATOM      4  O   UNL     1      -4.546   3.485  26.037  0.00  0.00    -0.270 OA
ATOM      6  N   UNL     1      -3.795   1.707  24.750  0.00  0.00    -0.308 N 
ATOM     15  C   UNL     1      -3.682   2.963  25.337  0.00  0.00    +0.251 C 
ATOM     22  H   UNL     1      -3.045   1.345  24.172  0.00  0.00    +0.149 HD
BRANCH  15  16
ATOM      1  S   UNL     1      -1.103   2.875  24.359  0.00  0.00    -0.092 S 
ATOM     16  C   UNL     1      -2.427   3.707  25.058  0.00  0.00    +0.074 A 
ATOM     17  C   UNL     1      -2.140   5.035  25.285  0.00  0.00    +0.021 A 
ATOM     18  C   UNL     1      -0.818   5.374  24.881  0.00  0.00    +0.008 A 
ATOM     19  C   UNL     1      -0.143   4.293  24.358  0.00  0.00    +0.046 A 
ENDBRANCH  15  16
ENDBRANCH  11   6
ENDBRANCH   9  11
TORSDOF 6
ENDMDL
MODEL 10
REMARK VINA RESULT:      -2.8     15.247     16.867
REMARK  Name = 75536591
REMARK  8 active torsions:
REMARK  status: ('A' for Active; 'I' for Inactive)
REMARK    1  A    between atoms: O_3  and  C_8
REMARK    2  A    between atoms: N_5  and  C_7
REMARK    3  A    between atoms: N_5  and  C_12
REMARK    4  A    between atoms: N_6  and  C_11
REMARK    5  A    between atoms: C_9  and  C_11
REMARK    6  A    between atoms: C_12  and  C_13
REMARK    7  A    between atoms: C_12  and  C_14
REMARK    8  A    between atoms: C_15  and  C_16
REMARK                            x       y       z     vdW  Elec       q    Type
REMARK                         _______ _______ _______ _____ _____    ______ ____
ROOT
ATOM      2  O   UNL     1      -6.400 -10.304  14.379  0.00  0.00    -0.371 OA
ATOM      7  C   UNL     1      -5.461  -9.876  12.240  0.00  0.00    +0.111 C 
ATOM      8  C   UNL     1      -6.950 -10.117  12.087  0.00  0.00    +0.164 C 
ATOM      9  C   UNL     1      -7.439  -9.840  13.502  0.00  0.00    +0.165 C 
ATOM     10  C   UNL     1      -5.197 -10.480  13.609  0.00  0.00    +0.181 C 
ENDROOT
BRANCH   8   3
ATOM      3  O   UNL     1      -7.550  -9.250  11.143  0.00  0.00    -0.388 OA
ATOM     21  H   UNL     1      -6.891  -9.041  10.459  0.00  0.00    +0.210 HD
ENDBRANCH   8   3
BRANCH   7   5
ATOM      5  N   UNL     1      -4.660 -10.484  11.190  0.00  0.00    -0.307 NA
ATOM     20  H   UNL     1      -5.082 -11.363  10.891  0.00  0.00    +0.123 HD
BRANCH   5  12
ATOM     12  C   UNL     1      -4.519  -9.587  10.049  0.00  0.00    +0.048 C 
ATOM     13  C   UNL     1      -3.086  -9.070   9.982  0.00  0.00    +0.023 C 
ATOM     14  C   UNL     1      -4.904 -10.307   8.759  0.00  0.00    +0.023 C 
ENDBRANCH   5  12
ENDBRANCH   7   5
BRANCH   9  11
ATOM     11  C   UNL     1      -8.743 -10.543  13.835  0.00  0.00    +0.138 C 
BRANCH  11   6
ATOM      4  O   UNL     1     -10.191  -8.789  15.589  0.00  0.00    -0.270 OA
ATOM      6  N   UNL     1      -8.908 -10.693  15.252  0.00  0.00    -0.308 N 
ATOM     15  C   UNL     1      -9.630  -9.791  16.027  0.00  0.00    +0.251 C 
ATOM     22  H   UNL     1      -8.458 -11.492  15.686  0.00  0.00    +0.149 HD
BRANCH  15  16
ATOM      1  S   UNL     1      -8.321 -10.775  18.248  0.00  0.00    -0.092 S 
ATOM     16  C   UNL     1      -9.684 -10.074  17.484  0.00  0.00    +0.074 A 
ATOM     17  C   UNL     1     -10.715  -9.851  18.370  0.00  0.00    +0.021 A 
ATOM     18  C   UNL     1     -10.382 -10.260  19.693  0.00  0.00    +0.008 A 
ATOM     19  C   UNL     1      -9.109 -10.780  19.769  0.00  0.00    +0.046 A 
ENDBRANCH  15  16
ENDBRANCH  11   6
ENDBRANCH   9  11
TORSDOF 6
ENDMDL
