MODEL 1
REMARK VINA RESULT:       7.0      0.000      0.000
REMARK  Name = 44716365
REMARK  12 active torsions:
REMARK  status: ('A' for Active; 'I' for Inactive)
REMARK    1  A    between atoms: O_4  and  C_20
REMARK    2  A    between atoms: O_4  and  C_25
REMARK    3  A    between atoms: O_6  and  C_28
REMARK    4  A    between atoms: O_6  and  C_36
REMARK    5  A    between atoms: O_7  and  C_31
REMARK    6  A    between atoms: O_7  and  C_38
REMARK    7  A    between atoms: N_9  and  C_23
REMARK    8  A    between atoms: N_11  and  C_30
REMARK    9  A    between atoms: C_13  and  C_19
REMARK   10  A    between atoms: C_14  and  C_20
REMARK   11  A    between atoms: C_22  and  C_24
REMARK   12  A    between atoms: C_34  and  C_39
REMARK                            x       y       z     vdW  Elec       q    Type
REMARK                         _______ _______ _______ _____ _____    ______ ____
ROOT
ATOM      8  N   UNL     1      -4.760   4.997  24.958  0.00  0.00    -0.296 NA
ATOM     12  C   UNL     1      -3.068   3.673  26.429  0.00  0.00    +0.002 C 
ATOM     13  C   UNL     1      -2.410   4.087  25.083  0.00  0.00    +0.055 C 
ATOM     14  C   UNL     1      -5.385   3.739  25.444  0.00  0.00    +0.095 C 
ATOM     15  C   UNL     1      -4.337   2.845  26.142  0.00  0.00    +0.026 C 
ATOM     16  C   UNL     1      -3.521   4.975  27.122  0.00  0.00    +0.019 C 
ATOM     17  C   UNL     1      -3.530   4.689  24.187  0.00  0.00    +0.094 C 
ATOM     18  C   UNL     1      -4.374   5.801  26.143  0.00  0.00    +0.085 C 
ENDROOT
BRANCH  13  19
ATOM      9  N   UNL     1      -2.017   2.380  23.247  0.00  0.00    -0.270 N 
ATOM     10  N   UNL     1      -1.124   1.512  22.743  0.00  0.00    -0.171 NA
ATOM     19  C   UNL     1      -1.571   3.055  24.345  0.00  0.00    +0.044 A 
ATOM     21  C   UNL     1      -0.297   2.595  24.576  0.00  0.00    +0.053 A 
ATOM     22  C   UNL     1      -0.075   1.647  23.559  0.00  0.00    +0.093 A 
ATOM     23  C   UNL     1      -3.307   2.514  22.611  0.00  0.00    +0.172 C 
BRANCH  22  24
ATOM     24  C   UNL     1       1.117   0.867  23.354  0.00  0.00    +0.006 A 
ATOM     26  C   UNL     1       2.367   1.486  23.369  0.00  0.00    +0.059 A 
ATOM     27  C   UNL     1       1.023  -0.509  23.138  0.00  0.00    +0.014 A 
ATOM     28  C   UNL     1       3.522   0.729  23.171  0.00  0.00    +0.162 A 
ATOM     29  C   UNL     1       2.177  -1.264  22.939  0.00  0.00    +0.050 A 
ATOM     31  C   UNL     1       3.427  -0.646  22.955  0.00  0.00    +0.162 A 
BRANCH  28   6
ATOM      6  O   UNL     1       4.738   1.345  23.187  0.00  0.00    -0.491 OA
ATOM     36  C   UNL     1       5.710   0.834  24.097  0.00  0.00    +0.277 C 
ENDBRANCH  28   6
BRANCH  31   7
ATOM      7  O   UNL     1       4.548  -1.395  22.759  0.00  0.00    -0.491 OA
ATOM     38  C   UNL     1       5.014  -2.165  23.867  0.00  0.00    +0.277 C 
ENDBRANCH  31   7
ENDBRANCH  22  24
ENDBRANCH  13  19
BRANCH  14  20
ATOM     20  C   UNL     1      -6.126   2.989  24.335  0.00  0.00    +0.252 C 
BRANCH  20   4
ATOM      4  O   UNL     1      -6.774   1.870  24.908  0.00  0.00    -0.449 OA
BRANCH   4  25
ATOM      5  O   UNL     1      -5.997   0.551  26.607  0.00  0.00    -0.226 OA
ATOM     11  N   UNL     1      -5.154   0.381  24.430  0.00  0.00    -0.251 N 
ATOM     25  C   UNL     1      -5.963   0.886  25.430  0.00  0.00    +0.405 C 
ATOM     40  H   UNL     1      -5.272   0.790  23.506  0.00  0.00    +0.158 HD
BRANCH  11  30
ATOM     30  C   UNL     1      -4.179  -0.636  24.531  0.00  0.00    +0.037 A 
ATOM     32  C   UNL     1      -3.009  -0.412  25.256  0.00  0.00    +0.035 A 
ATOM     33  C   UNL     1      -4.387  -1.866  23.905  0.00  0.00    +0.023 A 
ATOM     34  C   UNL     1      -2.047  -1.417  25.356  0.00  0.00    +0.057 A 
ATOM     35  C   UNL     1      -3.424  -2.871  24.006  0.00  0.00    +0.002 A 
ATOM     37  C   UNL     1      -2.254  -2.646  24.731  0.00  0.00    +0.012 A 
BRANCH  34  39
ATOM      1  F   UNL     1       0.187  -2.077  25.834  0.00  0.00    -0.166 F 
ATOM      2  F   UNL     1      -0.243   0.053  25.913  0.00  0.00    -0.166 F 
ATOM      3  F   UNL     1      -0.965  -1.256  27.484  0.00  0.00    -0.166 F 
ATOM     39  C   UNL     1      -0.795  -1.177  26.131  0.00  0.00    +0.417 C 
ENDBRANCH  34  39
ENDBRANCH  11  30
ENDBRANCH   4  25
ENDBRANCH  20   4
ENDBRANCH  14  20
TORSDOF 9
ENDMDL
MODEL 2
REMARK VINA RESULT:       7.9      1.136      1.627
REMARK  Name = 44716365
REMARK  12 active torsions:
REMARK  status: ('A' for Active; 'I' for Inactive)
REMARK    1  A    between atoms: O_4  and  C_20
REMARK    2  A    between atoms: O_4  and  C_25
REMARK    3  A    between atoms: O_6  and  C_28
REMARK    4  A    between atoms: O_6  and  C_36
REMARK    5  A    between atoms: O_7  and  C_31
REMARK    6  A    between atoms: O_7  and  C_38
REMARK    7  A    between atoms: N_9  and  C_23
REMARK    8  A    between atoms: N_11  and  C_30
REMARK    9  A    between atoms: C_13  and  C_19
REMARK   10  A    between atoms: C_14  and  C_20
REMARK   11  A    between atoms: C_22  and  C_24
REMARK   12  A    between atoms: C_34  and  C_39
REMARK                            x       y       z     vdW  Elec       q    Type
REMARK                         _______ _______ _______ _____ _____    ______ ____
ROOT
ATOM      8  N   UNL     1      -4.005   4.732  24.745  0.00  0.00    -0.296 NA
ATOM     12  C   UNL     1      -1.424   4.952  25.017  0.00  0.00    +0.002 C 
ATOM     13  C   UNL     1      -1.768   4.089  23.771  0.00  0.00    +0.055 C 
ATOM     14  C   UNL     1      -3.611   4.400  26.139  0.00  0.00    +0.095 C 
ATOM     15  C   UNL     1      -2.073   4.323  26.267  0.00  0.00    +0.026 C 
ATOM     16  C   UNL     1      -2.089   6.328  24.803  0.00  0.00    +0.019 C 
ATOM     17  C   UNL     1      -3.302   3.837  23.792  0.00  0.00    +0.094 C 
ATOM     18  C   UNL     1      -3.578   6.126  24.471  0.00  0.00    +0.085 C 
ENDROOT
BRANCH  13  19
ATOM      9  N   UNL     1      -1.517   1.689  22.987  0.00  0.00    -0.270 N 
ATOM     10  N   UNL     1      -0.651   0.669  22.870  0.00  0.00    -0.171 NA
ATOM     19  C   UNL     1      -0.975   2.811  23.541  0.00  0.00    +0.044 A 
ATOM     21  C   UNL     1       0.337   2.503  23.805  0.00  0.00    +0.053 A 
ATOM     22  C   UNL     1       0.481   1.171  23.371  0.00  0.00    +0.093 A 
ATOM     23  C   UNL     1      -2.879   1.514  22.538  0.00  0.00    +0.172 C 
BRANCH  22  24
ATOM     24  C   UNL     1       1.675   0.370  23.430  0.00  0.00    +0.006 A 
ATOM     26  C   UNL     1       2.915   0.945  23.152  0.00  0.00    +0.059 A 
ATOM     27  C   UNL     1       1.593  -0.983  23.762  0.00  0.00    +0.014 A 
ATOM     28  C   UNL     1       4.072   0.169  23.209  0.00  0.00    +0.162 A 
ATOM     29  C   UNL     1       2.749  -1.759  23.818  0.00  0.00    +0.050 A 
ATOM     31  C   UNL     1       3.989  -1.184  23.542  0.00  0.00    +0.162 A 
BRANCH  28   6
ATOM      6  O   UNL     1       5.278   0.741  22.936  0.00  0.00    -0.491 OA
ATOM     36  C   UNL     1       6.051   1.185  24.049  0.00  0.00    +0.277 C 
ENDBRANCH  28   6
BRANCH  31   7
ATOM      7  O   UNL     1       5.112  -1.953  23.600  0.00  0.00    -0.491 OA
ATOM     38  C   UNL     1       6.020  -1.692  24.669  0.00  0.00    +0.277 C 
ENDBRANCH  31   7
ENDBRANCH  22  24
ENDBRANCH  13  19
BRANCH  14  20
ATOM     20  C   UNL     1      -4.290   3.128  26.651  0.00  0.00    +0.252 C 
BRANCH  20   4
ATOM      4  O   UNL     1      -5.458   2.906  25.886  0.00  0.00    -0.449 OA
BRANCH   4  25
ATOM      5  O   UNL     1      -6.527   1.369  24.572  0.00  0.00    -0.226 OA
ATOM     11  N   UNL     1      -4.389   0.975  25.441  0.00  0.00    -0.251 N 
ATOM     25  C   UNL     1      -5.547   1.698  25.229  0.00  0.00    +0.405 C 
ATOM     40  H   UNL     1      -3.681   1.419  26.021  0.00  0.00    +0.158 HD
BRANCH  11  30
ATOM     30  C   UNL     1      -4.065  -0.311  24.953  0.00  0.00    +0.037 A 
ATOM     32  C   UNL     1      -2.797  -0.845  25.181  0.00  0.00    +0.035 A 
ATOM     33  C   UNL     1      -5.014  -1.046  24.242  0.00  0.00    +0.023 A 
ATOM     34  C   UNL     1      -2.478  -2.115  24.700  0.00  0.00    +0.057 A 
ATOM     35  C   UNL     1      -4.694  -2.316  23.761  0.00  0.00    +0.002 A 
ATOM     37  C   UNL     1      -3.427  -2.850  23.989  0.00  0.00    +0.012 A 
BRANCH  34  39
ATOM      1  F   UNL     1      -1.160  -3.826  25.694  0.00  0.00    -0.166 F 
ATOM      2  F   UNL     1      -0.456  -3.024  23.800  0.00  0.00    -0.166 F 
ATOM      3  F   UNL     1      -0.282  -1.839  25.609  0.00  0.00    -0.166 F 
ATOM     39  C   UNL     1      -1.122  -2.687  24.944  0.00  0.00    +0.417 C 
ENDBRANCH  34  39
ENDBRANCH  11  30
ENDBRANCH   4  25
ENDBRANCH  20   4
ENDBRANCH  14  20
TORSDOF 9
ENDMDL
MODEL 3
REMARK VINA RESULT:       8.1      2.972      4.595
REMARK  Name = 44716365
REMARK  12 active torsions:
REMARK  status: ('A' for Active; 'I' for Inactive)
REMARK    1  A    between atoms: O_4  and  C_20
REMARK    2  A    between atoms: O_4  and  C_25
REMARK    3  A    between atoms: O_6  and  C_28
REMARK    4  A    between atoms: O_6  and  C_36
REMARK    5  A    between atoms: O_7  and  C_31
REMARK    6  A    between atoms: O_7  and  C_38
REMARK    7  A    between atoms: N_9  and  C_23
REMARK    8  A    between atoms: N_11  and  C_30
REMARK    9  A    between atoms: C_13  and  C_19
REMARK   10  A    between atoms: C_14  and  C_20
REMARK   11  A    between atoms: C_22  and  C_24
REMARK   12  A    between atoms: C_34  and  C_39
REMARK                            x       y       z     vdW  Elec       q    Type
REMARK                         _______ _______ _______ _____ _____    ______ ____
ROOT
ATOM      8  N   UNL     1      -5.421   2.396  26.351  0.00  0.00    -0.296 NA
ATOM     12  C   UNL     1      -5.176   1.267  24.017  0.00  0.00    +0.002 C 
ATOM     13  C   UNL     1      -4.333   0.508  25.080  0.00  0.00    +0.055 C 
ATOM     14  C   UNL     1      -5.089   3.419  25.325  0.00  0.00    +0.095 C 
ATOM     15  C   UNL     1      -4.737   2.745  23.980  0.00  0.00    +0.026 C 
ATOM     16  C   UNL     1      -6.639   1.240  24.507  0.00  0.00    +0.019 C 
ATOM     17  C   UNL     1      -4.369   1.351  26.387  0.00  0.00    +0.094 C 
ATOM     18  C   UNL     1      -6.698   1.755  25.957  0.00  0.00    +0.085 C 
ENDROOT
BRANCH  13  19
ATOM      9  N   UNL     1      -2.519  -1.223  24.691  0.00  0.00    -0.270 N 
ATOM     10  N   UNL     1      -1.235  -1.390  24.334  0.00  0.00    -0.171 NA
ATOM     19  C   UNL     1      -2.922   0.080  24.706  0.00  0.00    +0.044 A 
ATOM     21  C   UNL     1      -1.823   0.816  24.335  0.00  0.00    +0.053 A 
ATOM     22  C   UNL     1      -0.814  -0.141  24.118  0.00  0.00    +0.093 A 
ATOM     23  C   UNL     1      -3.319  -2.383  25.010  0.00  0.00    +0.172 C 
BRANCH  22  24
ATOM     24  C   UNL     1       0.543   0.115  23.712  0.00  0.00    +0.006 A 
ATOM     26  C   UNL     1       1.438  -0.944  23.562  0.00  0.00    +0.059 A 
ATOM     27  C   UNL     1       0.963   1.423  23.469  0.00  0.00    +0.014 A 
ATOM     28  C   UNL     1       2.752  -0.695  23.168  0.00  0.00    +0.162 A 
ATOM     29  C   UNL     1       2.278   1.671  23.076  0.00  0.00    +0.050 A 
ATOM     31  C   UNL     1       3.173   0.613  22.925  0.00  0.00    +0.162 A 
BRANCH  28   6
ATOM      6  O   UNL     1       3.619  -1.738  23.026  0.00  0.00    -0.491 OA
ATOM     36  C   UNL     1       4.588  -1.920  24.057  0.00  0.00    +0.277 C 
ENDBRANCH  28   6
BRANCH  31   7
ATOM      7  O   UNL     1       4.454   0.868  22.541  0.00  0.00    -0.491 OA
ATOM     38  C   UNL     1       5.449   0.866  23.564  0.00  0.00    +0.277 C 
ENDBRANCH  31   7
ENDBRANCH  22  24
ENDBRANCH  13  19
BRANCH  14  20
ATOM     20  C   UNL     1      -3.988   4.375  25.788  0.00  0.00    +0.252 C 
BRANCH  20   4
ATOM      4  O   UNL     1      -2.943   4.350  24.836  0.00  0.00    -0.449 OA
BRANCH   4  25
ATOM      5  O   UNL     1      -0.832   5.219  24.971  0.00  0.00    -0.226 OA
ATOM     11  N   UNL     1      -1.488   3.367  26.245  0.00  0.00    -0.251 N 
ATOM     25  C   UNL     1      -1.657   4.387  25.327  0.00  0.00    +0.405 C 
ATOM     40  H   UNL     1      -2.296   2.773  26.411  0.00  0.00    +0.158 HD
BRANCH  11  30
ATOM     30  C   UNL     1      -0.326   3.045  26.983  0.00  0.00    +0.037 A 
ATOM     32  C   UNL     1      -0.360   3.059  28.377  0.00  0.00    +0.035 A 
ATOM     33  C   UNL     1       0.853   2.713  26.316  0.00  0.00    +0.023 A 
ATOM     34  C   UNL     1       0.787   2.739  29.105  0.00  0.00    +0.057 A 
ATOM     35  C   UNL     1       1.999   2.394  27.045  0.00  0.00    +0.002 A 
ATOM     37  C   UNL     1       1.966   2.407  28.439  0.00  0.00    +0.012 A 
BRANCH  34  39
ATOM      1  F   UNL     1       1.670   1.910  31.151  0.00  0.00    -0.166 F 
ATOM      2  F   UNL     1       1.008   3.981  31.138  0.00  0.00    -0.166 F 
ATOM      3  F   UNL     1      -0.453   2.378  31.119  0.00  0.00    -0.166 F 
ATOM     39  C   UNL     1       0.752   2.754  30.596  0.00  0.00    +0.417 C 
ENDBRANCH  34  39
ENDBRANCH  11  30
ENDBRANCH   4  25
ENDBRANCH  20   4
ENDBRANCH  14  20
TORSDOF 9
ENDMDL
MODEL 4
REMARK VINA RESULT:       8.8      3.187      4.758
REMARK  Name = 44716365
REMARK  12 active torsions:
REMARK  status: ('A' for Active; 'I' for Inactive)
REMARK    1  A    between atoms: O_4  and  C_20
REMARK    2  A    between atoms: O_4  and  C_25
REMARK    3  A    between atoms: O_6  and  C_28
REMARK    4  A    between atoms: O_6  and  C_36
REMARK    5  A    between atoms: O_7  and  C_31
REMARK    6  A    between atoms: O_7  and  C_38
REMARK    7  A    between atoms: N_9  and  C_23
REMARK    8  A    between atoms: N_11  and  C_30
REMARK    9  A    between atoms: C_13  and  C_19
REMARK   10  A    between atoms: C_14  and  C_20
REMARK   11  A    between atoms: C_22  and  C_24
REMARK   12  A    between atoms: C_34  and  C_39
REMARK                            x       y       z     vdW  Elec       q    Type
REMARK                         _______ _______ _______ _____ _____    ______ ____
ROOT
ATOM      8  N   UNL     1      -4.734   2.932  25.948  0.00  0.00    -0.296 NA
ATOM     12  C   UNL     1      -5.017   1.247  23.983  0.00  0.00    +0.002 C 
ATOM     13  C   UNL     1      -4.153   0.623  25.114  0.00  0.00    +0.055 C 
ATOM     14  C   UNL     1      -4.405   3.595  24.659  0.00  0.00    +0.095 C 
ATOM     15  C   UNL     1      -4.366   2.563  23.510  0.00  0.00    +0.026 C 
ATOM     16  C   UNL     1      -6.377   1.614  24.613  0.00  0.00    +0.019 C 
ATOM     17  C   UNL     1      -3.862   1.748  26.148  0.00  0.00    +0.094 C 
ATOM     18  C   UNL     1      -6.139   2.465  25.873  0.00  0.00    +0.085 C 
ENDROOT
BRANCH  13  19
ATOM      9  N   UNL     1      -2.911  -1.444  24.323  0.00  0.00    -0.270 N 
ATOM     10  N   UNL     1      -1.697  -1.933  24.020  0.00  0.00    -0.171 NA
ATOM     19  C   UNL     1      -2.897  -0.139  24.720  0.00  0.00    +0.044 A 
ATOM     21  C   UNL     1      -1.580   0.252  24.674  0.00  0.00    +0.053 A 
ATOM     22  C   UNL     1      -0.887  -0.893  24.236  0.00  0.00    +0.093 A 
ATOM     23  C   UNL     1      -4.067  -2.303  24.207  0.00  0.00    +0.172 C 
BRANCH  22  24
ATOM     24  C   UNL     1       0.531  -1.012  24.023  0.00  0.00    +0.006 A 
ATOM     26  C   UNL     1       1.170  -0.183  23.102  0.00  0.00    +0.059 A 
ATOM     27  C   UNL     1       1.267  -1.958  24.738  0.00  0.00    +0.014 A 
ATOM     28  C   UNL     1       2.545  -0.299  22.896  0.00  0.00    +0.162 A 
ATOM     29  C   UNL     1       2.640  -2.074  24.531  0.00  0.00    +0.050 A 
ATOM     31  C   UNL     1       3.280  -1.245  23.611  0.00  0.00    +0.162 A 
BRANCH  28   6
ATOM      6  O   UNL     1       3.159   0.516  21.993  0.00  0.00    -0.491 OA
ATOM     36  C   UNL     1       3.906   1.614  22.514  0.00  0.00    +0.277 C 
ENDBRANCH  28   6
BRANCH  31   7
ATOM      7  O   UNL     1       4.623  -1.368  23.418  0.00  0.00    -0.491 OA
ATOM     38  C   UNL     1       5.474  -0.641  24.304  0.00  0.00    +0.277 C 
ENDBRANCH  31   7
ENDBRANCH  22  24
ENDBRANCH  13  19
BRANCH  14  20
ATOM     20  C   UNL     1      -3.113   4.412  24.735  0.00  0.00    +0.252 C 
BRANCH  20   4
ATOM      4  O   UNL     1      -2.018   3.532  24.573  0.00  0.00    -0.449 OA
BRANCH   4  25
ATOM      5  O   UNL     1      -0.141   4.760  25.020  0.00  0.00    -0.226 OA
ATOM     11  N   UNL     1      -0.742   2.908  26.319  0.00  0.00    -0.251 N 
ATOM     25  C   UNL     1      -0.880   3.822  25.292  0.00  0.00    +0.405 C 
ATOM     40  H   UNL     1      -1.463   2.194  26.386  0.00  0.00    +0.158 HD
BRANCH  11  30
ATOM     30  C   UNL     1       0.282   2.839  27.291  0.00  0.00    +0.037 A 
ATOM     32  C   UNL     1      -0.043   2.809  28.647  0.00  0.00    +0.035 A 
ATOM     33  C   UNL     1       1.619   2.800  26.893  0.00  0.00    +0.023 A 
ATOM     34  C   UNL     1       0.968   2.740  29.605  0.00  0.00    +0.057 A 
ATOM     35  C   UNL     1       2.630   2.731  27.852  0.00  0.00    +0.002 A 
ATOM     37  C   UNL     1       2.304   2.701  29.208  0.00  0.00    +0.012 A 
BRANCH  34  39
ATOM      1  F   UNL     1       0.791   3.919  31.662  0.00  0.00    -0.166 F 
ATOM      2  F   UNL     1      -0.676   2.356  31.300  0.00  0.00    -0.166 F 
ATOM      3  F   UNL     1       1.372   1.828  31.780  0.00  0.00    -0.166 F 
ATOM     39  C   UNL     1       0.620   2.709  31.055  0.00  0.00    +0.417 C 
ENDBRANCH  34  39
ENDBRANCH  11  30
ENDBRANCH   4  25
ENDBRANCH  20   4
ENDBRANCH  14  20
TORSDOF 9
ENDMDL
MODEL 5
REMARK VINA RESULT:       9.0      2.268      3.285
REMARK  Name = 44716365
REMARK  12 active torsions:
REMARK  status: ('A' for Active; 'I' for Inactive)
REMARK    1  A    between atoms: O_4  and  C_20
REMARK    2  A    between atoms: O_4  and  C_25
REMARK    3  A    between atoms: O_6  and  C_28
REMARK    4  A    between atoms: O_6  and  C_36
REMARK    5  A    between atoms: O_7  and  C_31
REMARK    6  A    between atoms: O_7  and  C_38
REMARK    7  A    between atoms: N_9  and  C_23
REMARK    8  A    between atoms: N_11  and  C_30
REMARK    9  A    between atoms: C_13  and  C_19
REMARK   10  A    between atoms: C_14  and  C_20
REMARK   11  A    between atoms: C_22  and  C_24
REMARK   12  A    between atoms: C_34  and  C_39
REMARK                            x       y       z     vdW  Elec       q    Type
REMARK                         _______ _______ _______ _____ _____    ______ ____
ROOT
ATOM      8  N   UNL     1      -4.308   3.418  25.661  0.00  0.00    -0.296 NA
ATOM     12  C   UNL     1      -2.676   4.429  23.902  0.00  0.00    +0.002 C 
ATOM     13  C   UNL     1      -2.908   2.918  23.623  0.00  0.00    +0.055 C 
ATOM     14  C   UNL     1      -3.229   4.175  26.347  0.00  0.00    +0.095 C 
ATOM     15  C   UNL     1      -2.141   4.606  25.338  0.00  0.00    +0.026 C 
ATOM     16  C   UNL     1      -4.060   5.110  23.846  0.00  0.00    +0.019 C 
ATOM     17  C   UNL     1      -3.721   2.346  24.819  0.00  0.00    +0.094 C 
ATOM     18  C   UNL     1      -5.032   4.360  24.774  0.00  0.00    +0.085 C 
ENDROOT
BRANCH  13  19
ATOM      9  N   UNL     1      -1.801   0.860  22.634  0.00  0.00    -0.270 N 
ATOM     10  N   UNL     1      -0.619   0.256  22.426  0.00  0.00    -0.171 NA
ATOM     19  C   UNL     1      -1.701   2.057  23.280  0.00  0.00    +0.044 A 
ATOM     21  C   UNL     1      -0.361   2.248  23.511  0.00  0.00    +0.053 A 
ATOM     22  C   UNL     1       0.257   1.108  22.964  0.00  0.00    +0.093 A 
ATOM     23  C   UNL     1      -3.012   0.218  22.177  0.00  0.00    +0.172 C 
BRANCH  22  24
ATOM     24  C   UNL     1       1.667   0.816  22.948  0.00  0.00    +0.006 A 
ATOM     26  C   UNL     1       2.113  -0.485  23.183  0.00  0.00    +0.059 A 
ATOM     27  C   UNL     1       2.587   1.834  22.698  0.00  0.00    +0.014 A 
ATOM     28  C   UNL     1       3.478  -0.767  23.166  0.00  0.00    +0.162 A 
ATOM     29  C   UNL     1       3.953   1.552  22.683  0.00  0.00    +0.050 A 
ATOM     31  C   UNL     1       4.399   0.252  22.917  0.00  0.00    +0.162 A 
BRANCH  28   6
ATOM      6  O   UNL     1       3.903  -2.041  23.398  0.00  0.00    -0.491 OA
ATOM     36  C   UNL     1       4.965  -2.209  24.335  0.00  0.00    +0.277 C 
ENDBRANCH  28   6
BRANCH  31   7
ATOM      7  O   UNL     1       5.735  -0.011  22.900  0.00  0.00    -0.491 OA
ATOM     38  C   UNL     1       6.510   0.502  23.983  0.00  0.00    +0.277 C 
ENDBRANCH  31   7
ENDBRANCH  22  24
ENDBRANCH  13  19
BRANCH  14  20
ATOM     20  C   UNL     1      -2.637   3.407  27.530  0.00  0.00    +0.252 C 
BRANCH  20   4
ATOM      4  O   UNL     1      -1.230   3.379  27.387  0.00  0.00    -0.449 OA
BRANCH   4  25
ATOM      5  O   UNL     1       0.459   2.265  26.322  0.00  0.00    -0.226 OA
ATOM     11  N   UNL     1      -1.655   1.304  26.625  0.00  0.00    -0.251 N 
ATOM     25  C   UNL     1      -0.696   2.294  26.729  0.00  0.00    +0.405 C 
ATOM     40  H   UNL     1      -2.564   1.515  27.029  0.00  0.00    +0.158 HD
BRANCH  11  30
ATOM     30  C   UNL     1      -1.529   0.031  26.025  0.00  0.00    +0.037 A 
ATOM     32  C   UNL     1      -2.656  -0.616  25.519  0.00  0.00    +0.035 A 
ATOM     33  C   UNL     1      -0.277  -0.578  25.938  0.00  0.00    +0.023 A 
ATOM     34  C   UNL     1      -2.531  -1.873  24.926  0.00  0.00    +0.057 A 
ATOM     35  C   UNL     1      -0.153  -1.834  25.344  0.00  0.00    +0.002 A 
ATOM     37  C   UNL     1      -1.280  -2.482  24.838  0.00  0.00    +0.012 A 
BRANCH  34  39
ATOM      1  F   UNL     1      -4.782  -1.713  24.175  0.00  0.00    -0.166 F 
ATOM      2  F   UNL     1      -3.521  -3.183  23.185  0.00  0.00    -0.166 F 
ATOM      3  F   UNL     1      -4.221  -3.543  25.206  0.00  0.00    -0.166 F 
ATOM     39  C   UNL     1      -3.737  -2.565  24.385  0.00  0.00    +0.417 C 
ENDBRANCH  34  39
ENDBRANCH  11  30
ENDBRANCH   4  25
ENDBRANCH  20   4
ENDBRANCH  14  20
TORSDOF 9
ENDMDL
MODEL 6
REMARK VINA RESULT:       9.1      2.971      5.731
REMARK  Name = 44716365
REMARK  12 active torsions:
REMARK  status: ('A' for Active; 'I' for Inactive)
REMARK    1  A    between atoms: O_4  and  C_20
REMARK    2  A    between atoms: O_4  and  C_25
REMARK    3  A    between atoms: O_6  and  C_28
REMARK    4  A    between atoms: O_6  and  C_36
REMARK    5  A    between atoms: O_7  and  C_31
REMARK    6  A    between atoms: O_7  and  C_38
REMARK    7  A    between atoms: N_9  and  C_23
REMARK    8  A    between atoms: N_11  and  C_30
REMARK    9  A    between atoms: C_13  and  C_19
REMARK   10  A    between atoms: C_14  and  C_20
REMARK   11  A    between atoms: C_22  and  C_24
REMARK   12  A    between atoms: C_34  and  C_39
REMARK                            x       y       z     vdW  Elec       q    Type
REMARK                         _______ _______ _______ _____ _____    ______ ____
ROOT
ATOM      8  N   UNL     1      -2.062   5.688  25.742  0.00  0.00    -0.296 NA
ATOM     12  C   UNL     1      -3.072   4.732  23.539  0.00  0.00    +0.002 C 
ATOM     13  C   UNL     1      -3.811   4.146  24.775  0.00  0.00    +0.055 C 
ATOM     14  C   UNL     1      -0.977   5.177  24.864  0.00  0.00    +0.095 C 
ATOM     15  C   UNL     1      -1.565   4.422  23.652  0.00  0.00    +0.026 C 
ATOM     16  C   UNL     1      -3.228   6.266  23.614  0.00  0.00    +0.019 C 
ATOM     17  C   UNL     1      -3.028   4.601  26.040  0.00  0.00    +0.094 C 
ATOM     18  C   UNL     1      -2.780   6.754  25.002  0.00  0.00    +0.085 C 
ENDROOT
BRANCH  13  19
ATOM      9  N   UNL     1      -5.260   2.137  25.324  0.00  0.00    -0.270 N 
ATOM     10  N   UNL     1      -5.340   0.799  25.237  0.00  0.00    -0.171 NA
ATOM     19  C   UNL     1      -4.118   2.656  24.790  0.00  0.00    +0.044 A 
ATOM     21  C   UNL     1      -3.400   1.582  24.323  0.00  0.00    +0.053 A 
ATOM     22  C   UNL     1      -4.201   0.464  24.625  0.00  0.00    +0.093 A 
ATOM     23  C   UNL     1      -6.340   2.870  25.944  0.00  0.00    +0.172 C 
BRANCH  22  24
ATOM     24  C   UNL     1      -3.898  -0.914  24.344  0.00  0.00    +0.006 A 
ATOM     26  C   UNL     1      -2.625  -1.417  24.611  0.00  0.00    +0.059 A 
ATOM     27  C   UNL     1      -4.877  -1.747  23.801  0.00  0.00    +0.014 A 
ATOM     28  C   UNL     1      -2.332  -2.753  24.339  0.00  0.00    +0.162 A 
ATOM     29  C   UNL     1      -4.584  -3.082  23.528  0.00  0.00    +0.050 A 
ATOM     31  C   UNL     1      -3.312  -3.586  23.797  0.00  0.00    +0.162 A 
BRANCH  28   6
ATOM      6  O   UNL     1      -1.085  -3.234  24.604  0.00  0.00    -0.491 OA
ATOM     36  C   UNL     1      -0.161  -2.335  25.216  0.00  0.00    +0.277 C 
ENDBRANCH  28   6
BRANCH  31   7
ATOM      7  O   UNL     1      -3.037  -4.892  23.525  0.00  0.00    -0.491 OA
ATOM     38  C   UNL     1      -3.421  -5.381  22.240  0.00  0.00    +0.277 C 
ENDBRANCH  31   7
ENDBRANCH  22  24
ENDBRANCH  13  19
BRANCH  14  20
ATOM     20  C   UNL     1       0.039   4.324  25.628  0.00  0.00    +0.252 C 
BRANCH  20   4
ATOM      4  O   UNL     1      -0.614   3.158  26.090  0.00  0.00    -0.449 OA
BRANCH   4  25
ATOM      5  O   UNL     1      -0.536   0.873  26.016  0.00  0.00    -0.226 OA
ATOM     11  N   UNL     1       0.699   2.199  24.533  0.00  0.00    -0.251 N 
ATOM     25  C   UNL     1      -0.174   1.958  25.576  0.00  0.00    +0.405 C 
ATOM     40  H   UNL     1       0.877   3.175  24.312  0.00  0.00    +0.158 HD
BRANCH  11  30
ATOM     30  C   UNL     1       1.379   1.254  23.731  0.00  0.00    +0.037 A 
ATOM     32  C   UNL     1       2.766   1.135  23.818  0.00  0.00    +0.035 A 
ATOM     33  C   UNL     1       0.662   0.440  22.854  0.00  0.00    +0.023 A 
ATOM     34  C   UNL     1       3.436   0.201  23.027  0.00  0.00    +0.057 A 
ATOM     35  C   UNL     1       1.333  -0.494  22.064  0.00  0.00    +0.002 A 
ATOM     37  C   UNL     1       2.720  -0.613  22.150  0.00  0.00    +0.012 A 
BRANCH  34  39
ATOM      1  F   UNL     1       5.485   1.064  23.869  0.00  0.00    -0.166 F 
ATOM      2  F   UNL     1       5.335  -1.097  23.686  0.00  0.00    -0.166 F 
ATOM      3  F   UNL     1       5.550   0.126  21.909  0.00  0.00    -0.166 F 
ATOM     39  C   UNL     1       4.919   0.074  23.119  0.00  0.00    +0.417 C 
ENDBRANCH  34  39
ENDBRANCH  11  30
ENDBRANCH   4  25
ENDBRANCH  20   4
ENDBRANCH  14  20
TORSDOF 9
ENDMDL
MODEL 7
REMARK VINA RESULT:       9.4      1.328      2.199
REMARK  Name = 44716365
REMARK  12 active torsions:
REMARK  status: ('A' for Active; 'I' for Inactive)
REMARK    1  A    between atoms: O_4  and  C_20
REMARK    2  A    between atoms: O_4  and  C_25
REMARK    3  A    between atoms: O_6  and  C_28
REMARK    4  A    between atoms: O_6  and  C_36
REMARK    5  A    between atoms: O_7  and  C_31
REMARK    6  A    between atoms: O_7  and  C_38
REMARK    7  A    between atoms: N_9  and  C_23
REMARK    8  A    between atoms: N_11  and  C_30
REMARK    9  A    between atoms: C_13  and  C_19
REMARK   10  A    between atoms: C_14  and  C_20
REMARK   11  A    between atoms: C_22  and  C_24
REMARK   12  A    between atoms: C_34  and  C_39
REMARK                            x       y       z     vdW  Elec       q    Type
REMARK                         _______ _______ _______ _____ _____    ______ ____
ROOT
ATOM      8  N   UNL     1      -4.459   4.262  24.261  0.00  0.00    -0.296 NA
ATOM     12  C   UNL     1      -2.124   5.342  24.664  0.00  0.00    +0.002 C 
ATOM     13  C   UNL     1      -2.001   4.124  23.708  0.00  0.00    +0.055 C 
ATOM     14  C   UNL     1      -4.229   4.444  25.718  0.00  0.00    +0.095 C 
ATOM     15  C   UNL     1      -2.774   4.889  25.987  0.00  0.00    +0.026 C 
ATOM     16  C   UNL     1      -3.099   6.335  23.996  0.00  0.00    +0.019 C 
ATOM     17  C   UNL     1      -3.387   3.417  23.678  0.00  0.00    +0.094 C 
ATOM     18  C   UNL     1      -4.396   5.598  23.620  0.00  0.00    +0.085 C 
ENDROOT
BRANCH  13  19
ATOM      9  N   UNL     1      -0.774   2.341  25.033  0.00  0.00    -0.270 N 
ATOM     10  N   UNL     1       0.312   1.549  25.044  0.00  0.00    -0.171 NA
ATOM     19  C   UNL     1      -0.859   3.145  23.934  0.00  0.00    +0.044 A 
ATOM     21  C   UNL     1       0.250   2.860  23.175  0.00  0.00    +0.053 A 
ATOM     22  C   UNL     1       0.934   1.870  23.907  0.00  0.00    +0.093 A 
ATOM     23  C   UNL     1      -1.708   2.272  26.132  0.00  0.00    +0.172 C 
BRANCH  22  24
ATOM     24  C   UNL     1       2.170   1.229  23.542  0.00  0.00    +0.006 A 
ATOM     26  C   UNL     1       2.347  -0.133  23.782  0.00  0.00    +0.059 A 
ATOM     27  C   UNL     1       3.193   1.972  22.949  0.00  0.00    +0.014 A 
ATOM     28  C   UNL     1       3.544  -0.753  23.428  0.00  0.00    +0.162 A 
ATOM     29  C   UNL     1       4.390   1.351  22.596  0.00  0.00    +0.050 A 
ATOM     31  C   UNL     1       4.567  -0.011  22.835  0.00  0.00    +0.162 A 
BRANCH  28   6
ATOM      6  O   UNL     1       3.707  -2.085  23.667  0.00  0.00    -0.491 OA
ATOM     36  C   UNL     1       4.918  -2.485  24.306  0.00  0.00    +0.277 C 
ENDBRANCH  28   6
BRANCH  31   7
ATOM      7  O   UNL     1       5.741  -0.606  22.486  0.00  0.00    -0.491 OA
ATOM     38  C   UNL     1       6.902  -0.232  23.228  0.00  0.00    +0.277 C 
ENDBRANCH  31   7
ENDBRANCH  22  24
ENDBRANCH  13  19
BRANCH  14  20
ATOM     20  C   UNL     1      -4.604   3.201  26.528  0.00  0.00    +0.252 C 
BRANCH  20   4
ATOM      4  O   UNL     1      -5.814   2.681  26.014  0.00  0.00    -0.449 OA
BRANCH   4  25
ATOM      5  O   UNL     1      -6.628   1.099  24.578  0.00  0.00    -0.226 OA
ATOM     11  N   UNL     1      -4.509   0.905  25.553  0.00  0.00    -0.251 N 
ATOM     25  C   UNL     1      -5.729   1.504  25.304  0.00  0.00    +0.405 C 
ATOM     40  H   UNL     1      -3.889   1.398  26.191  0.00  0.00    +0.158 HD
BRANCH  11  30
ATOM     30  C   UNL     1      -4.014  -0.311  25.032  0.00  0.00    +0.037 A 
ATOM     32  C   UNL     1      -2.675  -0.656  25.216  0.00  0.00    +0.035 A 
ATOM     33  C   UNL     1      -4.866  -1.168  24.334  0.00  0.00    +0.023 A 
ATOM     34  C   UNL     1      -2.188  -1.858  24.702  0.00  0.00    +0.057 A 
ATOM     35  C   UNL     1      -4.377  -2.370  23.820  0.00  0.00    +0.002 A 
ATOM     37  C   UNL     1      -3.038  -2.714  24.003  0.00  0.00    +0.012 A 
BRANCH  34  39
ATOM      1  F   UNL     1      -0.171  -1.537  25.920  0.00  0.00    -0.166 F 
ATOM      2  F   UNL     1      -0.565  -3.547  25.191  0.00  0.00    -0.166 F 
ATOM      3  F   UNL     1       0.026  -1.989  23.803  0.00  0.00    -0.166 F 
ATOM     39  C   UNL     1      -0.756  -2.227  24.898  0.00  0.00    +0.417 C 
ENDBRANCH  34  39
ENDBRANCH  11  30
ENDBRANCH   4  25
ENDBRANCH  20   4
ENDBRANCH  14  20
TORSDOF 9
ENDMDL
