MODEL 1
REMARK VINA RESULT:      -5.1      0.000      0.000
REMARK  Name = 45783690
REMARK  5 active torsions:
REMARK  status: ('A' for Active; 'I' for Inactive)
REMARK    1  A    between atoms: O_2  and  C_23
REMARK    2  A    between atoms: O_2  and  C_24
REMARK    3  A    between atoms: N_3  and  C_7
REMARK    4  A    between atoms: C_8  and  C_17
REMARK    5  A    between atoms: C_18  and  C_19
REMARK                            x       y       z     vdW  Elec       q    Type
REMARK                         _______ _______ _______ _____ _____    ______ ____
ROOT
ATOM      1  O   UNL     1      -1.904   3.081  24.768  0.00  0.00    -0.336 OA
ATOM      4  N   UNL     1      -1.563   1.175  23.642  0.00  0.00    -0.190 NA
ATOM      5  N   UNL     1      -0.518   2.975  24.594  0.00  0.00    -0.056 NA
ATOM     17  C   UNL     1      -2.443   1.982  24.178  0.00  0.00    +0.245 A 
ATOM     18  C   UNL     1      -0.396   1.825  23.922  0.00  0.00    +0.204 A 
ENDROOT
BRANCH  18  19
ATOM      6  N   UNL     1       3.245   1.649  23.187  0.00  0.00    -0.221 NA
ATOM     19  C   UNL     1       0.875   1.300  23.517  0.00  0.00    +0.041 A 
ATOM     20  C   UNL     1       0.999  -0.011  23.070  0.00  0.00    +0.018 A 
ATOM     21  C   UNL     1       2.018   2.081  23.556  0.00  0.00    +0.126 A 
ATOM     22  C   UNL     1       2.244  -0.493  22.683  0.00  0.00    +0.068 A 
ATOM     23  C   UNL     1       3.326   0.368  22.760  0.00  0.00    +0.214 A 
BRANCH  23   2
ATOM      2  O   UNL     1       4.563  -0.083  22.384  0.00  0.00    -0.480 OA
ATOM     24  C   UNL     1       5.572  -0.099  23.388  0.00  0.00    +0.279 C 
ENDBRANCH  23   2
ENDBRANCH  18  19
BRANCH  17   8
ATOM      3  N   UNL     1      -4.424   1.162  25.443  0.00  0.00    -0.288 NA
ATOM      8  C   UNL     1      -3.952   1.859  24.230  0.00  0.00    +0.146 C 
ATOM     11  C   UNL     1      -5.752   1.699  25.737  0.00  0.00    +0.085 C 
ATOM     12  C   UNL     1      -4.659   3.227  24.264  0.00  0.00    +0.030 C 
ATOM     13  C   UNL     1      -5.552   3.182  25.497  0.00  0.00    +0.017 C 
BRANCH   3   7
ATOM      7  C   UNL     1      -4.438  -0.293  25.301  0.00  0.00    +0.057 C 
ATOM      9  C   UNL     1      -4.437  -0.672  23.816  0.00  0.00    +0.019 C 
ATOM     10  C   UNL     1      -3.231  -0.898  26.027  0.00  0.00    +0.019 C 
ATOM     14  C   UNL     1      -4.374  -2.187  23.628  0.00  0.00    +0.002 C 
ATOM     15  C   UNL     1      -3.170  -2.413  25.836  0.00  0.00    +0.002 C 
ATOM     16  C   UNL     1      -3.180  -2.796  24.359  0.00  0.00    +0.000 C 
ENDBRANCH   3   7
ENDBRANCH  17   8
TORSDOF 4
ENDMDL
MODEL 2
REMARK VINA RESULT:      -2.6      1.431      3.512
REMARK  Name = 45783690
REMARK  5 active torsions:
REMARK  status: ('A' for Active; 'I' for Inactive)
REMARK    1  A    between atoms: O_2  and  C_23
REMARK    2  A    between atoms: O_2  and  C_24
REMARK    3  A    between atoms: N_3  and  C_7
REMARK    4  A    between atoms: C_8  and  C_17
REMARK    5  A    between atoms: C_18  and  C_19
REMARK                            x       y       z     vdW  Elec       q    Type
REMARK                         _______ _______ _______ _____ _____    ______ ____
ROOT
ATOM      1  O   UNL     1      -1.335   1.038  23.551  0.00  0.00    -0.336 OA
ATOM      4  N   UNL     1      -0.027  -0.635  24.264  0.00  0.00    -0.190 NA
ATOM      5  N   UNL     1      -0.040   1.340  23.109  0.00  0.00    -0.056 NA
ATOM     17  C   UNL     1      -1.239  -0.139  24.221  0.00  0.00    +0.245 A 
ATOM     18  C   UNL     1       0.673   0.307  23.568  0.00  0.00    +0.204 A 
ENDROOT
BRANCH  18  19
ATOM      6  N   UNL     1       4.079  -1.180  23.426  0.00  0.00    -0.221 NA
ATOM     19  C   UNL     1       2.085   0.187  23.351  0.00  0.00    +0.041 A 
ATOM     20  C   UNL     1       2.831   1.260  22.876  0.00  0.00    +0.018 A 
ATOM     21  C   UNL     1       2.751  -1.001  23.608  0.00  0.00    +0.126 A 
ATOM     22  C   UNL     1       4.199   1.115  22.675  0.00  0.00    +0.068 A 
ATOM     23  C   UNL     1       4.770  -0.115  22.962  0.00  0.00    +0.214 A 
BRANCH  23   2
ATOM      2  O   UNL     1       6.116  -0.283  22.773  0.00  0.00    -0.480 OA
ATOM     24  C   UNL     1       6.922  -0.364  23.943  0.00  0.00    +0.279 C 
ENDBRANCH  23   2
ENDBRANCH  18  19
BRANCH  17   8
ATOM      3  N   UNL     1      -3.722   0.008  24.301  0.00  0.00    -0.288 NA
ATOM      8  C   UNL     1      -2.523  -0.690  24.806  0.00  0.00    +0.146 C 
ATOM     11  C   UNL     1      -4.811  -0.969  24.331  0.00  0.00    +0.085 C 
ATOM     12  C   UNL     1      -2.751  -2.170  24.451  0.00  0.00    +0.030 C 
ATOM     13  C   UNL     1      -4.129  -2.216  23.805  0.00  0.00    +0.017 C 
BRANCH   3   7
ATOM      7  C   UNL     1      -4.046   1.217  25.056  0.00  0.00    +0.057 C 
ATOM      9  C   UNL     1      -3.733   2.457  24.212  0.00  0.00    +0.019 C 
ATOM     10  C   UNL     1      -5.521   1.189  25.473  0.00  0.00    +0.019 C 
ATOM     14  C   UNL     1      -4.132   3.741  24.939  0.00  0.00    +0.002 C 
ATOM     15  C   UNL     1      -5.917   2.474  26.199  0.00  0.00    +0.002 C 
ATOM     16  C   UNL     1      -5.596   3.713  25.367  0.00  0.00    +0.000 C 
ENDBRANCH   3   7
ENDBRANCH  17   8
TORSDOF 4
ENDMDL
MODEL 3
REMARK VINA RESULT:      -2.1      1.913      3.798
REMARK  Name = 45783690
REMARK  5 active torsions:
REMARK  status: ('A' for Active; 'I' for Inactive)
REMARK    1  A    between atoms: O_2  and  C_23
REMARK    2  A    between atoms: O_2  and  C_24
REMARK    3  A    between atoms: N_3  and  C_7
REMARK    4  A    between atoms: C_8  and  C_17
REMARK    5  A    between atoms: C_18  and  C_19
REMARK                            x       y       z     vdW  Elec       q    Type
REMARK                         _______ _______ _______ _____ _____    ______ ____
ROOT
ATOM      1  O   UNL     1      -0.837  -0.286  22.601  0.00  0.00    -0.336 OA
ATOM      4  N   UNL     1       0.458  -0.218  24.428  0.00  0.00    -0.190 NA
ATOM      5  N   UNL     1       0.486  -0.232  22.140  0.00  0.00    -0.056 NA
ATOM     17  C   UNL     1      -0.763  -0.273  23.958  0.00  0.00    +0.245 A 
ATOM     18  C   UNL     1       1.189  -0.194  23.276  0.00  0.00    +0.204 A 
ENDROOT
BRANCH  18  19
ATOM      6  N   UNL     1       4.730  -1.209  23.783  0.00  0.00    -0.221 NA
ATOM     19  C   UNL     1       2.621  -0.132  23.295  0.00  0.00    +0.041 A 
ATOM     20  C   UNL     1       3.295   1.008  22.869  0.00  0.00    +0.018 A 
ATOM     21  C   UNL     1       3.379  -1.203  23.739  0.00  0.00    +0.126 A 
ATOM     22  C   UNL     1       4.684   1.040  22.899  0.00  0.00    +0.068 A 
ATOM     23  C   UNL     1       5.349  -0.084  23.360  0.00  0.00    +0.214 A 
BRANCH  23   2
ATOM      2  O   UNL     1       6.719  -0.077  23.400  0.00  0.00    -0.480 OA
ATOM     24  C   UNL     1       7.388  -1.050  22.606  0.00  0.00    +0.279 C 
ENDBRANCH  23   2
ENDBRANCH  18  19
BRANCH  17   8
ATOM      3  N   UNL     1      -3.167   0.371  23.990  0.00  0.00    -0.288 NA
ATOM      8  C   UNL     1      -2.079  -0.325  24.706  0.00  0.00    +0.146 C 
ATOM     11  C   UNL     1      -4.408  -0.303  24.371  0.00  0.00    +0.085 C 
ATOM     12  C   UNL     1      -2.595  -1.762  24.903  0.00  0.00    +0.030 C 
ATOM     13  C   UNL     1      -4.002  -1.762  24.321  0.00  0.00    +0.017 C 
BRANCH   3   7
ATOM      7  C   UNL     1      -3.213   1.805  24.265  0.00  0.00    +0.057 C 
ATOM      9  C   UNL     1      -4.558   2.170  24.903  0.00  0.00    +0.019 C 
ATOM     10  C   UNL     1      -2.044   2.198  25.176  0.00  0.00    +0.019 C 
ATOM     14  C   UNL     1      -4.614   3.650  25.277  0.00  0.00    +0.002 C 
ATOM     15  C   UNL     1      -2.103   3.678  25.549  0.00  0.00    +0.002 C 
ATOM     16  C   UNL     1      -3.445   4.049  26.175  0.00  0.00    +0.000 C 
ENDBRANCH   3   7
ENDBRANCH  17   8
TORSDOF 4
ENDMDL
MODEL 4
REMARK VINA RESULT:      -1.3      1.815      2.583
REMARK  Name = 45783690
REMARK  5 active torsions:
REMARK  status: ('A' for Active; 'I' for Inactive)
REMARK    1  A    between atoms: O_2  and  C_23
REMARK    2  A    between atoms: O_2  and  C_24
REMARK    3  A    between atoms: N_3  and  C_7
REMARK    4  A    between atoms: C_8  and  C_17
REMARK    5  A    between atoms: C_18  and  C_19
REMARK                            x       y       z     vdW  Elec       q    Type
REMARK                         _______ _______ _______ _____ _____    ______ ____
ROOT
ATOM      1  O   UNL     1      -0.671  -0.072  22.728  0.00  0.00    -0.336 OA
ATOM      4  N   UNL     1       0.723   1.321  23.793  0.00  0.00    -0.190 NA
ATOM      5  N   UNL     1       0.618  -0.587  22.534  0.00  0.00    -0.056 NA
ATOM     17  C   UNL     1      -0.519   1.050  23.478  0.00  0.00    +0.245 A 
ATOM     18  C   UNL     1       1.384   0.290  23.192  0.00  0.00    +0.204 A 
ENDROOT
BRANCH  18  19
ATOM      6  N   UNL     1       4.741  -1.220  23.719  0.00  0.00    -0.221 NA
ATOM     19  C   UNL     1       2.810   0.163  23.267  0.00  0.00    +0.041 A 
ATOM     20  C   UNL     1       3.640   1.241  22.981  0.00  0.00    +0.018 A 
ATOM     21  C   UNL     1       3.405  -1.035  23.628  0.00  0.00    +0.126 A 
ATOM     22  C   UNL     1       5.020   1.090  23.063  0.00  0.00    +0.068 A 
ATOM     23  C   UNL     1       5.516  -0.149  23.432  0.00  0.00    +0.214 A 
BRANCH  23   2
ATOM      2  O   UNL     1       6.871  -0.324  23.521  0.00  0.00    -0.480 OA
ATOM     24  C   UNL     1       7.491  -1.070  22.479  0.00  0.00    +0.279 C 
ENDBRANCH  23   2
ENDBRANCH  18  19
BRANCH  17   8
ATOM      3  N   UNL     1      -2.278   1.483  25.185  0.00  0.00    -0.288 NA
ATOM      8  C   UNL     1      -1.785   1.803  23.830  0.00  0.00    +0.146 C 
ATOM     11  C   UNL     1      -2.980   2.675  25.661  0.00  0.00    +0.085 C 
ATOM     12  C   UNL     1      -1.586   3.330  23.836  0.00  0.00    +0.030 C 
ATOM     13  C   UNL     1      -2.051   3.786  25.213  0.00  0.00    +0.017 C 
BRANCH   3   7
ATOM      7  C   UNL     1      -3.128   0.294  25.222  0.00  0.00    +0.057 C 
ATOM      9  C   UNL     1      -3.645  -0.020  23.814  0.00  0.00    +0.019 C 
ATOM     10  C   UNL     1      -2.342  -0.889  25.799  0.00  0.00    +0.019 C 
ATOM     14  C   UNL     1      -4.475  -1.303  23.800  0.00  0.00    +0.002 C 
ATOM     15  C   UNL     1      -3.174  -2.170  25.782  0.00  0.00    +0.002 C 
ATOM     16  C   UNL     1      -3.701  -2.482  24.385  0.00  0.00    +0.000 C 
ENDBRANCH   3   7
ENDBRANCH  17   8
TORSDOF 4
ENDMDL
