MODEL 1
REMARK VINA RESULT:       5.4      0.000      0.000
REMARK  Name = 26762363
REMARK  10 active torsions:
REMARK  status: ('A' for Active; 'I' for Inactive)
REMARK    1  A    between atoms: N_6  and  C_12
REMARK    2  A    between atoms: N_7  and  C_24
REMARK    3  A    between atoms: N_8  and  C_27
REMARK    4  A    between atoms: N_8  and  C_31
REMARK    5  A    between atoms: N_8  and  C_32
REMARK    6  A    between atoms: C_11  and  C_17
REMARK    7  A    between atoms: C_17  and  C_18
REMARK    8  A    between atoms: C_18  and  C_20
REMARK    9  A    between atoms: C_19  and  C_21
REMARK   10  A    between atoms: C_24  and  C_28
REMARK                            x       y       z     vdW  Elec       q    Type
REMARK                         _______ _______ _______ _____ _____    ______ ____
ROOT
ATOM      1  O   UNL     1      -5.540  -0.241  24.317  0.00  0.00    -0.274 OA
ATOM      4  N   UNL     1      -3.451   2.610  24.204  0.00  0.00    -0.285 NA
ATOM      5  N   UNL     1      -5.435   1.545  25.756  0.00  0.00    -0.313 N 
ATOM     10  C   UNL     1      -4.432   1.746  23.542  0.00  0.00    +0.145 C 
ATOM     11  C   UNL     1      -4.134   3.581  25.061  0.00  0.00    +0.075 C 
ATOM     12  C   UNL     1      -2.442   1.949  22.200  0.00  0.00    +0.089 C 
ATOM     13  C   UNL     1      -3.577   0.978  22.547  0.00  0.00    +0.052 C 
ATOM     14  C   UNL     1      -2.657   3.164  23.109  0.00  0.00    +0.107 C 
ATOM     15  C   UNL     1      -4.805   2.782  26.188  0.00  0.00    +0.123 C 
ATOM     16  C   UNL     1      -5.149   0.897  24.568  0.00  0.00    +0.230 C 
ATOM     35  H   UNL     1      -5.981   1.036  26.444  0.00  0.00    +0.149 HD
ENDROOT
BRANCH  12   6
ATOM      2  O   UNL     1      -0.152   3.168  23.431  0.00  0.00    -0.270 OA
ATOM      6  N   UNL     1      -1.152   1.341  22.413  0.00  0.00    -0.307 N 
ATOM     19  C   UNL     1      -0.101   2.013  23.020  0.00  0.00    +0.244 C 
ATOM     36  H   UNL     1      -1.004   0.427  21.998  0.00  0.00    +0.149 HD
BRANCH  19  21
ATOM     21  C   UNL     1       1.171   1.255  23.140  0.00  0.00    +0.037 A 
ATOM     22  C   UNL     1       2.387   1.937  23.181  0.00  0.00    +0.015 A 
ATOM     23  C   UNL     1       1.149  -0.138  23.213  0.00  0.00    +0.015 A 
ATOM     25  C   UNL     1       3.583   1.226  23.294  0.00  0.00    +0.024 A 
ATOM     26  C   UNL     1       2.344  -0.848  23.325  0.00  0.00    +0.024 A 
ATOM     27  C   UNL     1       3.561  -0.167  23.365  0.00  0.00    +0.029 A 
BRANCH  27   8
ATOM      8  N   UNL     1       4.768  -0.886  23.479  0.00  0.00    -0.336 N 
ATOM     31  C   UNL     1       6.038  -0.234  23.232  0.00  0.00    +0.129 C 
ATOM     32  C   UNL     1       4.755  -2.287  23.852  0.00  0.00    +0.129 C 
ENDBRANCH  27   8
ENDBRANCH  19  21
ENDBRANCH  12   6
BRANCH  11  17
ATOM     17  C   UNL     1      -3.186   4.620  25.663  0.00  0.00    +0.029 C 
BRANCH  17  18
ATOM     18  C   UNL     1      -2.387   4.031  26.818  0.00  0.00    +0.097 C 
BRANCH  18  20
ATOM      3  O   UNL     1      -0.166   3.494  26.018  0.00  0.00    -0.276 OA
ATOM      7  N   UNL     1      -1.708   1.782  26.303  0.00  0.00    -0.311 N 
ATOM     20  C   UNL     1      -1.286   3.104  26.337  0.00  0.00    +0.213 C 
ATOM     37  H   UNL     1      -2.643   1.538  26.613  0.00  0.00    +0.149 HD
BRANCH   7  24
ATOM     24  C   UNL     1      -0.842   0.707  25.879  0.00  0.00    +0.141 C 
BRANCH  24  28
ATOM      9  N   UNL     1      -3.549  -1.933  25.930  0.00  0.00    -0.263 NA
ATOM     28  C   UNL     1      -1.614  -0.536  25.542  0.00  0.00    -0.012 A 
ATOM     29  C   UNL     1      -1.154  -1.428  24.580  0.00  0.00    +0.008 A 
ATOM     30  C   UNL     1      -2.807  -0.833  26.184  0.00  0.00    +0.115 A 
ATOM     33  C   UNL     1      -1.890  -2.571  24.291  0.00  0.00    +0.020 A 
ATOM     34  C   UNL     1      -3.070  -2.776  24.987  0.00  0.00    +0.111 A 
ENDBRANCH  24  28
ENDBRANCH   7  24
ENDBRANCH  18  20
ENDBRANCH  17  18
ENDBRANCH  11  17
TORSDOF 8
ENDMDL
MODEL 2
REMARK VINA RESULT:       5.4      2.082      3.321
REMARK  Name = 26762363
REMARK  10 active torsions:
REMARK  status: ('A' for Active; 'I' for Inactive)
REMARK    1  A    between atoms: N_6  and  C_12
REMARK    2  A    between atoms: N_7  and  C_24
REMARK    3  A    between atoms: N_8  and  C_27
REMARK    4  A    between atoms: N_8  and  C_31
REMARK    5  A    between atoms: N_8  and  C_32
REMARK    6  A    between atoms: C_11  and  C_17
REMARK    7  A    between atoms: C_17  and  C_18
REMARK    8  A    between atoms: C_18  and  C_20
REMARK    9  A    between atoms: C_19  and  C_21
REMARK   10  A    between atoms: C_24  and  C_28
REMARK                            x       y       z     vdW  Elec       q    Type
REMARK                         _______ _______ _______ _____ _____    ______ ____
ROOT
ATOM      1  O   UNL     1      -4.371  -0.756  25.548  0.00  0.00    -0.274 OA
ATOM      4  N   UNL     1      -3.327   2.203  23.917  0.00  0.00    -0.285 NA
ATOM      5  N   UNL     1      -4.695   1.433  26.157  0.00  0.00    -0.313 N 
ATOM     10  C   UNL     1      -4.043   0.925  23.862  0.00  0.00    +0.145 C 
ATOM     11  C   UNL     1      -4.193   3.240  24.482  0.00  0.00    +0.075 C 
ATOM     12  C   UNL     1      -2.372   1.035  22.131  0.00  0.00    +0.089 C 
ATOM     13  C   UNL     1      -3.094   0.051  23.059  0.00  0.00    +0.052 C 
ATOM     14  C   UNL     1      -2.869   2.423  22.546  0.00  0.00    +0.107 C 
ATOM     15  C   UNL     1      -4.453   2.852  25.945  0.00  0.00    +0.123 C 
ATOM     16  C   UNL     1      -4.341   0.439  25.263  0.00  0.00    +0.230 C 
ATOM     35  H   UNL     1      -4.975   1.144  27.088  0.00  0.00    +0.149 HD
ENDROOT
BRANCH  12   6
ATOM      2  O   UNL     1      -0.944  -0.398  24.169  0.00  0.00    -0.270 OA
ATOM      6  N   UNL     1      -0.940   0.916  22.258  0.00  0.00    -0.307 N 
ATOM     19  C   UNL     1      -0.340   0.198  23.282  0.00  0.00    +0.244 C 
ATOM     36  H   UNL     1      -0.377   1.475  21.626  0.00  0.00    +0.149 HD
BRANCH  19  21
ATOM     21  C   UNL     1       1.146   0.195  23.288  0.00  0.00    +0.037 A 
ATOM     22  C   UNL     1       1.846   1.395  23.166  0.00  0.00    +0.015 A 
ATOM     23  C   UNL     1       1.840  -1.008  23.415  0.00  0.00    +0.015 A 
ATOM     25  C   UNL     1       3.242   1.392  23.171  0.00  0.00    +0.024 A 
ATOM     26  C   UNL     1       3.235  -1.011  23.419  0.00  0.00    +0.024 A 
ATOM     27  C   UNL     1       3.936   0.189  23.297  0.00  0.00    +0.029 A 
BRANCH  27   8
ATOM      8  N   UNL     1       5.346   0.185  23.302  0.00  0.00    -0.336 N 
ATOM     31  C   UNL     1       6.078   0.933  24.305  0.00  0.00    +0.129 C 
ATOM     32  C   UNL     1       6.082  -0.572  22.309  0.00  0.00    +0.129 C 
ENDBRANCH  27   8
ENDBRANCH  19  21
ENDBRANCH  12   6
BRANCH  11  17
ATOM     17  C   UNL     1      -3.571   4.637  24.425  0.00  0.00    +0.029 C 
BRANCH  17  18
ATOM     18  C   UNL     1      -2.681   4.891  25.635  0.00  0.00    +0.097 C 
BRANCH  18  20
ATOM      3  O   UNL     1      -0.448   4.864  24.702  0.00  0.00    -0.276 OA
ATOM      7  N   UNL     1      -1.070   3.195  26.190  0.00  0.00    -0.311 N 
ATOM     20  C   UNL     1      -1.280   4.343  25.440  0.00  0.00    +0.213 C 
ATOM     37  H   UNL     1      -1.801   2.844  26.800  0.00  0.00    +0.149 HD
BRANCH   7  24
ATOM     24  C   UNL     1       0.186   2.482  26.175  0.00  0.00    +0.141 C 
BRANCH  24  28
ATOM      9  N   UNL     1       2.935   3.050  28.709  0.00  0.00    -0.263 NA
ATOM     28  C   UNL     1       0.900   2.575  27.492  0.00  0.00    -0.012 A 
ATOM     29  C   UNL     1       0.246   2.285  28.685  0.00  0.00    +0.008 A 
ATOM     30  C   UNL     1       2.233   2.949  27.558  0.00  0.00    +0.115 A 
ATOM     33  C   UNL     1       0.934   2.379  29.889  0.00  0.00    +0.020 A 
ATOM     34  C   UNL     1       2.265   2.762  29.848  0.00  0.00    +0.111 A 
ENDBRANCH  24  28
ENDBRANCH   7  24
ENDBRANCH  18  20
ENDBRANCH  17  18
ENDBRANCH  11  17
TORSDOF 8
ENDMDL
