MODEL 1
REMARK VINA RESULT:      -4.2      0.000      0.000
REMARK  Name = 56774198
REMARK  8 active torsions:
REMARK  status: ('A' for Active; 'I' for Inactive)
REMARK    1  A    between atoms: O_2  and  C_20
REMARK    2  A    between atoms: O_2  and  C_21
REMARK    3  A    between atoms: N_3  and  C_7
REMARK    4  A    between atoms: C_5  and  C_10
REMARK    5  A    between atoms: C_5  and  C_11
REMARK    6  A    between atoms: C_6  and  C_9
REMARK    7  A    between atoms: C_9  and  C_12
REMARK    8  A    between atoms: C_14  and  C_15
REMARK                            x       y       z     vdW  Elec       q    Type
REMARK                         _______ _______ _______ _____ _____    ______ ____
ROOT
ATOM      1  O   UNL     1      -1.296  -0.793  24.335  0.00  0.00    -0.354 OA
ATOM      4  N   UNL     1      -2.655  -0.726  24.615  0.00  0.00    -0.083 NA
ATOM     12  C   UNL     1      -3.044   0.466  24.151  0.00  0.00    +0.084 A 
ATOM     13  C   UNL     1      -1.984   1.187  23.576  0.00  0.00    +0.076 A 
ATOM     14  C   UNL     1      -0.908   0.352  23.718  0.00  0.00    +0.167 A 
ENDROOT
BRANCH  14  15
ATOM     15  C   UNL     1       0.489   0.429  23.362  0.00  0.00    +0.020 A 
ATOM     16  C   UNL     1       1.280   1.461  23.864  0.00  0.00    +0.015 A 
ATOM     17  C   UNL     1       1.046  -0.530  22.515  0.00  0.00    +0.015 A 
ATOM     18  C   UNL     1       2.630   1.536  23.520  0.00  0.00    +0.046 A 
ATOM     19  C   UNL     1       2.395  -0.456  22.172  0.00  0.00    +0.046 A 
ATOM     20  C   UNL     1       3.188   0.577  22.673  0.00  0.00    +0.120 A 
BRANCH  20   2
ATOM      2  O   UNL     1       4.506   0.648  22.340  0.00  0.00    -0.495 OA
ATOM     21  C   UNL     1       5.442   0.129  23.283  0.00  0.00    +0.277 C 
ENDBRANCH  20   2
ENDBRANCH  14  15
BRANCH  12   9
ATOM      9  C   UNL     1      -4.451   0.880  24.280  0.00  0.00    +0.063 C 
BRANCH   9   6
ATOM      5  C   UNL     1      -4.324   3.281  25.335  0.00  0.00    -0.016 C 
ATOM      6  C   UNL     1      -4.652   1.783  25.504  0.00  0.00    +0.003 C 
ATOM      7  C   UNL     1      -5.557   3.571  26.217  0.00  0.00    +0.057 C 
ATOM      8  C   UNL     1      -6.114   2.209  25.754  0.00  0.00    +0.023 C 
ATOM     10  C   UNL     1      -3.032   3.748  25.984  0.00  0.00    +0.013 C 
ATOM     11  C   UNL     1      -4.361   3.757  23.898  0.00  0.00    +0.013 C 
BRANCH   7   3
ATOM      3  N   UNL     1      -6.377   4.640  25.645  0.00  0.00    -0.327 NA
ATOM     22  H   UNL     1      -6.457   5.458  26.249  0.00  0.00    +0.118 HD
ATOM     23  H   UNL     1      -6.029   4.985  24.752  0.00  0.00    +0.118 HD
ENDBRANCH   7   3
ENDBRANCH   9   6
ENDBRANCH  12   9
TORSDOF 5
ENDMDL
MODEL 2
REMARK VINA RESULT:      -2.2      1.046      1.895
REMARK  Name = 56774198
REMARK  8 active torsions:
REMARK  status: ('A' for Active; 'I' for Inactive)
REMARK    1  A    between atoms: O_2  and  C_20
REMARK    2  A    between atoms: O_2  and  C_21
REMARK    3  A    between atoms: N_3  and  C_7
REMARK    4  A    between atoms: C_5  and  C_10
REMARK    5  A    between atoms: C_5  and  C_11
REMARK    6  A    between atoms: C_6  and  C_9
REMARK    7  A    between atoms: C_9  and  C_12
REMARK    8  A    between atoms: C_14  and  C_15
REMARK                            x       y       z     vdW  Elec       q    Type
REMARK                         _______ _______ _______ _____ _____    ______ ____
ROOT
ATOM      1  O   UNL     1      -1.576  -0.922  24.494  0.00  0.00    -0.354 OA
ATOM      4  N   UNL     1      -2.896  -0.851  24.923  0.00  0.00    -0.083 NA
ATOM     12  C   UNL     1      -3.230   0.437  24.797  0.00  0.00    +0.084 A 
ATOM     13  C   UNL     1      -2.172   1.217  24.299  0.00  0.00    +0.076 A 
ATOM     14  C   UNL     1      -1.156   0.315  24.126  0.00  0.00    +0.167 A 
ENDROOT
BRANCH  14  15
ATOM     15  C   UNL     1       0.205   0.400  23.654  0.00  0.00    +0.020 A 
ATOM     16  C   UNL     1       0.716  -0.591  22.816  0.00  0.00    +0.015 A 
ATOM     17  C   UNL     1       1.008   1.475  24.035  0.00  0.00    +0.015 A 
ATOM     18  C   UNL     1       2.032  -0.508  22.359  0.00  0.00    +0.046 A 
ATOM     19  C   UNL     1       2.323   1.558  23.578  0.00  0.00    +0.046 A 
ATOM     20  C   UNL     1       2.835   0.567  22.741  0.00  0.00    +0.120 A 
BRANCH  20   2
ATOM      2  O   UNL     1       4.118   0.650  22.293  0.00  0.00    -0.495 OA
ATOM     21  C   UNL     1       5.149   0.260  23.199  0.00  0.00    +0.277 C 
ENDBRANCH  20   2
ENDBRANCH  14  15
BRANCH  12   9
ATOM      9  C   UNL     1      -4.583   0.884  25.166  0.00  0.00    +0.063 C 
BRANCH   9   6
ATOM      5  C   UNL     1      -4.738   3.504  25.236  0.00  0.00    -0.016 C 
ATOM      6  C   UNL     1      -4.948   2.192  24.452  0.00  0.00    +0.003 C 
ATOM      7  C   UNL     1      -4.258   4.130  23.910  0.00  0.00    +0.057 C 
ATOM      8  C   UNL     1      -3.881   2.702  23.462  0.00  0.00    +0.023 C 
ATOM     10  C   UNL     1      -6.001   4.167  25.759  0.00  0.00    +0.013 C 
ATOM     11  C   UNL     1      -3.733   3.389  26.363  0.00  0.00    +0.013 C 
BRANCH   7   3
ATOM      3  N   UNL     1      -3.033   4.906  24.104  0.00  0.00    -0.327 NA
ATOM     22  H   UNL     1      -2.563   4.710  24.987  0.00  0.00    +0.118 HD
ATOM     23  H   UNL     1      -2.336   4.755  23.376  0.00  0.00    +0.118 HD
ENDBRANCH   7   3
ENDBRANCH   9   6
ENDBRANCH  12   9
TORSDOF 5
ENDMDL
MODEL 3
REMARK VINA RESULT:      -1.5      1.478      1.713
REMARK  Name = 56774198
REMARK  8 active torsions:
REMARK  status: ('A' for Active; 'I' for Inactive)
REMARK    1  A    between atoms: O_2  and  C_20
REMARK    2  A    between atoms: O_2  and  C_21
REMARK    3  A    between atoms: N_3  and  C_7
REMARK    4  A    between atoms: C_5  and  C_10
REMARK    5  A    between atoms: C_5  and  C_11
REMARK    6  A    between atoms: C_6  and  C_9
REMARK    7  A    between atoms: C_9  and  C_12
REMARK    8  A    between atoms: C_14  and  C_15
REMARK                            x       y       z     vdW  Elec       q    Type
REMARK                         _______ _______ _______ _____ _____    ______ ____
ROOT
ATOM      1  O   UNL     1       0.256   2.371  23.765  0.00  0.00    -0.354 OA
ATOM      4  N   UNL     1      -1.107   2.611  23.893  0.00  0.00    -0.083 NA
ATOM     12  C   UNL     1      -1.687   1.426  23.680  0.00  0.00    +0.084 A 
ATOM     13  C   UNL     1      -0.750   0.412  23.415  0.00  0.00    +0.076 A 
ATOM     14  C   UNL     1       0.455   1.059  23.480  0.00  0.00    +0.167 A 
ENDROOT
BRANCH  14  15
ATOM     15  C   UNL     1       1.831   0.655  23.319  0.00  0.00    +0.020 A 
ATOM     16  C   UNL     1       2.801   1.600  22.984  0.00  0.00    +0.015 A 
ATOM     17  C   UNL     1       2.191  -0.681  23.501  0.00  0.00    +0.015 A 
ATOM     18  C   UNL     1       4.131   1.209  22.828  0.00  0.00    +0.046 A 
ATOM     19  C   UNL     1       3.521  -1.071  23.345  0.00  0.00    +0.046 A 
ATOM     20  C   UNL     1       4.491  -0.127  23.009  0.00  0.00    +0.120 A 
BRANCH  20   2
ATOM      2  O   UNL     1       5.789  -0.508  22.861  0.00  0.00    -0.495 OA
ATOM     21  C   UNL     1       6.675  -0.232  23.945  0.00  0.00    +0.277 C 
ENDBRANCH  20   2
ENDBRANCH  14  15
BRANCH  12   9
ATOM      9  C   UNL     1      -3.153   1.306  23.739  0.00  0.00    +0.063 C 
BRANCH   9   6
ATOM      5  C   UNL     1      -3.925   3.277  25.292  0.00  0.00    -0.016 C 
ATOM      6  C   UNL     1      -3.691   1.764  25.101  0.00  0.00    +0.003 C 
ATOM      7  C   UNL     1      -5.195   2.902  26.084  0.00  0.00    +0.057 C 
ATOM      8  C   UNL     1      -5.212   1.583  25.284  0.00  0.00    +0.023 C 
ATOM     10  C   UNL     1      -2.903   3.997  26.155  0.00  0.00    +0.013 C 
ATOM     11  C   UNL     1      -4.105   4.037  23.994  0.00  0.00    +0.013 C 
BRANCH   7   3
ATOM      3  N   UNL     1      -6.336   3.722  25.673  0.00  0.00    -0.327 NA
ATOM     22  H   UNL     1      -7.237   3.266  25.814  0.00  0.00    +0.118 HD
ATOM     23  H   UNL     1      -6.394   4.614  26.164  0.00  0.00    +0.118 HD
ENDBRANCH   7   3
ENDBRANCH   9   6
ENDBRANCH  12   9
TORSDOF 5
ENDMDL
