MODEL 1
REMARK VINA RESULT:      -2.4      0.000      0.000
REMARK  Name = 45784301
REMARK  6 active torsions:
REMARK  status: ('A' for Active; 'I' for Inactive)
REMARK    1  A    between atoms: O_1  and  C_18
REMARK    2  A    between atoms: O_1  and  C_24
REMARK    3  A    between atoms: N_2  and  C_10
REMARK    4  A    between atoms: C_5  and  C_9
REMARK    5  A    between atoms: C_10  and  C_11
REMARK    6  A    between atoms: C_22  and  C_23
REMARK                            x       y       z     vdW  Elec       q    Type
REMARK                         _______ _______ _______ _____ _____    ______ ____
ROOT
ATOM      2  N   UNL     1      -8.694 -10.004  11.766  0.00  0.00    -0.297 NA
ATOM      5  C   UNL     1      -6.614  -9.132  11.125  0.00  0.00    +0.070 C 
ATOM      6  C   UNL     1      -7.220  -9.928   9.956  0.00  0.00    +0.028 C 
ATOM      7  C   UNL     1      -7.426  -9.565  12.352  0.00  0.00    +0.096 C 
ATOM      8  C   UNL     1      -8.314 -10.781  10.585  0.00  0.00    +0.085 C 
ENDROOT
BRANCH   5   9
ATOM      3  N   UNL     1      -4.225  -8.632  10.538  0.00  0.00    -0.341 N 
ATOM      4  N   UNL     1      -4.530 -10.096  12.181  0.00  0.00    -0.232 NA
ATOM      9  C   UNL     1      -5.124  -9.312  11.311  0.00  0.00    +0.113 A 
ATOM     12  C   UNL     1      -2.966  -9.001  10.937  0.00  0.00    +0.070 A 
ATOM     13  C   UNL     1      -3.184  -9.916  11.964  0.00  0.00    +0.089 A 
ATOM     16  C   UNL     1      -1.695  -8.626  10.502  0.00  0.00    +0.073 A 
ATOM     17  C   UNL     1      -2.079 -10.501  12.605  0.00  0.00    +0.033 A 
ATOM     18  C   UNL     1      -0.607  -9.217  11.152  0.00  0.00    +0.122 A 
ATOM     21  C   UNL     1      -0.793 -10.139  12.185  0.00  0.00    +0.048 A 
ATOM     25  H   UNL     1      -4.444  -7.972   9.803  0.00  0.00    +0.167 HD
BRANCH  18   1
ATOM      1  O   UNL     1       0.659  -8.887  10.768  0.00  0.00    -0.495 OA
ATOM     24  C   UNL     1       1.282  -7.804  11.454  0.00  0.00    +0.277 C 
ENDBRANCH  18   1
ENDBRANCH   5   9
BRANCH   2  10
ATOM     10  C   UNL     1      -9.501 -10.775  12.700  0.00  0.00    +0.119 C 
BRANCH  10  11
ATOM     11  C   UNL     1      -9.731 -10.031  13.989  0.00  0.00    -0.033 A 
ATOM     14  C   UNL     1     -10.508  -8.872  13.996  0.00  0.00    +0.005 A 
ATOM     15  C   UNL     1      -9.164 -10.496  15.174  0.00  0.00    +0.005 A 
ATOM     19  C   UNL     1     -10.718  -8.181  15.188  0.00  0.00    +0.003 A 
ATOM     20  C   UNL     1      -9.374  -9.805  16.367  0.00  0.00    +0.003 A 
ATOM     22  C   UNL     1     -10.151  -8.647  16.374  0.00  0.00    -0.050 A 
ATOM     23  C   UNL     1     -10.375  -7.907  17.650  0.00  0.00    +0.044 C 
ENDBRANCH  10  11
ENDBRANCH   2  10
TORSDOF 4
ENDMDL
MODEL 2
REMARK VINA RESULT:      -1.2     14.178     16.217
REMARK  Name = 45784301
REMARK  6 active torsions:
REMARK  status: ('A' for Active; 'I' for Inactive)
REMARK    1  A    between atoms: O_1  and  C_18
REMARK    2  A    between atoms: O_1  and  C_24
REMARK    3  A    between atoms: N_2  and  C_10
REMARK    4  A    between atoms: C_5  and  C_9
REMARK    5  A    between atoms: C_10  and  C_11
REMARK    6  A    between atoms: C_22  and  C_23
REMARK                            x       y       z     vdW  Elec       q    Type
REMARK                         _______ _______ _______ _____ _____    ______ ____
ROOT
ATOM      2  N   UNL     1      -3.519   2.324  25.290  0.00  0.00    -0.297 NA
ATOM      5  C   UNL     1      -1.252   2.564  24.742  0.00  0.00    +0.070 C 
ATOM      6  C   UNL     1      -2.101   3.457  23.820  0.00  0.00    +0.028 C 
ATOM      7  C   UNL     1      -2.256   1.589  25.370  0.00  0.00    +0.096 C 
ATOM      8  C   UNL     1      -3.521   2.924  23.955  0.00  0.00    +0.085 C 
ENDROOT
BRANCH   5   9
ATOM      3  N   UNL     1       1.199   2.200  24.334  0.00  0.00    -0.341 N 
ATOM      4  N   UNL     1      -0.178   0.902  23.169  0.00  0.00    -0.232 NA
ATOM      9  C   UNL     1      -0.098   1.864  24.060  0.00  0.00    +0.113 A 
ATOM     12  C   UNL     1       2.009   1.400  23.570  0.00  0.00    +0.070 A 
ATOM     13  C   UNL     1       1.126   0.600  22.851  0.00  0.00    +0.089 A 
ATOM     16  C   UNL     1       3.396   1.312  23.449  0.00  0.00    +0.073 A 
ATOM     17  C   UNL     1       1.639  -0.351  21.953  0.00  0.00    +0.033 A 
ATOM     18  C   UNL     1       3.890   0.360  22.551  0.00  0.00    +0.122 A 
ATOM     21  C   UNL     1       3.029  -0.458  21.815  0.00  0.00    +0.048 A 
ATOM     25  H   UNL     1       1.509   2.909  24.985  0.00  0.00    +0.167 HD
BRANCH  18   1
ATOM      1  O   UNL     1       5.238   0.229  22.392  0.00  0.00    -0.495 OA
ATOM     24  C   UNL     1       5.997  -0.098  23.553  0.00  0.00    +0.277 C 
ENDBRANCH  18   1
ENDBRANCH   5   9
BRANCH   2  10
ATOM     10  C   UNL     1      -4.675   1.469  25.516  0.00  0.00    +0.119 C 
BRANCH  10  11
ATOM     11  C   UNL     1      -4.387   0.033  25.168  0.00  0.00    -0.033 A 
ATOM     14  C   UNL     1      -3.717  -0.784  26.079  0.00  0.00    +0.005 A 
ATOM     15  C   UNL     1      -4.785  -0.479  23.933  0.00  0.00    +0.005 A 
ATOM     19  C   UNL     1      -3.447  -2.113  25.755  0.00  0.00    +0.003 A 
ATOM     20  C   UNL     1      -4.515  -1.808  23.609  0.00  0.00    +0.003 A 
ATOM     22  C   UNL     1      -3.845  -2.626  24.520  0.00  0.00    -0.050 A 
ATOM     23  C   UNL     1      -3.556  -4.047  24.174  0.00  0.00    +0.044 C 
ENDBRANCH  10  11
ENDBRANCH   2  10
TORSDOF 4
ENDMDL
MODEL 3
REMARK VINA RESULT:      -0.7     15.443     16.790
REMARK  Name = 45784301
REMARK  6 active torsions:
REMARK  status: ('A' for Active; 'I' for Inactive)
REMARK    1  A    between atoms: O_1  and  C_18
REMARK    2  A    between atoms: O_1  and  C_24
REMARK    3  A    between atoms: N_2  and  C_10
REMARK    4  A    between atoms: C_5  and  C_9
REMARK    5  A    between atoms: C_10  and  C_11
REMARK    6  A    between atoms: C_22  and  C_23
REMARK                            x       y       z     vdW  Elec       q    Type
REMARK                         _______ _______ _______ _____ _____    ______ ____
ROOT
ATOM      2  N   UNL     1      -3.381  -0.458  24.737  0.00  0.00    -0.297 NA
ATOM      5  C   UNL     1      -1.300  -1.112  23.879  0.00  0.00    +0.070 C 
ATOM      6  C   UNL     1      -1.514  -1.760  25.258  0.00  0.00    +0.028 C 
ATOM      7  C   UNL     1      -2.350   0.004  23.807  0.00  0.00    +0.096 C 
ATOM      8  C   UNL     1      -2.644  -0.964  25.896  0.00  0.00    +0.085 C 
ENDROOT
BRANCH   5   9
ATOM      3  N   UNL     1       1.192  -1.418  23.839  0.00  0.00    -0.341 N 
ATOM      4  N   UNL     1       0.452   0.573  23.185  0.00  0.00    -0.232 NA
ATOM      9  C   UNL     1       0.105  -0.617  23.621  0.00  0.00    +0.113 A 
ATOM     12  C   UNL     1       2.314  -0.698  23.519  0.00  0.00    +0.070 A 
ATOM     13  C   UNL     1       1.825   0.542  23.115  0.00  0.00    +0.089 A 
ATOM     16  C   UNL     1       3.673  -1.013  23.550  0.00  0.00    +0.073 A 
ATOM     17  C   UNL     1       2.732   1.538  22.713  0.00  0.00    +0.033 A 
ATOM     18  C   UNL     1       4.560  -0.011  23.146  0.00  0.00    +0.122 A 
ATOM     21  C   UNL     1       4.101   1.243  22.736  0.00  0.00    +0.048 A 
ATOM     25  H   UNL     1       1.175  -2.372  24.173  0.00  0.00    +0.167 HD
BRANCH  18   1
ATOM      1  O   UNL     1       5.900  -0.264  23.155  0.00  0.00    -0.495 OA
ATOM     24  C   UNL     1       6.423  -0.945  24.294  0.00  0.00    +0.277 C 
ENDBRANCH  18   1
ENDBRANCH   5   9
BRANCH   2  10
ATOM     10  C   UNL     1      -4.320   0.596  25.094  0.00  0.00    +0.119 C 
BRANCH  10  11
ATOM     11  C   UNL     1      -3.669   1.953  25.088  0.00  0.00    -0.033 A 
ATOM     14  C   UNL     1      -4.289   3.021  24.440  0.00  0.00    +0.005 A 
ATOM     15  C   UNL     1      -2.443   2.141  25.727  0.00  0.00    +0.005 A 
ATOM     19  C   UNL     1      -3.684   4.277  24.432  0.00  0.00    +0.003 A 
ATOM     20  C   UNL     1      -1.838   3.398  25.718  0.00  0.00    +0.003 A 
ATOM     22  C   UNL     1      -2.458   4.466  25.070  0.00  0.00    -0.050 A 
ATOM     23  C   UNL     1      -1.811   5.810  25.060  0.00  0.00    +0.044 C 
ENDBRANCH  10  11
ENDBRANCH   2  10
TORSDOF 4
ENDMDL
MODEL 4
REMARK VINA RESULT:      -0.3     15.458     18.582
REMARK  Name = 45784301
REMARK  6 active torsions:
REMARK  status: ('A' for Active; 'I' for Inactive)
REMARK    1  A    between atoms: O_1  and  C_18
REMARK    2  A    between atoms: O_1  and  C_24
REMARK    3  A    between atoms: N_2  and  C_10
REMARK    4  A    between atoms: C_5  and  C_9
REMARK    5  A    between atoms: C_10  and  C_11
REMARK    6  A    between atoms: C_22  and  C_23
REMARK                            x       y       z     vdW  Elec       q    Type
REMARK                         _______ _______ _______ _____ _____    ______ ____
ROOT
ATOM      2  N   UNL     1       0.585  -0.659  23.695  0.00  0.00    -0.297 NA
ATOM      5  C   UNL     1      -1.221  -0.232  25.128  0.00  0.00    +0.070 C 
ATOM      6  C   UNL     1      -1.336  -1.660  24.568  0.00  0.00    +0.028 C 
ATOM      7  C   UNL     1      -0.200   0.461  24.217  0.00  0.00    +0.096 C 
ATOM      8  C   UNL     1      -0.402  -1.688  23.365  0.00  0.00    +0.085 C 
ENDROOT
BRANCH   5   9
ATOM      3  N   UNL     1      -2.561   1.863  25.475  0.00  0.00    -0.341 N 
ATOM      4  N   UNL     1      -3.736   0.017  25.090  0.00  0.00    -0.232 NA
ATOM      9  C   UNL     1      -2.530   0.519  25.224  0.00  0.00    +0.113 A 
ATOM     12  C   UNL     1      -3.875   2.254  25.504  0.00  0.00    +0.070 A 
ATOM     13  C   UNL     1      -4.589   1.083  25.261  0.00  0.00    +0.089 A 
ATOM     16  C   UNL     1      -4.483   3.492  25.715  0.00  0.00    +0.073 A 
ATOM     17  C   UNL     1      -5.992   1.132  25.223  0.00  0.00    +0.033 A 
ATOM     18  C   UNL     1      -5.880   3.522  25.674  0.00  0.00    +0.122 A 
ATOM     21  C   UNL     1      -6.624   2.365  25.433  0.00  0.00    +0.048 A 
ATOM     25  H   UNL     1      -1.760   2.465  25.614  0.00  0.00    +0.167 HD
BRANCH  18   1
ATOM      1  O   UNL     1      -6.527   4.706  25.873  0.00  0.00    -0.495 OA
ATOM     24  C   UNL     1      -6.231   5.766  24.967  0.00  0.00    +0.277 C 
ENDBRANCH  18   1
ENDBRANCH   5   9
BRANCH   2  10
ATOM     10  C   UNL     1       1.397  -0.282  22.547  0.00  0.00    +0.119 C 
BRANCH  10  11
ATOM     11  C   UNL     1       2.861  -0.221  22.892  0.00  0.00    -0.033 A 
ATOM     14  C   UNL     1       3.477  -1.309  23.512  0.00  0.00    +0.005 A 
ATOM     15  C   UNL     1       3.601   0.924  22.597  0.00  0.00    +0.005 A 
ATOM     19  C   UNL     1       4.832  -1.251  23.834  0.00  0.00    +0.003 A 
ATOM     20  C   UNL     1       4.956   0.981  22.920  0.00  0.00    +0.003 A 
ATOM     22  C   UNL     1       5.572  -0.107  23.539  0.00  0.00    -0.050 A 
ATOM     23  C   UNL     1       7.021  -0.045  23.885  0.00  0.00    +0.044 C 
ENDBRANCH  10  11
ENDBRANCH   2  10
TORSDOF 4
ENDMDL
MODEL 5
REMARK VINA RESULT:       0.0     15.234     16.636
REMARK  Name = 45784301
REMARK  6 active torsions:
REMARK  status: ('A' for Active; 'I' for Inactive)
REMARK    1  A    between atoms: O_1  and  C_18
REMARK    2  A    between atoms: O_1  and  C_24
REMARK    3  A    between atoms: N_2  and  C_10
REMARK    4  A    between atoms: C_5  and  C_9
REMARK    5  A    between atoms: C_10  and  C_11
REMARK    6  A    between atoms: C_22  and  C_23
REMARK                            x       y       z     vdW  Elec       q    Type
REMARK                         _______ _______ _______ _____ _____    ______ ____
ROOT
ATOM      2  N   UNL     1      -4.771   0.349  24.781  0.00  0.00    -0.297 NA
ATOM      5  C   UNL     1      -2.914  -0.938  24.152  0.00  0.00    +0.070 C 
ATOM      6  C   UNL     1      -3.391  -1.372  25.548  0.00  0.00    +0.028 C 
ATOM      7  C   UNL     1      -3.594   0.417  23.914  0.00  0.00    +0.096 C 
ATOM      8  C   UNL     1      -4.284  -0.237  26.031  0.00  0.00    +0.085 C 
ENDROOT
BRANCH   5   9
ATOM      3  N   UNL     1      -0.808   0.172  23.354  0.00  0.00    -0.341 N 
ATOM      4  N   UNL     1      -0.542  -1.777  24.389  0.00  0.00    -0.232 NA
ATOM      9  C   UNL     1      -1.413  -0.881  23.983  0.00  0.00    +0.113 A 
ATOM     12  C   UNL     1       0.544  -0.060  23.356  0.00  0.00    +0.070 A 
ATOM     13  C   UNL     1       0.684  -1.283  24.007  0.00  0.00    +0.089 A 
ATOM     16  C   UNL     1       1.623   0.672  22.859  0.00  0.00    +0.073 A 
ATOM     17  C   UNL     1       1.969  -1.823  24.181  0.00  0.00    +0.033 A 
ATOM     18  C   UNL     1       2.894   0.120  23.041  0.00  0.00    +0.122 A 
ATOM     21  C   UNL     1       3.067  -1.105  23.689  0.00  0.00    +0.048 A 
ATOM     25  H   UNL     1      -1.270   0.980  22.959  0.00  0.00    +0.167 HD
BRANCH  18   1
ATOM      1  O   UNL     1       3.986   0.792  22.575  0.00  0.00    -0.495 OA
ATOM     24  C   UNL     1       5.239   0.491  23.183  0.00  0.00    +0.277 C 
ENDBRANCH  18   1
ENDBRANCH   5   9
BRANCH   2  10
ATOM     10  C   UNL     1      -5.390   1.651  24.983  0.00  0.00    +0.119 C 
BRANCH  10  11
ATOM     11  C   UNL     1      -4.371   2.759  24.997  0.00  0.00    -0.033 A 
ATOM     14  C   UNL     1      -3.886   3.276  23.795  0.00  0.00    +0.005 A 
ATOM     15  C   UNL     1      -3.908   3.266  26.211  0.00  0.00    +0.005 A 
ATOM     19  C   UNL     1      -2.940   4.300  23.808  0.00  0.00    +0.003 A 
ATOM     20  C   UNL     1      -2.962   4.290  26.224  0.00  0.00    +0.003 A 
ATOM     22  C   UNL     1      -2.477   4.807  25.022  0.00  0.00    -0.050 A 
ATOM     23  C   UNL     1      -1.465   5.902  25.036  0.00  0.00    +0.044 C 
ENDBRANCH  10  11
ENDBRANCH   2  10
TORSDOF 4
ENDMDL
