MODEL 1
REMARK VINA RESULT:      17.0      0.000      0.000
REMARK  Name = 40780459
REMARK  10 active torsions:
REMARK  status: ('A' for Active; 'I' for Inactive)
REMARK    1  A    between atoms: N_3  and  C_9
REMARK    2  A    between atoms: N_4  and  C_17
REMARK    3  A    between atoms: N_6  and  C_28
REMARK    4  A    between atoms: N_6  and  C_31
REMARK    5  A    between atoms: N_6  and  C_32
REMARK    6  A    between atoms: C_7  and  C_10
REMARK    7  A    between atoms: C_13  and  C_15
REMARK    8  A    between atoms: C_14  and  C_16
REMARK    9  A    between atoms: C_18  and  C_20
REMARK   10  A    between atoms: C_19  and  C_23
REMARK                            x       y       z     vdW  Elec       q    Type
REMARK                         _______ _______ _______ _____ _____    ______ ____
ROOT
ATOM      7  C   UNL     1       0.514   0.370  23.757  0.00  0.00    +0.047 C 
ATOM      8  C   UNL     1       1.042  -1.028  24.141  0.00  0.00    +0.039 C 
ATOM      9  C   UNL     1       1.856  -1.514  22.935  0.00  0.00    +0.097 C 
ATOM     11  C   UNL     1       0.582   0.339  22.257  0.00  0.00    -0.021 C 
ATOM     12  C   UNL     1       1.317  -0.687  21.816  0.00  0.00    -0.009 C 
ENDROOT
BRANCH   7  10
ATOM      4  N   UNL     1      -2.716   1.633  24.934  0.00  0.00    -0.236 N 
ATOM      5  N   UNL     1      -2.874   0.365  25.348  0.00  0.00    -0.171 NA
ATOM     10  C   UNL     1      -0.856   0.667  24.321  0.00  0.00    +0.003 A 
ATOM     13  C   UNL     1      -1.524   1.867  24.312  0.00  0.00    +0.046 A 
ATOM     14  C   UNL     1      -1.734  -0.220  24.971  0.00  0.00    +0.064 A 
ATOM     15  C   UNL     1      -1.135   3.185  23.774  0.00  0.00    +0.066 C 
ATOM     16  C   UNL     1      -1.526  -1.651  25.256  0.00  0.00    +0.068 C 
BRANCH   4  17
ATOM      1 CL   UNL     1      -6.952   5.634  25.902  0.00  0.00    -0.084 Cl
ATOM     17  C   UNL     1      -3.729   2.566  25.160  0.00  0.00    +0.069 A 
ATOM     19  C   UNL     1      -5.073   2.195  25.099  0.00  0.00    -0.024 A 
ATOM     21  C   UNL     1      -3.382   3.886  25.450  0.00  0.00    +0.029 A 
ATOM     22  C   UNL     1      -6.069   3.144  25.329  0.00  0.00    +0.025 A 
ATOM     23  C   UNL     1      -5.477   0.790  24.791  0.00  0.00    +0.046 C 
ATOM     24  C   UNL     1      -4.379   4.835  25.679  0.00  0.00    +0.022 A 
ATOM     27  C   UNL     1      -5.722   4.464  25.619  0.00  0.00    +0.041 A 
ENDBRANCH   4  17
ENDBRANCH   7  10
BRANCH   9   3
ATOM      2  O   UNL     1       3.132   1.056  23.066  0.00  0.00    -0.270 OA
ATOM      3  N   UNL     1       3.265  -1.259  23.076  0.00  0.00    -0.305 N 
ATOM     18  C   UNL     1       3.795   0.024  23.131  0.00  0.00    +0.245 C 
ATOM     33  H   UNL     1       3.887  -2.061  23.040  0.00  0.00    +0.150 HD
BRANCH  18  20
ATOM     20  C   UNL     1       5.273   0.117  23.252  0.00  0.00    +0.037 A 
ATOM     25  C   UNL     1       5.847   1.118  24.036  0.00  0.00    +0.015 A 
ATOM     26  C   UNL     1       6.086  -0.797  22.581  0.00  0.00    +0.015 A 
ATOM     28  C   UNL     1       8.047   0.290  23.480  0.00  0.00    +0.029 A 
ATOM     29  C   UNL     1       7.234   1.204  24.150  0.00  0.00    +0.024 A 
ATOM     30  C   UNL     1       7.473  -0.710  22.696  0.00  0.00    +0.024 A 
BRANCH  28   6
ATOM      6  N   UNL     1       9.450   0.377  23.598  0.00  0.00    -0.336 N 
ATOM     31  C   UNL     1      10.310  -0.403  22.730  0.00  0.00    +0.129 C 
ATOM     32  C   UNL     1      10.051   1.255  24.583  0.00  0.00    +0.129 C 
ENDBRANCH  28   6
ENDBRANCH  18  20
ENDBRANCH   9   3
TORSDOF 5
ENDMDL
MODEL 2
REMARK VINA RESULT:      17.4      1.560      2.211
REMARK  Name = 40780459
REMARK  10 active torsions:
REMARK  status: ('A' for Active; 'I' for Inactive)
REMARK    1  A    between atoms: N_3  and  C_9
REMARK    2  A    between atoms: N_4  and  C_17
REMARK    3  A    between atoms: N_6  and  C_28
REMARK    4  A    between atoms: N_6  and  C_31
REMARK    5  A    between atoms: N_6  and  C_32
REMARK    6  A    between atoms: C_7  and  C_10
REMARK    7  A    between atoms: C_13  and  C_15
REMARK    8  A    between atoms: C_14  and  C_16
REMARK    9  A    between atoms: C_18  and  C_20
REMARK   10  A    between atoms: C_19  and  C_23
REMARK                            x       y       z     vdW  Elec       q    Type
REMARK                         _______ _______ _______ _____ _____    ______ ____
ROOT
ATOM      7  C   UNL     1      -1.214  -0.440  24.132  0.00  0.00    +0.047 C 
ATOM      8  C   UNL     1      -0.502  -0.756  25.464  0.00  0.00    +0.039 C 
ATOM      9  C   UNL     1       0.248  -2.074  25.235  0.00  0.00    +0.097 C 
ATOM     11  C   UNL     1      -1.279  -1.788  23.474  0.00  0.00    -0.021 C 
ATOM     12  C   UNL     1      -0.478  -2.673  24.077  0.00  0.00    -0.009 C 
ENDROOT
BRANCH   7  10
ATOM      4  N   UNL     1      -4.147   1.688  24.668  0.00  0.00    -0.236 N 
ATOM      5  N   UNL     1      -4.812   0.542  24.445  0.00  0.00    -0.171 NA
ATOM     10  C   UNL     1      -2.552   0.238  24.316  0.00  0.00    +0.003 A 
ATOM     13  C   UNL     1      -2.790   1.560  24.602  0.00  0.00    +0.046 A 
ATOM     14  C   UNL     1      -3.833  -0.340  24.230  0.00  0.00    +0.064 A 
ATOM     15  C   UNL     1      -1.858   2.686  24.812  0.00  0.00    +0.066 C 
ATOM     16  C   UNL     1      -4.173  -1.745  23.941  0.00  0.00    +0.068 C 
BRANCH   4  17
ATOM      1 CL   UNL     1      -7.104   6.682  25.761  0.00  0.00    -0.084 Cl
ATOM     17  C   UNL     1      -4.857   2.859  24.938  0.00  0.00    +0.069 A 
ATOM     19  C   UNL     1      -5.914   2.864  25.847  0.00  0.00    -0.024 A 
ATOM     21  C   UNL     1      -4.494   4.036  24.282  0.00  0.00    +0.029 A 
ATOM     22  C   UNL     1      -6.609   4.047  26.102  0.00  0.00    +0.025 A 
ATOM     23  C   UNL     1      -6.327   1.620  26.565  0.00  0.00    +0.046 C 
ATOM     24  C   UNL     1      -5.189   5.218  24.537  0.00  0.00    +0.022 A 
ATOM     27  C   UNL     1      -6.247   5.224  25.447  0.00  0.00    +0.041 A 
ENDBRANCH   4  17
ENDBRANCH   7  10
BRANCH   9   3
ATOM      2  O   UNL     1       1.274  -0.154  23.361  0.00  0.00    -0.270 OA
ATOM      3  N   UNL     1       1.627  -1.873  24.877  0.00  0.00    -0.305 N 
ATOM     18  C   UNL     1       2.033  -0.916  23.955  0.00  0.00    +0.245 C 
ATOM     33  H   UNL     1       2.304  -2.530  25.254  0.00  0.00    +0.150 HD
BRANCH  18  20
ATOM     20  C   UNL     1       3.491  -0.853  23.675  0.00  0.00    +0.037 A 
ATOM     25  C   UNL     1       4.046   0.303  23.126  0.00  0.00    +0.015 A 
ATOM     26  C   UNL     1       4.304  -1.950  23.962  0.00  0.00    +0.015 A 
ATOM     28  C   UNL     1       6.228  -0.735  23.152  0.00  0.00    +0.029 A 
ATOM     29  C   UNL     1       5.415   0.362  22.865  0.00  0.00    +0.024 A 
ATOM     30  C   UNL     1       5.672  -1.890  23.701  0.00  0.00    +0.024 A 
BRANCH  28   6
ATOM      6  N   UNL     1       7.612  -0.673  22.889  0.00  0.00    -0.336 N 
ATOM     31  C   UNL     1       8.427   0.370  23.479  0.00  0.00    +0.129 C 
ATOM     32  C   UNL     1       8.240  -1.658  22.030  0.00  0.00    +0.129 C 
ENDBRANCH  28   6
ENDBRANCH  18  20
ENDBRANCH   9   3
TORSDOF 5
ENDMDL
MODEL 3
REMARK VINA RESULT:      19.8      1.167      2.279
REMARK  Name = 40780459
REMARK  10 active torsions:
REMARK  status: ('A' for Active; 'I' for Inactive)
REMARK    1  A    between atoms: N_3  and  C_9
REMARK    2  A    between atoms: N_4  and  C_17
REMARK    3  A    between atoms: N_6  and  C_28
REMARK    4  A    between atoms: N_6  and  C_31
REMARK    5  A    between atoms: N_6  and  C_32
REMARK    6  A    between atoms: C_7  and  C_10
REMARK    7  A    between atoms: C_13  and  C_15
REMARK    8  A    between atoms: C_14  and  C_16
REMARK    9  A    between atoms: C_18  and  C_20
REMARK   10  A    between atoms: C_19  and  C_23
REMARK                            x       y       z     vdW  Elec       q    Type
REMARK                         _______ _______ _______ _____ _____    ______ ____
ROOT
ATOM      7  C   UNL     1       0.743   1.205  23.491  0.00  0.00    +0.047 C 
ATOM      8  C   UNL     1       1.092  -0.041  24.332  0.00  0.00    +0.039 C 
ATOM      9  C   UNL     1       1.779  -1.016  23.368  0.00  0.00    +0.097 C 
ATOM     11  C   UNL     1       0.742   0.660  22.092  0.00  0.00    -0.021 C 
ATOM     12  C   UNL     1       1.311  -0.549  22.031  0.00  0.00    -0.009 C 
ENDROOT
BRANCH   7  10
ATOM      4  N   UNL     1      -2.548   2.280  24.688  0.00  0.00    -0.236 N 
ATOM      5  N   UNL     1      -2.124   3.483  24.266  0.00  0.00    -0.171 NA
ATOM     10  C   UNL     1      -0.549   1.868  23.912  0.00  0.00    +0.003 A 
ATOM     13  C   UNL     1      -1.641   1.278  24.499  0.00  0.00    +0.046 A 
ATOM     14  C   UNL     1      -0.902   3.225  23.793  0.00  0.00    +0.064 A 
ATOM     15  C   UNL     1      -1.890  -0.124  24.887  0.00  0.00    +0.066 C 
ATOM     16  C   UNL     1      -0.096   4.323  23.229  0.00  0.00    +0.068 C 
BRANCH   4  17
ATOM      1 CL   UNL     1      -7.924   1.679  27.058  0.00  0.00    -0.084 Cl
ATOM     17  C   UNL     1      -3.816   2.154  25.257  0.00  0.00    +0.069 A 
ATOM     19  C   UNL     1      -4.321   3.134  26.111  0.00  0.00    -0.024 A 
ATOM     21  C   UNL     1      -4.581   1.026  24.960  0.00  0.00    +0.029 A 
ATOM     22  C   UNL     1      -5.591   2.988  26.668  0.00  0.00    +0.025 A 
ATOM     23  C   UNL     1      -3.525   4.354  26.449  0.00  0.00    +0.046 C 
ATOM     24  C   UNL     1      -5.852   0.879  25.517  0.00  0.00    +0.022 A 
ATOM     27  C   UNL     1      -6.357   1.860  26.371  0.00  0.00    +0.041 A 
ENDBRANCH   4  17
ENDBRANCH   7  10
BRANCH   9   3
ATOM      2  O   UNL     1       3.375   1.350  23.041  0.00  0.00    -0.270 OA
ATOM      3  N   UNL     1       3.215  -0.932  23.423  0.00  0.00    -0.305 N 
ATOM     18  C   UNL     1       3.904   0.262  23.252  0.00  0.00    +0.245 C 
ATOM     33  H   UNL     1       3.728  -1.805  23.498  0.00  0.00    +0.150 HD
BRANCH  18  20
ATOM     20  C   UNL     1       5.387   0.175  23.311  0.00  0.00    +0.037 A 
ATOM     25  C   UNL     1       6.110   1.100  24.066  0.00  0.00    +0.015 A 
ATOM     26  C   UNL     1       6.055  -0.831  22.613  0.00  0.00    +0.015 A 
ATOM     28  C   UNL     1       8.169   0.011  23.423  0.00  0.00    +0.029 A 
ATOM     29  C   UNL     1       7.501   1.018  24.121  0.00  0.00    +0.024 A 
ATOM     30  C   UNL     1       7.446  -0.912  22.670  0.00  0.00    +0.024 A 
BRANCH  28   6
ATOM      6  N   UNL     1       9.576  -0.072  23.482  0.00  0.00    -0.336 N 
ATOM     31  C   UNL     1      10.368   0.022  22.272  0.00  0.00    +0.129 C 
ATOM     32  C   UNL     1      10.248  -0.245  24.755  0.00  0.00    +0.129 C 
ENDBRANCH  28   6
ENDBRANCH  18  20
ENDBRANCH   9   3
TORSDOF 5
ENDMDL
MODEL 4
REMARK VINA RESULT:      19.8      1.539      2.438
REMARK  Name = 40780459
REMARK  10 active torsions:
REMARK  status: ('A' for Active; 'I' for Inactive)
REMARK    1  A    between atoms: N_3  and  C_9
REMARK    2  A    between atoms: N_4  and  C_17
REMARK    3  A    between atoms: N_6  and  C_28
REMARK    4  A    between atoms: N_6  and  C_31
REMARK    5  A    between atoms: N_6  and  C_32
REMARK    6  A    between atoms: C_7  and  C_10
REMARK    7  A    between atoms: C_13  and  C_15
REMARK    8  A    between atoms: C_14  and  C_16
REMARK    9  A    between atoms: C_18  and  C_20
REMARK   10  A    between atoms: C_19  and  C_23
REMARK                            x       y       z     vdW  Elec       q    Type
REMARK                         _______ _______ _______ _____ _____    ______ ____
ROOT
ATOM      7  C   UNL     1       0.220   0.907  22.708  0.00  0.00    +0.047 C 
ATOM      8  C   UNL     1       0.826   0.016  23.812  0.00  0.00    +0.039 C 
ATOM      9  C   UNL     1       1.760  -0.965  23.092  0.00  0.00    +0.097 C 
ATOM     11  C   UNL     1       0.397   0.063  21.478  0.00  0.00    -0.021 C 
ATOM     12  C   UNL     1       1.240  -0.953  21.693  0.00  0.00    -0.009 C 
ENDROOT
BRANCH   7  10
ATOM      4  N   UNL     1      -3.145   1.693  23.924  0.00  0.00    -0.236 N 
ATOM      5  N   UNL     1      -3.300   2.180  22.681  0.00  0.00    -0.171 NA
ATOM     10  C   UNL     1      -1.206   1.320  22.990  0.00  0.00    +0.003 A 
ATOM     13  C   UNL     1      -1.908   1.166  24.159  0.00  0.00    +0.046 A 
ATOM     14  C   UNL     1      -2.112   1.949  22.115  0.00  0.00    +0.064 A 
ATOM     15  C   UNL     1      -1.512   0.577  25.454  0.00  0.00    +0.066 C 
ATOM     16  C   UNL     1      -1.885   2.355  20.716  0.00  0.00    +0.068 C 
BRANCH   4  17
ATOM      1 CL   UNL     1      -7.651   1.902  27.736  0.00  0.00    -0.084 Cl
ATOM     17  C   UNL     1      -4.204   1.759  24.830  0.00  0.00    +0.069 A 
ATOM     19  C   UNL     1      -4.397   2.886  25.628  0.00  0.00    -0.024 A 
ATOM     21  C   UNL     1      -5.077   0.675  24.930  0.00  0.00    +0.029 A 
ATOM     22  C   UNL     1      -5.463   2.931  26.527  0.00  0.00    +0.025 A 
ATOM     23  C   UNL     1      -3.480   4.063  25.544  0.00  0.00    +0.046 C 
ATOM     24  C   UNL     1      -6.143   0.719  25.829  0.00  0.00    +0.022 A 
ATOM     27  C   UNL     1      -6.336   1.847  26.627  0.00  0.00    +0.041 A 
ENDBRANCH   4  17
ENDBRANCH   7  10
BRANCH   9   3
ATOM      2  O   UNL     1       4.006  -2.355  24.221  0.00  0.00    -0.270 OA
ATOM      3  N   UNL     1       3.131  -0.529  23.091  0.00  0.00    -0.305 N 
ATOM     18  C   UNL     1       4.156  -1.271  23.665  0.00  0.00    +0.245 C 
ATOM     33  H   UNL     1       3.321   0.403  22.734  0.00  0.00    +0.150 HD
BRANCH  18  20
ATOM     20  C   UNL     1       5.514  -0.669  23.603  0.00  0.00    +0.037 A 
ATOM     25  C   UNL     1       5.758   0.562  24.213  0.00  0.00    +0.015 A 
ATOM     26  C   UNL     1       6.543  -1.335  22.937  0.00  0.00    +0.015 A 
ATOM     28  C   UNL     1       8.061   0.460  23.489  0.00  0.00    +0.029 A 
ATOM     29  C   UNL     1       7.032   1.127  24.155  0.00  0.00    +0.024 A 
ATOM     30  C   UNL     1       7.816  -0.770  22.881  0.00  0.00    +0.024 A 
BRANCH  28   6
ATOM      6  N   UNL     1       9.350   1.031  23.434  0.00  0.00    -0.336 N 
ATOM     31  C   UNL     1       9.737   2.064  24.375  0.00  0.00    +0.129 C 
ATOM     32  C   UNL     1      10.307   0.588  22.439  0.00  0.00    +0.129 C 
ENDBRANCH  28   6
ENDBRANCH  18  20
ENDBRANCH   9   3
TORSDOF 5
ENDMDL
