MODEL 1
REMARK VINA RESULT:      -3.9      0.000      0.000
REMARK  Name = 71693216
REMARK  12 active torsions:
REMARK  status: ('A' for Active; 'I' for Inactive)
REMARK    1  A    between atoms: O_3  and  C_30
REMARK    2  A    between atoms: N_5  and  C_15
REMARK    3  A    between atoms: C_8  and  C_12
REMARK    4  A    between atoms: C_9  and  C_15
REMARK    5  A    between atoms: C_11  and  C_16
REMARK    6  A    between atoms: C_12  and  C_17
REMARK    7  A    between atoms: C_12  and  C_18
REMARK    8  A    between atoms: C_13  and  C_19
REMARK    9  A    between atoms: C_16  and  C_20
REMARK   10  A    between atoms: C_21  and  C_24
REMARK   11  A    between atoms: C_24  and  C_27
REMARK   12  A    between atoms: C_27  and  C_30
REMARK                            x       y       z     vdW  Elec       q    Type
REMARK                         _______ _______ _______ _____ _____    ______ ____
ROOT
ATOM      8  C   UNL     1      -1.328   0.769  25.406  0.00  0.00    +0.000 C 
ATOM      9  C   UNL     1      -0.051   0.288  24.672  0.00  0.00    +0.032 C 
ATOM     10  C   UNL     1      -1.923  -0.372  26.247  0.00  0.00    +0.012 C 
ATOM     11  C   UNL     1      -2.286  -1.599  25.390  0.00  0.00    +0.022 C 
ATOM     13  C   UNL     1      -1.166  -1.973  24.440  0.00  0.00    -0.073 C 
ATOM     14  C   UNL     1      -0.169  -1.121  24.142  0.00  0.00    -0.022 C 
ATOM     19  C   UNL     1      -1.194  -3.367  23.876  0.00  0.00    +0.039 C 
ENDROOT
BRANCH   8  12
ATOM     12  C   UNL     1      -1.048   1.981  26.300  0.00  0.00    -0.013 C 
ATOM     17  C   UNL     1       0.416   1.998  26.729  0.00  0.00    +0.007 C 
ATOM     18  C   UNL     1      -1.415   3.271  25.577  0.00  0.00    +0.007 C 
ENDBRANCH   8  12
BRANCH   9  15
ATOM     15  C   UNL     1       0.317   1.236  23.525  0.00  0.00    +0.112 C 
BRANCH  15   5
ATOM      2  O   UNL     1       2.280  -0.184  21.943  0.00  0.00    -0.276 OA
ATOM      5  N   UNL     1       1.728   1.465  23.488  0.00  0.00    -0.315 N 
ATOM     21  C   UNL     1       2.610   0.731  22.692  0.00  0.00    +0.214 C 
ATOM     31  H   UNL     1       2.099   2.241  24.029  0.00  0.00    +0.149 HD
BRANCH  21  24
ATOM     24  C   UNL     1       4.046   1.193  22.858  0.00  0.00    +0.107 C 
BRANCH  24  27
ATOM     27  C   UNL     1       5.043   0.043  22.760  0.00  0.00    +0.129 C 
BRANCH  27  30
ATOM      4  O   UNL     1       5.839  -0.593  24.969  0.00  0.00    -0.251 OA
ATOM     30  C   UNL     1       5.084  -0.779  24.026  0.00  0.00    +0.305 C 
BRANCH  30   3
ATOM      3  O   UNL     1       4.161  -1.777  24.000  0.00  0.00    -0.481 OA
ATOM     33  H   UNL     1       4.380  -2.493  24.634  0.00  0.00    +0.295 HD
ENDBRANCH  30   3
ENDBRANCH  27  30
ENDBRANCH  24  27
ENDBRANCH  21  24
ENDBRANCH  15   5
ENDBRANCH   9  15
BRANCH  11  16
ATOM     16  C   UNL     1      -3.598  -1.376  24.631  0.00  0.00    +0.082 C 
BRANCH  16  20
ATOM      1 CL   UNL     1      -6.381   5.642  25.659  0.00  0.00    -0.083 Cl
ATOM      6  N   UNL     1      -4.798   0.670  25.426  0.00  0.00    -0.342 N 
ATOM      7  N   UNL     1      -3.484   0.943  23.654  0.00  0.00    -0.232 NA
ATOM     20  C   UNL     1      -3.937   0.084  24.539  0.00  0.00    +0.109 A 
ATOM     22  C   UNL     1      -4.907   1.995  25.090  0.00  0.00    +0.068 A 
ATOM     23  C   UNL     1      -4.078   2.140  23.981  0.00  0.00    +0.089 A 
ATOM     25  C   UNL     1      -5.637   3.048  25.644  0.00  0.00    +0.047 A 
ATOM     26  C   UNL     1      -3.959   3.403  23.376  0.00  0.00    +0.031 A 
ATOM     28  C   UNL     1      -5.507   4.297  25.028  0.00  0.00    +0.043 A 
ATOM     29  C   UNL     1      -4.682   4.474  23.914  0.00  0.00    +0.022 A 
ATOM     32  H   UNL     1      -5.270   0.211  26.193  0.00  0.00    +0.167 HD
ENDBRANCH  16  20
ENDBRANCH  11  16
TORSDOF 9
ENDMDL
MODEL 2
REMARK VINA RESULT:      -3.4      2.467      4.657
REMARK  Name = 71693216
REMARK  12 active torsions:
REMARK  status: ('A' for Active; 'I' for Inactive)
REMARK    1  A    between atoms: O_3  and  C_30
REMARK    2  A    between atoms: N_5  and  C_15
REMARK    3  A    between atoms: C_8  and  C_12
REMARK    4  A    between atoms: C_9  and  C_15
REMARK    5  A    between atoms: C_11  and  C_16
REMARK    6  A    between atoms: C_12  and  C_17
REMARK    7  A    between atoms: C_12  and  C_18
REMARK    8  A    between atoms: C_13  and  C_19
REMARK    9  A    between atoms: C_16  and  C_20
REMARK   10  A    between atoms: C_21  and  C_24
REMARK   11  A    between atoms: C_24  and  C_27
REMARK   12  A    between atoms: C_27  and  C_30
REMARK                            x       y       z     vdW  Elec       q    Type
REMARK                         _______ _______ _______ _____ _____    ______ ____
ROOT
ATOM      8  C   UNL     1      -2.535   2.437  23.718  0.00  0.00    +0.000 C 
ATOM      9  C   UNL     1      -1.372   2.982  24.586  0.00  0.00    +0.032 C 
ATOM     10  C   UNL     1      -3.682   3.457  23.658  0.00  0.00    +0.012 C 
ATOM     11  C   UNL     1      -4.234   3.798  25.055  0.00  0.00    +0.022 C 
ATOM     13  C   UNL     1      -3.123   4.088  26.044  0.00  0.00    -0.073 C 
ATOM     14  C   UNL     1      -1.848   3.727  25.811  0.00  0.00    -0.022 C 
ATOM     19  C   UNL     1      -3.503   4.843  27.287  0.00  0.00    +0.039 C 
ENDROOT
BRANCH   8  12
ATOM     12  C   UNL     1      -2.072   2.091  22.300  0.00  0.00    -0.013 C 
ATOM     17  C   UNL     1      -2.063   0.580  22.096  0.00  0.00    +0.007 C 
ATOM     18  C   UNL     1      -2.967   2.770  21.269  0.00  0.00    +0.007 C 
ENDBRANCH   8  12
BRANCH   9  15
ATOM     15  C   UNL     1      -0.424   1.855  25.010  0.00  0.00    +0.112 C 
BRANCH  15   5
ATOM      2  O   UNL     1       0.825  -0.236  23.449  0.00  0.00    -0.276 OA
ATOM      5  N   UNL     1       0.810   1.932  24.291  0.00  0.00    -0.315 N 
ATOM     21  C   UNL     1       1.345   0.871  23.558  0.00  0.00    +0.214 C 
ATOM     31  H   UNL     1       1.294   2.825  24.268  0.00  0.00    +0.149 HD
BRANCH  21  24
ATOM     24  C   UNL     1       2.662   1.239  22.901  0.00  0.00    +0.107 C 
BRANCH  24  27
ATOM     27  C   UNL     1       3.534   0.019  22.619  0.00  0.00    +0.129 C 
BRANCH  27  30
ATOM      4  O   UNL     1       5.398   0.790  23.980  0.00  0.00    -0.251 OA
ATOM     30  C   UNL     1       4.660  -0.115  23.617  0.00  0.00    +0.305 C 
BRANCH  30   3
ATOM      3  O   UNL     1       4.763  -1.389  24.081  0.00  0.00    -0.481 OA
ATOM     33  H   UNL     1       5.698  -1.655  24.210  0.00  0.00    +0.295 HD
ENDBRANCH  30   3
ENDBRANCH  27  30
ENDBRANCH  24  27
ENDBRANCH  21  24
ENDBRANCH  15   5
ENDBRANCH   9  15
BRANCH  11  16
ATOM     16  C   UNL     1      -5.153   2.686  25.572  0.00  0.00    +0.082 C 
BRANCH  16  20
ATOM      1 CL   UNL     1      -0.968  -3.659  25.060  0.00  0.00    -0.083 Cl
ATOM      6  N   UNL     1      -3.412   0.902  25.769  0.00  0.00    -0.342 N 
ATOM      7  N   UNL     1      -5.156   0.417  24.481  0.00  0.00    -0.232 NA
ATOM     20  C   UNL     1      -4.604   1.326  25.251  0.00  0.00    +0.109 A 
ATOM     22  C   UNL     1      -3.180  -0.366  25.302  0.00  0.00    +0.068 A 
ATOM     23  C   UNL     1      -4.283  -0.646  24.500  0.00  0.00    +0.089 A 
ATOM     25  C   UNL     1      -2.132  -1.266  25.505  0.00  0.00    +0.047 A 
ATOM     26  C   UNL     1      -4.361  -1.892  23.854  0.00  0.00    +0.031 A 
ATOM     28  C   UNL     1      -2.227  -2.500  24.854  0.00  0.00    +0.043 A 
ATOM     29  C   UNL     1      -3.321  -2.810  24.043  0.00  0.00    +0.022 A 
ATOM     32  H   UNL     1      -2.808   1.427  26.388  0.00  0.00    +0.167 HD
ENDBRANCH  16  20
ENDBRANCH  11  16
TORSDOF 9
ENDMDL
MODEL 3
REMARK VINA RESULT:      -2.3      4.048      7.908
REMARK  Name = 71693216
REMARK  12 active torsions:
REMARK  status: ('A' for Active; 'I' for Inactive)
REMARK    1  A    between atoms: O_3  and  C_30
REMARK    2  A    between atoms: N_5  and  C_15
REMARK    3  A    between atoms: C_8  and  C_12
REMARK    4  A    between atoms: C_9  and  C_15
REMARK    5  A    between atoms: C_11  and  C_16
REMARK    6  A    between atoms: C_12  and  C_17
REMARK    7  A    between atoms: C_12  and  C_18
REMARK    8  A    between atoms: C_13  and  C_19
REMARK    9  A    between atoms: C_16  and  C_20
REMARK   10  A    between atoms: C_21  and  C_24
REMARK   11  A    between atoms: C_24  and  C_27
REMARK   12  A    between atoms: C_27  and  C_30
REMARK                            x       y       z     vdW  Elec       q    Type
REMARK                         _______ _______ _______ _____ _____    ______ ____
ROOT
ATOM      8  C   UNL     1      -3.284  -1.361  24.344  0.00  0.00    +0.000 C 
ATOM      9  C   UNL     1      -3.827  -0.233  25.257  0.00  0.00    +0.032 C 
ATOM     10  C   UNL     1      -1.872  -1.776  24.787  0.00  0.00    +0.012 C 
ATOM     11  C   UNL     1      -0.880  -0.599  24.752  0.00  0.00    +0.022 C 
ATOM     13  C   UNL     1      -1.455   0.643  25.403  0.00  0.00    -0.073 C 
ATOM     14  C   UNL     1      -2.773   0.782  25.633  0.00  0.00    -0.022 C 
ATOM     19  C   UNL     1      -0.475   1.701  25.827  0.00  0.00    +0.039 C 
ENDROOT
BRANCH   8  12
ATOM     12  C   UNL     1      -4.207  -2.583  24.339  0.00  0.00    -0.013 C 
ATOM     17  C   UNL     1      -4.665  -2.898  22.918  0.00  0.00    +0.007 C 
ATOM     18  C   UNL     1      -3.502  -3.784  24.958  0.00  0.00    +0.007 C 
ENDBRANCH   8  12
BRANCH   9  15
ATOM     15  C   UNL     1      -5.015   0.482  24.605  0.00  0.00    +0.112 C 
BRANCH  15   5
ATOM      2  O   UNL     1      -6.128   2.437  26.425  0.00  0.00    -0.276 OA
ATOM      5  N   UNL     1      -4.808   1.897  24.587  0.00  0.00    -0.315 N 
ATOM     21  C   UNL     1      -5.385   2.774  25.508  0.00  0.00    +0.214 C 
ATOM     31  H   UNL     1      -4.162   2.276  23.901  0.00  0.00    +0.149 HD
BRANCH  21  24
ATOM     24  C   UNL     1      -4.991   4.216  25.246  0.00  0.00    +0.107 C 
BRANCH  24  27
ATOM     27  C   UNL     1      -3.668   4.331  24.495  0.00  0.00    +0.129 C 
BRANCH  27  30
ATOM      4  O   UNL     1      -1.433   5.069  25.114  0.00  0.00    -0.251 OA
ATOM     30  C   UNL     1      -2.507   4.577  25.430  0.00  0.00    +0.305 C 
BRANCH  30   3
ATOM      3  O   UNL     1      -2.798   4.179  26.697  0.00  0.00    -0.481 OA
ATOM     33  H   UNL     1      -3.706   3.815  26.765  0.00  0.00    +0.295 HD
ENDBRANCH  30   3
ENDBRANCH  27  30
ENDBRANCH  24  27
ENDBRANCH  21  24
ENDBRANCH  15   5
ENDBRANCH   9  15
BRANCH  11  16
ATOM     16  C   UNL     1      -0.422  -0.305  23.320  0.00  0.00    +0.082 C 
BRANCH  16  20
ATOM      1 CL   UNL     1       7.160  -0.962  23.682  0.00  0.00    -0.083 Cl
ATOM      6  N   UNL     1       1.938  -1.060  23.660  0.00  0.00    -0.342 N 
ATOM      7  N   UNL     1       1.686   0.980  22.816  0.00  0.00    -0.232 NA
ATOM     20  C   UNL     1       1.063  -0.093  23.251  0.00  0.00    +0.109 A 
ATOM     22  C   UNL     1       3.209  -0.580  23.477  0.00  0.00    +0.068 A 
ATOM     23  C   UNL     1       3.025   0.694  22.949  0.00  0.00    +0.089 A 
ATOM     25  C   UNL     1       4.467  -1.134  23.720  0.00  0.00    +0.047 A 
ATOM     26  C   UNL     1       4.150   1.477  22.641  0.00  0.00    +0.031 A 
ATOM     28  C   UNL     1       5.576  -0.341  23.408  0.00  0.00    +0.043 A 
ATOM     29  C   UNL     1       5.423   0.942  22.876  0.00  0.00    +0.022 A 
ATOM     32  H   UNL     1       1.694  -1.969  24.031  0.00  0.00    +0.167 HD
ENDBRANCH  16  20
ENDBRANCH  11  16
TORSDOF 9
ENDMDL
MODEL 4
REMARK VINA RESULT:      -2.0      3.245      6.439
REMARK  Name = 71693216
REMARK  12 active torsions:
REMARK  status: ('A' for Active; 'I' for Inactive)
REMARK    1  A    between atoms: O_3  and  C_30
REMARK    2  A    between atoms: N_5  and  C_15
REMARK    3  A    between atoms: C_8  and  C_12
REMARK    4  A    between atoms: C_9  and  C_15
REMARK    5  A    between atoms: C_11  and  C_16
REMARK    6  A    between atoms: C_12  and  C_17
REMARK    7  A    between atoms: C_12  and  C_18
REMARK    8  A    between atoms: C_13  and  C_19
REMARK    9  A    between atoms: C_16  and  C_20
REMARK   10  A    between atoms: C_21  and  C_24
REMARK   11  A    between atoms: C_24  and  C_27
REMARK   12  A    between atoms: C_27  and  C_30
REMARK                            x       y       z     vdW  Elec       q    Type
REMARK                         _______ _______ _______ _____ _____    ______ ____
ROOT
ATOM      8  C   UNL     1      -4.170   1.998  25.329  0.00  0.00    +0.000 C 
ATOM      9  C   UNL     1      -4.132   2.241  23.799  0.00  0.00    +0.032 C 
ATOM     10  C   UNL     1      -3.857   3.299  26.085  0.00  0.00    +0.012 C 
ATOM     11  C   UNL     1      -2.476   3.871  25.716  0.00  0.00    +0.022 C 
ATOM     13  C   UNL     1      -2.257   3.891  24.216  0.00  0.00    -0.073 C 
ATOM     14  C   UNL     1      -3.016   3.167  23.375  0.00  0.00    -0.022 C 
ATOM     19  C   UNL     1      -1.176   4.800  23.702  0.00  0.00    +0.039 C 
ENDROOT
BRANCH   8  12
ATOM     12  C   UNL     1      -5.524   1.446  25.784  0.00  0.00    -0.013 C 
ATOM     17  C   UNL     1      -5.979   2.140  27.064  0.00  0.00    +0.007 C 
ATOM     18  C   UNL     1      -6.564   1.612  24.681  0.00  0.00    +0.007 C 
ENDBRANCH   8  12
BRANCH   9  15
ATOM     15  C   UNL     1      -4.017   0.918  23.033  0.00  0.00    +0.112 C 
BRANCH  15   5
ATOM      2  O   UNL     1      -5.110  -1.710  23.550  0.00  0.00    -0.276 OA
ATOM      5  N   UNL     1      -3.458  -0.103  23.863  0.00  0.00    -0.315 N 
ATOM     21  C   UNL     1      -4.053  -1.351  24.060  0.00  0.00    +0.214 C 
ATOM     31  H   UNL     1      -2.552   0.071  24.288  0.00  0.00    +0.149 HD
BRANCH  21  24
ATOM     24  C   UNL     1      -3.238  -2.230  24.990  0.00  0.00    +0.107 C 
BRANCH  24  27
ATOM     27  C   UNL     1      -1.804  -2.421  24.504  0.00  0.00    +0.129 C 
BRANCH  27  30
ATOM      4  O   UNL     1       0.337  -2.432  25.661  0.00  0.00    -0.251 OA
ATOM     30  C   UNL     1      -0.794  -1.984  25.539  0.00  0.00    +0.305 C 
BRANCH  30   3
ATOM      3  O   UNL     1      -1.297  -1.009  26.342  0.00  0.00    -0.481 OA
ATOM     33  H   UNL     1      -1.844  -1.379  27.067  0.00  0.00    +0.295 HD
ENDBRANCH  30   3
ENDBRANCH  27  30
ENDBRANCH  24  27
ENDBRANCH  21  24
ENDBRANCH  15   5
ENDBRANCH   9  15
BRANCH  11  16
ATOM     16  C   UNL     1      -1.353   3.104  26.423  0.00  0.00    +0.082 C 
BRANCH  16  20
ATOM      1 CL   UNL     1       4.132   0.243  21.977  0.00  0.00    -0.083 Cl
ATOM      6  N   UNL     1       0.773   2.605  25.204  0.00  0.00    -0.342 N 
ATOM      7  N   UNL     1      -0.944   1.269  24.748  0.00  0.00    -0.232 NA
ATOM     20  C   UNL     1      -0.538   2.303  25.450  0.00  0.00    +0.109 A 
ATOM     22  C   UNL     1       1.244   1.706  24.283  0.00  0.00    +0.068 A 
ATOM     23  C   UNL     1       0.154   0.883  24.013  0.00  0.00    +0.089 A 
ATOM     25  C   UNL     1       2.492   1.547  23.678  0.00  0.00    +0.047 A 
ATOM     26  C   UNL     1       0.299  -0.165  23.089  0.00  0.00    +0.031 A 
ATOM     28  C   UNL     1       2.619   0.499  22.761  0.00  0.00    +0.043 A 
ATOM     29  C   UNL     1       1.543  -0.344  22.471  0.00  0.00    +0.022 A 
ATOM     32  H   UNL     1       1.302   3.356  25.627  0.00  0.00    +0.167 HD
ENDBRANCH  16  20
ENDBRANCH  11  16
TORSDOF 9
ENDMDL
MODEL 5
REMARK VINA RESULT:      -0.4      2.431      4.350
REMARK  Name = 71693216
REMARK  12 active torsions:
REMARK  status: ('A' for Active; 'I' for Inactive)
REMARK    1  A    between atoms: O_3  and  C_30
REMARK    2  A    between atoms: N_5  and  C_15
REMARK    3  A    between atoms: C_8  and  C_12
REMARK    4  A    between atoms: C_9  and  C_15
REMARK    5  A    between atoms: C_11  and  C_16
REMARK    6  A    between atoms: C_12  and  C_17
REMARK    7  A    between atoms: C_12  and  C_18
REMARK    8  A    between atoms: C_13  and  C_19
REMARK    9  A    between atoms: C_16  and  C_20
REMARK   10  A    between atoms: C_21  and  C_24
REMARK   11  A    between atoms: C_24  and  C_27
REMARK   12  A    between atoms: C_27  and  C_30
REMARK                            x       y       z     vdW  Elec       q    Type
REMARK                         _______ _______ _______ _____ _____    ______ ____
ROOT
ATOM      8  C   UNL     1      -1.941   2.430  23.389  0.00  0.00    +0.000 C 
ATOM      9  C   UNL     1      -0.442   2.041  23.420  0.00  0.00    +0.032 C 
ATOM     10  C   UNL     1      -2.183   3.698  24.223  0.00  0.00    +0.012 C 
ATOM     11  C   UNL     1      -1.756   3.519  25.692  0.00  0.00    +0.022 C 
ATOM     13  C   UNL     1      -0.384   2.886  25.807  0.00  0.00    -0.073 C 
ATOM     14  C   UNL     1       0.193   2.241  24.777  0.00  0.00    -0.022 C 
ATOM     19  C   UNL     1       0.330   3.051  27.120  0.00  0.00    +0.039 C 
ENDROOT
BRANCH   8  12
ATOM     12  C   UNL     1      -2.442   2.647  21.958  0.00  0.00    -0.013 C 
ATOM     17  C   UNL     1      -2.537   1.316  21.220  0.00  0.00    +0.007 C 
ATOM     18  C   UNL     1      -3.792   3.356  21.969  0.00  0.00    +0.007 C 
ENDBRANCH   8  12
BRANCH   9  15
ATOM     15  C   UNL     1      -0.237   0.590  22.971  0.00  0.00    +0.112 C 
BRANCH  15   5
ATOM      2  O   UNL     1       1.655  -0.388  21.013  0.00  0.00    -0.276 OA
ATOM      5  N   UNL     1       1.110   0.171  23.204  0.00  0.00    -0.315 N 
ATOM     21  C   UNL     1       1.961  -0.290  22.198  0.00  0.00    +0.214 C 
ATOM     31  H   UNL     1       1.483   0.267  24.144  0.00  0.00    +0.149 HD
BRANCH  21  24
ATOM     24  C   UNL     1       3.329  -0.664  22.736  0.00  0.00    +0.107 C 
BRANCH  24  27
ATOM     27  C   UNL     1       4.259   0.540  22.856  0.00  0.00    +0.129 C 
BRANCH  27  30
ATOM      4  O   UNL     1       6.517  -0.276  23.252  0.00  0.00    -0.251 OA
ATOM     30  C   UNL     1       5.487   0.226  23.678  0.00  0.00    +0.305 C 
BRANCH  30   3
ATOM      3  O   UNL     1       5.314   0.574  24.981  0.00  0.00    -0.481 OA
ATOM     33  H   UNL     1       5.773   1.414  25.198  0.00  0.00    +0.295 HD
ENDBRANCH  30   3
ENDBRANCH  27  30
ENDBRANCH  24  27
ENDBRANCH  21  24
ENDBRANCH  15   5
ENDBRANCH   9  15
BRANCH  11  16
ATOM     16  C   UNL     1      -2.798   2.716  26.477  0.00  0.00    +0.082 C 
BRANCH  16  20
ATOM      1 CL   UNL     1      -5.112  -3.620  22.935  0.00  0.00    -0.083 Cl
ATOM      6  N   UNL     1      -4.011   0.985  25.140  0.00  0.00    -0.342 N 
ATOM      7  N   UNL     1      -2.131   0.314  26.118  0.00  0.00    -0.232 NA
ATOM     20  C   UNL     1      -2.948   1.326  25.929  0.00  0.00    +0.109 A 
ATOM     22  C   UNL     1      -3.871  -0.335  24.797  0.00  0.00    +0.068 A 
ATOM     23  C   UNL     1      -2.691  -0.731  25.420  0.00  0.00    +0.089 A 
ATOM     25  C   UNL     1      -4.652  -1.192  24.020  0.00  0.00    +0.047 A 
ATOM     26  C   UNL     1      -2.248  -2.056  25.269  0.00  0.00    +0.031 A 
ATOM     28  C   UNL     1      -4.197  -2.507  23.881  0.00  0.00    +0.043 A 
ATOM     29  C   UNL     1      -3.016  -2.934  24.494  0.00  0.00    +0.022 A 
ATOM     32  H   UNL     1      -4.766   1.595  24.858  0.00  0.00    +0.167 HD
ENDBRANCH  16  20
ENDBRANCH  11  16
TORSDOF 9
ENDMDL
