MODEL 1
REMARK VINA RESULT:       3.1      0.000      0.000
REMARK  Name = 28963166
REMARK  9 active torsions:
REMARK  status: ('A' for Active; 'I' for Inactive)
REMARK    1  A    between atoms: O_2  and  C_11
REMARK    2  A    between atoms: N_5  and  C_15
REMARK    3  A    between atoms: N_6  and  C_23
REMARK    4  A    between atoms: N_7  and  C_27
REMARK    5  A    between atoms: C_8  and  C_18
REMARK    6  A    between atoms: C_10  and  C_20
REMARK    7  A    between atoms: C_13  and  C_19
REMARK    8  A    between atoms: C_19  and  C_21
REMARK    9  A    between atoms: C_19  and  C_22
REMARK                            x       y       z     vdW  Elec       q    Type
REMARK                         _______ _______ _______ _____ _____    ______ ____
ROOT
ATOM      8  C   UNL     1      -3.651  -0.468  25.112  0.00  0.00    -0.027 C 
ATOM      9  C   UNL     1      -3.272   0.687  24.125  0.00  0.00    +0.028 C 
ATOM     10  C   UNL     1      -1.787   0.539  23.635  0.00  0.00    +0.012 C 
ATOM     11  C   UNL     1      -3.646   2.077  24.715  0.00  0.00    +0.122 C 
ATOM     12  C   UNL     1      -5.148  -0.357  25.485  0.00  0.00    +0.007 C 
ATOM     13  C   UNL     1      -5.118   2.149  25.183  0.00  0.00    +0.029 C 
ATOM     14  C   UNL     1      -3.443  -1.825  24.402  0.00  0.00    +0.009 C 
ATOM     15  C   UNL     1      -1.569  -0.859  22.990  0.00  0.00    +0.078 C 
ATOM     16  C   UNL     1      -5.509   0.989  26.100  0.00  0.00    +0.007 C 
ATOM     17  C   UNL     1      -2.025  -2.016  23.880  0.00  0.00    +0.023 C 
ATOM     18  C   UNL     1      -2.809  -0.437  26.412  0.00  0.00    +0.011 C 
ATOM     20  C   UNL     1      -1.356   1.628  22.637  0.00  0.00    +0.010 C 
ENDROOT
BRANCH  15   5
ATOM      4  O   UNL     1       0.721   0.385  24.179  0.00  0.00    -0.253 OA
ATOM      5  N   UNL     1      -0.184  -1.075  22.632  0.00  0.00    -0.296 N 
ATOM      7  N   UNL     1       2.094  -0.828  22.711  0.00  0.00    -0.269 N 
ATOM     26  C   UNL     1       0.877  -0.423  23.267  0.00  0.00    +0.304 C 
ATOM     33  H   UNL     1       0.020  -1.665  21.831  0.00  0.00    +0.151 HD
ATOM     36  H   UNL     1       2.047  -1.509  21.958  0.00  0.00    +0.156 HD
BRANCH   7  27
ATOM      1  F   UNL     1       6.288  -1.629  24.907  0.00  0.00    -0.205 F 
ATOM     27  C   UNL     1       3.394  -0.406  23.070  0.00  0.00    +0.037 A 
ATOM     28  C   UNL     1       4.216  -1.242  23.826  0.00  0.00    +0.061 A 
ATOM     29  C   UNL     1       3.856   0.848  22.671  0.00  0.00    +0.023 A 
ATOM     30  C   UNL     1       5.499  -0.826  24.180  0.00  0.00    +0.125 A 
ATOM     31  C   UNL     1       5.139   1.265  23.025  0.00  0.00    +0.005 A 
ATOM     32  C   UNL     1       5.960   0.428  23.780  0.00  0.00    +0.038 A 
ENDBRANCH   7  27
ENDBRANCH  15   5
BRANCH  11   2
ATOM      2  O   UNL     1      -3.488   3.080  23.710  0.00  0.00    -0.391 OA
ATOM     34  H   UNL     1      -2.612   2.964  23.303  0.00  0.00    +0.210 HD
ENDBRANCH  11   2
BRANCH  13  19
ATOM     19  C   UNL     1      -5.430   3.479  25.879  0.00  0.00    +0.077 C 
ATOM     21  C   UNL     1      -6.124   4.429  24.909  0.00  0.00    +0.017 C 
BRANCH  19  22
ATOM      3  O   UNL     1      -3.946   4.262  27.631  0.00  0.00    -0.276 OA
ATOM      6  N   UNL     1      -3.286   4.506  25.423  0.00  0.00    -0.312 N 
ATOM     22  C   UNL     1      -4.158   4.116  26.430  0.00  0.00    +0.216 C 
ATOM     35  H   UNL     1      -3.535   4.354  24.449  0.00  0.00    +0.149 HD
BRANCH   6  23
ATOM     23  C   UNL     1      -2.025   5.134  25.696  0.00  0.00    +0.073 C 
ATOM     24  C   UNL     1      -1.166   5.664  24.586  0.00  0.00    +0.024 C 
ATOM     25  C   UNL     1      -0.730   4.454  25.360  0.00  0.00    +0.024 C 
ENDBRANCH   6  23
ENDBRANCH  19  22
ENDBRANCH  13  19
TORSDOF 6
ENDMDL
MODEL 2
REMARK VINA RESULT:       3.7     14.208     17.358
REMARK  Name = 28963166
REMARK  9 active torsions:
REMARK  status: ('A' for Active; 'I' for Inactive)
REMARK    1  A    between atoms: O_2  and  C_11
REMARK    2  A    between atoms: N_5  and  C_15
REMARK    3  A    between atoms: N_6  and  C_23
REMARK    4  A    between atoms: N_7  and  C_27
REMARK    5  A    between atoms: C_8  and  C_18
REMARK    6  A    between atoms: C_10  and  C_20
REMARK    7  A    between atoms: C_13  and  C_19
REMARK    8  A    between atoms: C_19  and  C_21
REMARK    9  A    between atoms: C_19  and  C_22
REMARK                            x       y       z     vdW  Elec       q    Type
REMARK                         _______ _______ _______ _____ _____    ______ ____
ROOT
ATOM      8  C   UNL     1      -3.925  -9.797  11.411  0.00  0.00    -0.027 C 
ATOM      9  C   UNL     1      -2.844 -10.131  12.494  0.00  0.00    +0.028 C 
ATOM     10  C   UNL     1      -3.422  -9.928  13.940  0.00  0.00    +0.012 C 
ATOM     11  C   UNL     1      -1.505  -9.395  12.199  0.00  0.00    +0.122 C 
ATOM     12  C   UNL     1      -3.362 -10.116  10.005  0.00  0.00    +0.007 C 
ATOM     13  C   UNL     1      -1.000  -9.633  10.757  0.00  0.00    +0.029 C 
ATOM     14  C   UNL     1      -5.160 -10.699  11.637  0.00  0.00    +0.009 C 
ATOM     15  C   UNL     1      -4.707 -10.781  14.132  0.00  0.00    +0.078 C 
ATOM     16  C   UNL     1      -2.071  -9.366   9.698  0.00  0.00    +0.007 C 
ATOM     17  C   UNL     1      -5.750 -10.565  13.035  0.00  0.00    +0.023 C 
ATOM     18  C   UNL     1      -4.362  -8.312  11.448  0.00  0.00    +0.011 C 
ATOM     20  C   UNL     1      -2.419 -10.267  15.057  0.00  0.00    +0.010 C 
ENDROOT
BRANCH  15   5
ATOM      4  O   UNL     1      -7.444 -10.073  14.594  0.00  0.00    -0.253 OA
ATOM      5  N   UNL     1      -5.332 -10.531  15.414  0.00  0.00    -0.296 N 
ATOM      7  N   UNL     1      -6.997 -10.008  16.899  0.00  0.00    -0.269 N 
ATOM     26  C   UNL     1      -6.679 -10.189  15.549  0.00  0.00    +0.304 C 
ATOM     33  H   UNL     1      -4.745 -10.526  16.242  0.00  0.00    +0.151 HD
ATOM     36  H   UNL     1      -6.244 -10.144  17.567  0.00  0.00    +0.156 HD
BRANCH   7  27
ATOM      1  F   UNL     1     -10.664  -6.939  17.335  0.00  0.00    -0.205 F 
ATOM     27  C   UNL     1      -8.249  -9.658  17.455  0.00  0.00    +0.037 A 
ATOM     28  C   UNL     1      -8.851  -8.448  17.114  0.00  0.00    +0.061 A 
ATOM     29  C   UNL     1      -8.882 -10.524  18.348  0.00  0.00    +0.023 A 
ATOM     30  C   UNL     1     -10.086  -8.103  17.663  0.00  0.00    +0.125 A 
ATOM     31  C   UNL     1     -10.117 -10.179  18.898  0.00  0.00    +0.005 A 
ATOM     32  C   UNL     1     -10.718  -8.969  18.556  0.00  0.00    +0.038 A 
ENDBRANCH   7  27
ENDBRANCH  15   5
BRANCH  11   2
ATOM      2  O   UNL     1      -0.489  -9.887  13.074  0.00  0.00    -0.391 OA
ATOM     34  H   UNL     1       0.057 -10.520  12.577  0.00  0.00    +0.210 HD
ENDBRANCH  11   2
BRANCH  13  19
ATOM     19  C   UNL     1       0.247  -8.798  10.445  0.00  0.00    +0.077 C 
ATOM     21  C   UNL     1       1.424  -9.712  10.125  0.00  0.00    +0.017 C 
BRANCH  19  22
ATOM      3  O   UNL     1      -0.240  -7.504  12.439  0.00  0.00    -0.276 OA
ATOM      6  N   UNL     1       1.929  -7.515  11.622  0.00  0.00    -0.312 N 
ATOM     22  C   UNL     1       0.589  -7.877  11.612  0.00  0.00    +0.216 C 
ATOM     35  H   UNL     1       2.554  -7.863  10.899  0.00  0.00    +0.149 HD
BRANCH   6  23
ATOM     23  C   UNL     1       2.486  -6.650  12.622  0.00  0.00    +0.073 C 
ATOM     24  C   UNL     1       2.951  -5.265  12.277  0.00  0.00    +0.024 C 
ATOM     25  C   UNL     1       3.951  -6.324  12.639  0.00  0.00    +0.024 C 
ENDBRANCH   6  23
ENDBRANCH  19  22
ENDBRANCH  13  19
TORSDOF 6
ENDMDL
