MODEL 1
REMARK VINA RESULT:       6.5      0.000      0.000
REMARK  Name = 11911767
REMARK  7 active torsions:
REMARK  status: ('A' for Active; 'I' for Inactive)
REMARK    1  A    between atoms: N_5  and  C_12
REMARK    2  A    between atoms: N_6  and  C_13
REMARK    3  A    between atoms: N_9  and  C_26
REMARK    4  A    between atoms: N_9  and  C_29
REMARK    5  A    between atoms: N_9  and  C_30
REMARK    6  A    between atoms: C_16  and  C_18
REMARK    7  A    between atoms: C_21  and  C_27
REMARK                            x       y       z     vdW  Elec       q    Type
REMARK                         _______ _______ _______ _____ _____    ______ ____
ROOT
ATOM      1  O   UNL     1      -2.705  -1.179  26.137  0.00  0.00    -0.370 OA
ATOM      2  O   UNL     1      -4.081  -1.143  23.337  0.00  0.00    -0.370 OA
ATOM     10  C   UNL     1      -2.777  -0.750  23.798  0.00  0.00    +0.171 C 
ATOM     11  C   UNL     1      -2.951  -0.139  25.175  0.00  0.00    +0.171 C 
ATOM     12  C   UNL     1      -1.918  -1.970  24.043  0.00  0.00    +0.130 C 
ATOM     13  C   UNL     1      -4.403   0.278  25.214  0.00  0.00    +0.130 C 
ATOM     14  C   UNL     1      -2.327  -2.379  25.447  0.00  0.00    +0.185 C 
ATOM     15  C   UNL     1      -5.065  -0.737  24.300  0.00  0.00    +0.185 C 
ENDROOT
BRANCH  13   6
ATOM      6  N   UNL     1      -4.549   1.610  24.670  0.00  0.00    -0.306 N 
ATOM      7  N   UNL     1      -2.512   2.327  25.588  0.00  0.00    -0.211 NA
ATOM      8  N   UNL     1      -3.878   3.826  24.287  0.00  0.00    -0.223 NA
ATOM     17  C   UNL     1      -3.619   2.617  24.854  0.00  0.00    +0.216 A 
ATOM     21  C   UNL     1      -1.625   3.332  25.747  0.00  0.00    +0.111 A 
ATOM     22  C   UNL     1      -2.950   4.785  24.486  0.00  0.00    +0.116 A 
ATOM     23  C   UNL     1      -1.793   4.593  25.213  0.00  0.00    +0.051 A 
ATOM     34  H   UNL     1      -5.344   1.823  24.078  0.00  0.00    +0.149 HD
BRANCH  21  27
ATOM      4  O   UNL     1      -0.694   2.809  27.853  0.00  0.00    -0.461 OA
ATOM     27  C   UNL     1      -0.466   2.995  26.528  0.00  0.00    +0.153 A 
ATOM     28  C   UNL     1       0.863   2.812  26.232  0.00  0.00    +0.051 A 
ATOM     31  C   UNL     1       1.496   2.493  27.457  0.00  0.00    +0.042 A 
ATOM     32  C   UNL     1       0.506   2.504  28.413  0.00  0.00    +0.196 A 
ENDBRANCH  21  27
ENDBRANCH  13   6
BRANCH  12   5
ATOM      3  O   UNL     1      -0.759   0.400  22.909  0.00  0.00    -0.270 OA
ATOM      5  N   UNL     1      -0.515  -1.641  23.981  0.00  0.00    -0.304 N 
ATOM     16  C   UNL     1      -0.048  -0.466  23.410  0.00  0.00    +0.244 C 
ATOM     33  H   UNL     1       0.138  -2.363  24.272  0.00  0.00    +0.149 HD
BRANCH  16  18
ATOM     18  C   UNL     1       1.427  -0.289  23.402  0.00  0.00    +0.037 A 
ATOM     19  C   UNL     1       1.947   0.955  23.111  0.00  0.00    +0.015 A 
ATOM     20  C   UNL     1       2.230  -1.374  23.687  0.00  0.00    +0.015 A 
ATOM     24  C   UNL     1       3.333   1.123  23.104  0.00  0.00    +0.024 A 
ATOM     25  C   UNL     1       3.615  -1.206  23.681  0.00  0.00    +0.024 A 
ATOM     26  C   UNL     1       4.166   0.041  23.389  0.00  0.00    +0.029 A 
BRANCH  26   9
ATOM      9  N   UNL     1       5.566   0.210  23.385  0.00  0.00    -0.336 N 
ATOM     29  C   UNL     1       6.403  -0.623  22.544  0.00  0.00    +0.129 C 
ATOM     30  C   UNL     1       6.188   1.210  24.230  0.00  0.00    +0.129 C 
ENDBRANCH  26   9
ENDBRANCH  16  18
ENDBRANCH  12   5
TORSDOF 5
ENDMDL
MODEL 2
REMARK VINA RESULT:       8.0      1.776      2.235
REMARK  Name = 11911767
REMARK  7 active torsions:
REMARK  status: ('A' for Active; 'I' for Inactive)
REMARK    1  A    between atoms: N_5  and  C_12
REMARK    2  A    between atoms: N_6  and  C_13
REMARK    3  A    between atoms: N_9  and  C_26
REMARK    4  A    between atoms: N_9  and  C_29
REMARK    5  A    between atoms: N_9  and  C_30
REMARK    6  A    between atoms: C_16  and  C_18
REMARK    7  A    between atoms: C_21  and  C_27
REMARK                            x       y       z     vdW  Elec       q    Type
REMARK                         _______ _______ _______ _____ _____    ______ ____
ROOT
ATOM      1  O   UNL     1      -4.279  -0.123  26.244  0.00  0.00    -0.370 OA
ATOM      2  O   UNL     1      -5.893   1.009  23.825  0.00  0.00    -0.370 OA
ATOM     10  C   UNL     1      -4.497   1.017  24.167  0.00  0.00    +0.171 C 
ATOM     11  C   UNL     1      -4.401   1.190  25.670  0.00  0.00    +0.171 C 
ATOM     12  C   UNL     1      -3.886  -0.342  23.914  0.00  0.00    +0.130 C 
ATOM     13  C   UNL     1      -5.724   1.809  26.056  0.00  0.00    +0.130 C 
ATOM     14  C   UNL     1      -4.227  -1.094  25.188  0.00  0.00    +0.185 C 
ATOM     15  C   UNL     1      -6.670   1.253  25.007  0.00  0.00    +0.185 C 
ENDROOT
BRANCH  13   6
ATOM      6  N   UNL     1      -5.647   3.249  25.947  0.00  0.00    -0.306 N 
ATOM      7  N   UNL     1      -3.318   3.212  25.661  0.00  0.00    -0.211 NA
ATOM      8  N   UNL     1      -4.531   5.294  25.664  0.00  0.00    -0.223 NA
ATOM     17  C   UNL     1      -4.464   3.939  25.751  0.00  0.00    +0.216 A 
ATOM     21  C   UNL     1      -2.183   3.917  25.470  0.00  0.00    +0.111 A 
ATOM     22  C   UNL     1      -3.359   5.935  25.474  0.00  0.00    +0.116 A 
ATOM     23  C   UNL     1      -2.143   5.292  25.367  0.00  0.00    +0.051 A 
ATOM     34  H   UNL     1      -6.500   3.797  25.960  0.00  0.00    +0.149 HD
BRANCH  21  27
ATOM      4  O   UNL     1      -0.369   3.143  24.171  0.00  0.00    -0.461 OA
ATOM     27  C   UNL     1      -0.988   3.122  25.379  0.00  0.00    +0.153 A 
ATOM     28  C   UNL     1      -0.307   2.319  26.262  0.00  0.00    +0.051 A 
ATOM     31  C   UNL     1       0.806   1.812  25.549  0.00  0.00    +0.042 A 
ATOM     32  C   UNL     1       0.723   2.342  24.283  0.00  0.00    +0.196 A 
ENDBRANCH  21  27
ENDBRANCH  13   6
BRANCH  12   5
ATOM      3  O   UNL     1      -1.982  -2.479  24.143  0.00  0.00    -0.270 OA
ATOM      5  N   UNL     1      -2.459  -0.248  23.727  0.00  0.00    -0.304 N 
ATOM     16  C   UNL     1      -1.615  -1.342  23.860  0.00  0.00    +0.244 C 
ATOM     33  H   UNL     1      -2.074   0.684  23.605  0.00  0.00    +0.149 HD
BRANCH  16  18
ATOM     18  C   UNL     1      -0.168  -1.073  23.661  0.00  0.00    +0.037 A 
ATOM     19  C   UNL     1       0.224  -0.294  22.593  0.00  0.00    +0.015 A 
ATOM     20  C   UNL     1       0.739  -1.611  24.551  0.00  0.00    +0.015 A 
ATOM     24  C   UNL     1       1.583  -0.039  22.406  0.00  0.00    +0.024 A 
ATOM     25  C   UNL     1       2.097  -1.356  24.365  0.00  0.00    +0.024 A 
ATOM     26  C   UNL     1       2.520  -0.571  23.292  0.00  0.00    +0.029 A 
BRANCH  26   9
ATOM      9  N   UNL     1       3.893  -0.313  23.105  0.00  0.00    -0.336 N 
ATOM     29  C   UNL     1       4.891  -1.158  23.732  0.00  0.00    +0.129 C 
ATOM     30  C   UNL     1       4.326   0.808  22.295  0.00  0.00    +0.129 C 
ENDBRANCH  26   9
ENDBRANCH  16  18
ENDBRANCH  12   5
TORSDOF 5
ENDMDL
