MODEL 1
REMARK VINA RESULT:      -7.1      0.000      0.000
REMARK  Name = 75536547
REMARK  7 active torsions:
REMARK  status: ('A' for Active; 'I' for Inactive)
REMARK    1  A    between atoms: O_2  and  C_12
REMARK    2  A    between atoms: N_4  and  C_15
REMARK    3  A    between atoms: N_5  and  C_13
REMARK    4  A    between atoms: N_5  and  C_17
REMARK    5  A    between atoms: C_8  and  C_16
REMARK    6  A    between atoms: C_11  and  C_15
REMARK    7  A    between atoms: C_17  and  C_18
REMARK                            x       y       z     vdW  Elec       q    Type
REMARK                         _______ _______ _______ _____ _____    ______ ____
ROOT
ATOM      1  O   UNL     1      -4.286   3.688  26.175  0.00  0.00    -0.371 OA
ATOM     11  C   UNL     1      -4.471   2.969  24.945  0.00  0.00    +0.165 C 
ATOM     12  C   UNL     1      -3.073   2.678  24.415  0.00  0.00    +0.164 C 
ATOM     13  C   UNL     1      -2.330   3.927  24.850  0.00  0.00    +0.111 C 
ATOM     14  C   UNL     1      -2.932   4.172  26.224  0.00  0.00    +0.181 C 
ENDROOT
BRANCH  12   2
ATOM      2  O   UNL     1      -3.068   2.501  23.011  0.00  0.00    -0.388 OA
ATOM     23  H   UNL     1      -3.590   3.217  22.611  0.00  0.00    +0.210 HD
ENDBRANCH  12   2
BRANCH  13   5
ATOM      5  N   UNL     1      -0.886   3.762  24.887  0.00  0.00    -0.304 NA
ATOM     22  H   UNL     1      -0.459   4.638  25.191  0.00  0.00    +0.123 HD
BRANCH   5  17
ATOM     17  C   UNL     1      -0.502   2.702  25.812  0.00  0.00    +0.136 C 
BRANCH  17  18
ATOM      6  N   UNL     1      -0.620   0.187  25.683  0.00  0.00    -0.347 N 
ATOM      7  N   UNL     1       0.158  -0.295  23.660  0.00  0.00    -0.244 NA
ATOM     18  C   UNL     1      -0.308   1.386  25.108  0.00  0.00    +0.049 A 
ATOM     19  C   UNL     1       0.169   1.064  23.859  0.00  0.00    +0.134 A 
ATOM     20  C   UNL     1      -0.323  -0.793  24.776  0.00  0.00    +0.196 A 
ATOM     24  H   UNL     1      -1.001   0.045  26.610  0.00  0.00    +0.167 HD
ENDBRANCH  17  18
ENDBRANCH   5  17
ENDBRANCH  13   5
BRANCH  11  15
ATOM     15  C   UNL     1      -5.289   1.715  25.201  0.00  0.00    +0.138 C 
BRANCH  15   4
ATOM      3  O   UNL     1      -3.733  -0.569  26.101  0.00  0.00    -0.276 OA
ATOM      4  N   UNL     1      -4.816   0.615  24.412  0.00  0.00    -0.313 N 
ATOM     16  C   UNL     1      -4.076  -0.438  24.931  0.00  0.00    +0.216 C 
ATOM     21  H   UNL     1      -5.043   0.614  23.421  0.00  0.00    +0.149 HD
BRANCH  16   8
ATOM      8  C   UNL     1      -3.692  -1.475  23.929  0.00  0.00    +0.075 C 
ATOM      9  C   UNL     1      -4.574  -2.667  23.766  0.00  0.00    +0.013 C 
ATOM     10  C   UNL     1      -3.233  -2.806  24.421  0.00  0.00    +0.013 C 
ENDBRANCH  16   8
ENDBRANCH  15   4
ENDBRANCH  11  15
TORSDOF 7
ENDMDL
MODEL 2
REMARK VINA RESULT:      -6.5      1.829      4.064
REMARK  Name = 75536547
REMARK  7 active torsions:
REMARK  status: ('A' for Active; 'I' for Inactive)
REMARK    1  A    between atoms: O_2  and  C_12
REMARK    2  A    between atoms: N_4  and  C_15
REMARK    3  A    between atoms: N_5  and  C_13
REMARK    4  A    between atoms: N_5  and  C_17
REMARK    5  A    between atoms: C_8  and  C_16
REMARK    6  A    between atoms: C_11  and  C_15
REMARK    7  A    between atoms: C_17  and  C_18
REMARK                            x       y       z     vdW  Elec       q    Type
REMARK                         _______ _______ _______ _____ _____    ______ ____
ROOT
ATOM      1  O   UNL     1      -0.984   1.314  23.009  0.00  0.00    -0.371 OA
ATOM     11  C   UNL     1      -0.060   0.995  24.062  0.00  0.00    +0.165 C 
ATOM     12  C   UNL     1      -0.506   1.806  25.272  0.00  0.00    +0.164 C 
ATOM     13  C   UNL     1      -1.010   3.073  24.605  0.00  0.00    +0.111 C 
ATOM     14  C   UNL     1      -1.697   2.510  23.371  0.00  0.00    +0.181 C 
ENDROOT
BRANCH  12   2
ATOM      2  O   UNL     1       0.562   2.049  26.167  0.00  0.00    -0.388 OA
ATOM     23  H   UNL     1       0.716   3.008  26.207  0.00  0.00    +0.210 HD
ENDBRANCH  12   2
BRANCH  13   5
ATOM      5  N   UNL     1      -1.903   3.856  25.442  0.00  0.00    -0.304 NA
ATOM     22  H   UNL     1      -1.435   4.723  25.707  0.00  0.00    +0.123 HD
BRANCH   5  17
ATOM     17  C   UNL     1      -3.136   4.181  24.734  0.00  0.00    +0.136 C 
BRANCH  17  18
ATOM      6  N   UNL     1      -5.139   3.471  26.091  0.00  0.00    -0.347 N 
ATOM      7  N   UNL     1      -5.729   1.518  25.214  0.00  0.00    -0.244 NA
ATOM     18  C   UNL     1      -4.250   3.230  25.082  0.00  0.00    +0.049 A 
ATOM     19  C   UNL     1      -4.634   2.019  24.555  0.00  0.00    +0.134 A 
ATOM     20  C   UNL     1      -6.008   2.416  26.132  0.00  0.00    +0.196 A 
ATOM     24  H   UNL     1      -5.156   4.281  26.698  0.00  0.00    +0.167 HD
ENDBRANCH  17  18
ENDBRANCH   5  17
ENDBRANCH  13   5
BRANCH  11  15
ATOM     15  C   UNL     1      -0.061  -0.503  24.311  0.00  0.00    +0.138 C 
BRANCH  15   4
ATOM      3  O   UNL     1      -1.776  -0.947  26.616  0.00  0.00    -0.276 OA
ATOM      4  N   UNL     1      -1.395  -1.029  24.319  0.00  0.00    -0.313 N 
ATOM     16  C   UNL     1      -2.142  -1.207  25.475  0.00  0.00    +0.216 C 
ATOM     21  H   UNL     1      -1.807  -1.281  23.425  0.00  0.00    +0.149 HD
BRANCH  16   8
ATOM      8  C   UNL     1      -3.506  -1.767  25.248  0.00  0.00    +0.075 C 
ATOM      9  C   UNL     1      -3.652  -2.938  24.335  0.00  0.00    +0.013 C 
ATOM     10  C   UNL     1      -4.137  -1.586  23.908  0.00  0.00    +0.013 C 
ENDBRANCH  16   8
ENDBRANCH  15   4
ENDBRANCH  11  15
TORSDOF 7
ENDMDL
MODEL 3
REMARK VINA RESULT:      -5.4      3.084      6.371
REMARK  Name = 75536547
REMARK  7 active torsions:
REMARK  status: ('A' for Active; 'I' for Inactive)
REMARK    1  A    between atoms: O_2  and  C_12
REMARK    2  A    between atoms: N_4  and  C_15
REMARK    3  A    between atoms: N_5  and  C_13
REMARK    4  A    between atoms: N_5  and  C_17
REMARK    5  A    between atoms: C_8  and  C_16
REMARK    6  A    between atoms: C_11  and  C_15
REMARK    7  A    between atoms: C_17  and  C_18
REMARK                            x       y       z     vdW  Elec       q    Type
REMARK                         _______ _______ _______ _____ _____    ______ ____
ROOT
ATOM      1  O   UNL     1       0.058   0.864  24.948  0.00  0.00    -0.371 OA
ATOM     11  C   UNL     1       0.153  -0.370  24.218  0.00  0.00    +0.165 C 
ATOM     12  C   UNL     1      -1.262  -0.932  24.156  0.00  0.00    +0.164 C 
ATOM     13  C   UNL     1      -1.807  -0.498  25.504  0.00  0.00    +0.111 C 
ATOM     14  C   UNL     1      -1.203   0.891  25.640  0.00  0.00    +0.181 C 
ENDROOT
BRANCH  12   2
ATOM      2  O   UNL     1      -1.265  -2.336  23.993  0.00  0.00    -0.388 OA
ATOM     23  H   UNL     1      -0.571  -2.712  24.561  0.00  0.00    +0.210 HD
ENDBRANCH  12   2
BRANCH  13   5
ATOM      5  N   UNL     1      -3.259  -0.492  25.571  0.00  0.00    -0.304 NA
ATOM     22  H   UNL     1      -3.550  -0.027  26.432  0.00  0.00    +0.123 HD
BRANCH   5  17
ATOM     17  C   UNL     1      -3.834   0.217  24.433  0.00  0.00    +0.136 C 
BRANCH  17  18
ATOM      6  N   UNL     1      -3.811   2.733  24.593  0.00  0.00    -0.347 N 
ATOM      7  N   UNL     1      -5.710   3.232  25.630  0.00  0.00    -0.244 NA
ATOM     18  C   UNL     1      -4.429   1.539  24.838  0.00  0.00    +0.049 A 
ATOM     19  C   UNL     1      -5.599   1.872  25.478  0.00  0.00    +0.134 A 
ATOM     20  C   UNL     1      -4.619   3.720  25.086  0.00  0.00    +0.196 A 
ATOM     24  H   UNL     1      -2.921   2.866  24.131  0.00  0.00    +0.167 HD
ENDBRANCH  17  18
ENDBRANCH   5  17
ENDBRANCH  13   5
BRANCH  11  15
ATOM     15  C   UNL     1       0.755  -0.111  22.847  0.00  0.00    +0.138 C 
BRANCH  15   4
ATOM      3  O   UNL     1       2.982   1.743  23.078  0.00  0.00    -0.276 OA
ATOM      4  N   UNL     1       2.156  -0.421  22.827  0.00  0.00    -0.313 N 
ATOM     16  C   UNL     1       3.154   0.536  22.945  0.00  0.00    +0.216 C 
ATOM     21  H   UNL     1       2.421  -1.396  22.723  0.00  0.00    +0.149 HD
BRANCH  16   8
ATOM      8  C   UNL     1       4.541  -0.011  22.900  0.00  0.00    +0.075 C 
ATOM      9  C   UNL     1       4.981  -0.925  23.994  0.00  0.00    +0.013 C 
ATOM     10  C   UNL     1       5.529   0.467  23.910  0.00  0.00    +0.013 C 
ENDBRANCH  16   8
ENDBRANCH  15   4
ENDBRANCH  11  15
TORSDOF 7
ENDMDL
MODEL 4
REMARK VINA RESULT:      -5.3      1.837      5.605
REMARK  Name = 75536547
REMARK  7 active torsions:
REMARK  status: ('A' for Active; 'I' for Inactive)
REMARK    1  A    between atoms: O_2  and  C_12
REMARK    2  A    between atoms: N_4  and  C_15
REMARK    3  A    between atoms: N_5  and  C_13
REMARK    4  A    between atoms: N_5  and  C_17
REMARK    5  A    between atoms: C_8  and  C_16
REMARK    6  A    between atoms: C_11  and  C_15
REMARK    7  A    between atoms: C_17  and  C_18
REMARK                            x       y       z     vdW  Elec       q    Type
REMARK                         _______ _______ _______ _____ _____    ______ ____
ROOT
ATOM      1  O   UNL     1      -2.101  -2.442  24.802  0.00  0.00    -0.371 OA
ATOM     11  C   UNL     1      -1.462  -1.281  24.248  0.00  0.00    +0.165 C 
ATOM     12  C   UNL     1      -2.529  -0.194  24.207  0.00  0.00    +0.164 C 
ATOM     13  C   UNL     1      -3.768  -1.013  23.896  0.00  0.00    +0.111 C 
ATOM     14  C   UNL     1      -3.526  -2.255  24.739  0.00  0.00    +0.181 C 
ENDROOT
BRANCH  12   2
ATOM      2  O   UNL     1      -2.254   0.776  23.215  0.00  0.00    -0.388 OA
ATOM     23  H   UNL     1      -1.670   0.376  22.548  0.00  0.00    +0.210 HD
ENDBRANCH  12   2
BRANCH  13   5
ATOM      5  N   UNL     1      -5.011  -0.337  24.229  0.00  0.00    -0.304 NA
ATOM     22  H   UNL     1      -5.752  -1.033  24.329  0.00  0.00    +0.123 HD
BRANCH   5  17
ATOM     17  C   UNL     1      -4.888   0.405  25.479  0.00  0.00    +0.136 C 
BRANCH  17  18
ATOM      6  N   UNL     1      -4.359   2.493  24.168  0.00  0.00    -0.347 N 
ATOM      7  N   UNL     1      -5.259   4.133  25.365  0.00  0.00    -0.244 NA
ATOM     18  C   UNL     1      -4.930   1.893  25.254  0.00  0.00    +0.049 A 
ATOM     19  C   UNL     1      -5.480   2.925  25.979  0.00  0.00    +0.134 A 
ATOM     20  C   UNL     1      -4.582   3.838  24.278  0.00  0.00    +0.196 A 
ATOM     24  H   UNL     1      -3.862   2.031  23.417  0.00  0.00    +0.167 HD
ENDBRANCH  17  18
ENDBRANCH   5  17
ENDBRANCH  13   5
BRANCH  11  15
ATOM     15  C   UNL     1      -0.256  -0.906  25.092  0.00  0.00    +0.138 C 
BRANCH  15   4
ATOM      3  O   UNL     1       0.761   1.573  23.964  0.00  0.00    -0.276 OA
ATOM      4  N   UNL     1      -0.387   0.417  25.630  0.00  0.00    -0.313 N 
ATOM     16  C   UNL     1       0.134   1.548  25.017  0.00  0.00    +0.216 C 
ATOM     21  H   UNL     1      -0.892   0.522  26.505  0.00  0.00    +0.149 HD
BRANCH  16   8
ATOM      8  C   UNL     1      -0.123   2.821  25.752  0.00  0.00    +0.075 C 
ATOM      9  C   UNL     1      -1.531   3.170  26.100  0.00  0.00    +0.013 C 
ATOM     10  C   UNL     1      -0.807   3.934  25.033  0.00  0.00    +0.013 C 
ENDBRANCH  16   8
ENDBRANCH  15   4
ENDBRANCH  11  15
TORSDOF 7
ENDMDL
MODEL 5
REMARK VINA RESULT:      -5.2      1.806      4.399
REMARK  Name = 75536547
REMARK  7 active torsions:
REMARK  status: ('A' for Active; 'I' for Inactive)
REMARK    1  A    between atoms: O_2  and  C_12
REMARK    2  A    between atoms: N_4  and  C_15
REMARK    3  A    between atoms: N_5  and  C_13
REMARK    4  A    between atoms: N_5  and  C_17
REMARK    5  A    between atoms: C_8  and  C_16
REMARK    6  A    between atoms: C_11  and  C_15
REMARK    7  A    between atoms: C_17  and  C_18
REMARK                            x       y       z     vdW  Elec       q    Type
REMARK                         _______ _______ _______ _____ _____    ______ ____
ROOT
ATOM      1  O   UNL     1      -1.240  -1.747  23.525  0.00  0.00    -0.371 OA
ATOM     11  C   UNL     1      -1.638  -1.836  24.902  0.00  0.00    +0.165 C 
ATOM     12  C   UNL     1      -1.228  -0.517  25.545  0.00  0.00    +0.164 C 
ATOM     13  C   UNL     1       0.056  -0.214  24.795  0.00  0.00    +0.111 C 
ATOM     14  C   UNL     1      -0.305  -0.662  23.387  0.00  0.00    +0.181 C 
ENDROOT
BRANCH  12   2
ATOM      2  O   UNL     1      -1.027  -0.650  26.938  0.00  0.00    -0.388 OA
ATOM     23  H   UNL     1      -1.545  -1.411  27.251  0.00  0.00    +0.210 HD
ENDBRANCH  12   2
BRANCH  13   5
ATOM      5  N   UNL     1       0.453   1.183  24.859  0.00  0.00    -0.304 NA
ATOM     22  H   UNL     1       1.447   1.256  24.639  0.00  0.00    +0.123 HD
BRANCH   5  17
ATOM     17  C   UNL     1      -0.304   1.988  23.907  0.00  0.00    +0.136 C 
BRANCH  17  18
ATOM      6  N   UNL     1      -1.878   3.112  25.525  0.00  0.00    -0.347 N 
ATOM      7  N   UNL     1      -1.514   5.282  25.224  0.00  0.00    -0.244 NA
ATOM     18  C   UNL     1      -0.916   3.199  24.559  0.00  0.00    +0.049 A 
ATOM     19  C   UNL     1      -0.707   4.548  24.390  0.00  0.00    +0.134 A 
ATOM     20  C   UNL     1      -2.206   4.388  25.893  0.00  0.00    +0.196 A 
ATOM     24  H   UNL     1      -2.277   2.262  25.902  0.00  0.00    +0.167 HD
ENDBRANCH  17  18
ENDBRANCH   5  17
ENDBRANCH  13   5
BRANCH  11  15
ATOM     15  C   UNL     1      -3.130  -2.107  24.990  0.00  0.00    +0.138 C 
BRANCH  15   4
ATOM      3  O   UNL     1      -3.876   0.274  23.498  0.00  0.00    -0.276 OA
ATOM      4  N   UNL     1      -3.841  -0.960  25.474  0.00  0.00    -0.313 N 
ATOM     16  C   UNL     1      -4.155   0.137  24.684  0.00  0.00    +0.216 C 
ATOM     21  H   UNL     1      -4.127  -0.960  26.449  0.00  0.00    +0.149 HD
BRANCH  16   8
ATOM      8  C   UNL     1      -4.900   1.216  25.395  0.00  0.00    +0.075 C 
ATOM      9  C   UNL     1      -6.287   1.537  24.947  0.00  0.00    +0.013 C 
ATOM     10  C   UNL     1      -5.167   2.494  24.673  0.00  0.00    +0.013 C 
ENDBRANCH  16   8
ENDBRANCH  15   4
ENDBRANCH  11  15
TORSDOF 7
ENDMDL
MODEL 6
REMARK VINA RESULT:      -4.9      3.129      5.853
REMARK  Name = 75536547
REMARK  7 active torsions:
REMARK  status: ('A' for Active; 'I' for Inactive)
REMARK    1  A    between atoms: O_2  and  C_12
REMARK    2  A    between atoms: N_4  and  C_15
REMARK    3  A    between atoms: N_5  and  C_13
REMARK    4  A    between atoms: N_5  and  C_17
REMARK    5  A    between atoms: C_8  and  C_16
REMARK    6  A    between atoms: C_11  and  C_15
REMARK    7  A    between atoms: C_17  and  C_18
REMARK                            x       y       z     vdW  Elec       q    Type
REMARK                         _______ _______ _______ _____ _____    ______ ____
ROOT
ATOM      1  O   UNL     1      -0.368   2.962  23.796  0.00  0.00    -0.371 OA
ATOM     11  C   UNL     1       0.174   1.766  24.378  0.00  0.00    +0.165 C 
ATOM     12  C   UNL     1      -1.014   0.998  24.943  0.00  0.00    +0.164 C 
ATOM     13  C   UNL     1      -1.902   2.137  25.410  0.00  0.00    +0.111 C 
ATOM     14  C   UNL     1      -1.704   3.150  24.294  0.00  0.00    +0.181 C 
ENDROOT
BRANCH  12   2
ATOM      2  O   UNL     1      -0.632   0.136  25.997  0.00  0.00    -0.388 OA
ATOM     23  H   UNL     1       0.339   0.106  26.031  0.00  0.00    +0.210 HD
ENDBRANCH  12   2
BRANCH  13   5
ATOM      5  N   UNL     1      -3.293   1.755  25.588  0.00  0.00    -0.304 NA
ATOM     22  H   UNL     1      -3.847   2.593  25.769  0.00  0.00    +0.123 HD
BRANCH   5  17
ATOM     17  C   UNL     1      -3.812   1.092  24.398  0.00  0.00    +0.136 C 
BRANCH  17  18
ATOM      6  N   UNL     1      -3.415  -1.038  25.686  0.00  0.00    -0.347 N 
ATOM      7  N   UNL     1      -3.889  -2.651  24.235  0.00  0.00    -0.244 NA
ATOM     18  C   UNL     1      -3.780  -0.407  24.531  0.00  0.00    +0.049 A 
ATOM     19  C   UNL     1      -4.068  -1.422  23.650  0.00  0.00    +0.134 A 
ATOM     20  C   UNL     1      -3.496  -2.385  25.460  0.00  0.00    +0.196 A 
ATOM     24  H   UNL     1      -3.136  -0.595  26.552  0.00  0.00    +0.167 HD
ENDBRANCH  17  18
ENDBRANCH   5  17
ENDBRANCH  13   5
BRANCH  11  15
ATOM     15  C   UNL     1       0.947   0.987  23.327  0.00  0.00    +0.138 C 
BRANCH  15   4
ATOM      3  O   UNL     1       3.065   0.029  21.582  0.00  0.00    -0.276 OA
ATOM      4  N   UNL     1       2.362   1.116  23.519  0.00  0.00    -0.313 N 
ATOM     16  C   UNL     1       3.304   0.624  22.626  0.00  0.00    +0.216 C 
ATOM     21  H   UNL     1       2.682   1.596  24.355  0.00  0.00    +0.149 HD
BRANCH  16   8
ATOM      8  C   UNL     1       4.720   0.873  23.026  0.00  0.00    +0.075 C 
ATOM      9  C   UNL     1       5.658  -0.286  23.078  0.00  0.00    +0.013 C 
ATOM     10  C   UNL     1       5.189   0.361  24.346  0.00  0.00    +0.013 C 
ENDBRANCH  16   8
ENDBRANCH  15   4
ENDBRANCH  11  15
TORSDOF 7
ENDMDL
MODEL 7
REMARK VINA RESULT:      -4.8      2.640      4.723
REMARK  Name = 75536547
REMARK  7 active torsions:
REMARK  status: ('A' for Active; 'I' for Inactive)
REMARK    1  A    between atoms: O_2  and  C_12
REMARK    2  A    between atoms: N_4  and  C_15
REMARK    3  A    between atoms: N_5  and  C_13
REMARK    4  A    between atoms: N_5  and  C_17
REMARK    5  A    between atoms: C_8  and  C_16
REMARK    6  A    between atoms: C_11  and  C_15
REMARK    7  A    between atoms: C_17  and  C_18
REMARK                            x       y       z     vdW  Elec       q    Type
REMARK                         _______ _______ _______ _____ _____    ______ ____
ROOT
ATOM      1  O   UNL     1      -2.481   0.980  23.409  0.00  0.00    -0.371 OA
ATOM     11  C   UNL     1      -2.804  -0.255  24.069  0.00  0.00    +0.165 C 
ATOM     12  C   UNL     1      -1.479  -0.836  24.547  0.00  0.00    +0.164 C 
ATOM     13  C   UNL     1      -0.551  -0.405  23.426  0.00  0.00    +0.111 C 
ATOM     14  C   UNL     1      -1.070   0.992  23.125  0.00  0.00    +0.181 C 
ENDROOT
BRANCH  12   2
ATOM      2  O   UNL     1      -1.542  -2.241  24.693  0.00  0.00    -0.388 OA
ATOM     23  H   UNL     1      -0.705  -2.620  24.375  0.00  0.00    +0.210 HD
ENDBRANCH  12   2
BRANCH  13   5
ATOM      5  N   UNL     1       0.855  -0.418  23.797  0.00  0.00    -0.304 NA
ATOM     22  H   UNL     1       1.086  -1.331  24.190  0.00  0.00    +0.123 HD
BRANCH   5  17
ATOM     17  C   UNL     1       1.705  -0.173  22.638  0.00  0.00    +0.136 C 
BRANCH  17  18
ATOM      6  N   UNL     1       3.803  -1.151  23.638  0.00  0.00    -0.347 N 
ATOM      7  N   UNL     1       5.332   0.436  23.362  0.00  0.00    -0.244 NA
ATOM     18  C   UNL     1       3.162  -0.119  23.013  0.00  0.00    +0.049 A 
ATOM     19  C   UNL     1       4.126   0.849  22.852  0.00  0.00    +0.134 A 
ATOM     20  C   UNL     1       5.103  -0.772  23.827  0.00  0.00    +0.196 A 
ATOM     24  H   UNL     1       3.394  -2.035  23.912  0.00  0.00    +0.167 HD
ENDBRANCH  17  18
ENDBRANCH   5  17
ENDBRANCH  13   5
BRANCH  11  15
ATOM     15  C   UNL     1      -3.786   0.007  25.198  0.00  0.00    +0.138 C 
BRANCH  15   4
ATOM      3  O   UNL     1      -6.127   1.686  24.812  0.00  0.00    -0.276 OA
ATOM      4  N   UNL     1      -3.909   1.411  25.466  0.00  0.00    -0.313 N 
ATOM     16  C   UNL     1      -5.073   2.134  25.249  0.00  0.00    +0.216 C 
ATOM     21  H   UNL     1      -3.094   1.893  25.836  0.00  0.00    +0.149 HD
BRANCH  16   8
ATOM      8  C   UNL     1      -4.976   3.581  25.600  0.00  0.00    +0.075 C 
ATOM      9  C   UNL     1      -4.091   4.454  24.776  0.00  0.00    +0.013 C 
ATOM     10  C   UNL     1      -3.697   4.090  26.176  0.00  0.00    +0.013 C 
ENDBRANCH  16   8
ENDBRANCH  15   4
ENDBRANCH  11  15
TORSDOF 7
ENDMDL
MODEL 8
REMARK VINA RESULT:      -4.7      3.037      6.062
REMARK  Name = 75536547
REMARK  7 active torsions:
REMARK  status: ('A' for Active; 'I' for Inactive)
REMARK    1  A    between atoms: O_2  and  C_12
REMARK    2  A    between atoms: N_4  and  C_15
REMARK    3  A    between atoms: N_5  and  C_13
REMARK    4  A    between atoms: N_5  and  C_17
REMARK    5  A    between atoms: C_8  and  C_16
REMARK    6  A    between atoms: C_11  and  C_15
REMARK    7  A    between atoms: C_17  and  C_18
REMARK                            x       y       z     vdW  Elec       q    Type
REMARK                         _______ _______ _______ _____ _____    ______ ____
ROOT
ATOM      1  O   UNL     1       0.572   1.892  25.269  0.00  0.00    -0.371 OA
ATOM     11  C   UNL     1      -0.174   1.040  24.385  0.00  0.00    +0.165 C 
ATOM     12  C   UNL     1      -1.368   1.862  23.917  0.00  0.00    +0.164 C 
ATOM     13  C   UNL     1      -1.667   2.676  25.163  0.00  0.00    +0.111 C 
ATOM     14  C   UNL     1      -0.265   2.995  25.657  0.00  0.00    +0.181 C 
ENDROOT
BRANCH  12   2
ATOM      2  O   UNL     1      -2.453   1.042  23.529  0.00  0.00    -0.388 OA
ATOM     23  H   UNL     1      -2.341   0.170  23.942  0.00  0.00    +0.210 HD
ENDBRANCH  12   2
BRANCH  13   5
ATOM      5  N   UNL     1      -2.460   3.867  24.904  0.00  0.00    -0.304 NA
ATOM     22  H   UNL     1      -2.885   3.789  23.979  0.00  0.00    +0.123 HD
BRANCH   5  17
ATOM     17  C   UNL     1      -3.516   4.021  25.898  0.00  0.00    +0.136 C 
BRANCH  17  18
ATOM      6  N   UNL     1      -5.654   2.853  26.547  0.00  0.00    -0.347 N 
ATOM      7  N   UNL     1      -6.219   1.700  24.735  0.00  0.00    -0.244 NA
ATOM     18  C   UNL     1      -4.684   3.113  25.620  0.00  0.00    +0.049 A 
ATOM     19  C   UNL     1      -5.055   2.391  24.510  0.00  0.00    +0.134 A 
ATOM     20  C   UNL     1      -6.554   2.000  25.969  0.00  0.00    +0.196 A 
ATOM     24  H   UNL     1      -5.702   3.222  27.487  0.00  0.00    +0.167 HD
ENDBRANCH  17  18
ENDBRANCH   5  17
ENDBRANCH  13   5
BRANCH  11  15
ATOM     15  C   UNL     1       0.716   0.575  23.246  0.00  0.00    +0.138 C 
BRANCH  15   4
ATOM      3  O   UNL     1       3.003   0.045  21.530  0.00  0.00    -0.276 OA
ATOM      4  N   UNL     1       2.101   0.807  23.539  0.00  0.00    -0.313 N 
ATOM     16  C   UNL     1       3.130   0.522  22.653  0.00  0.00    +0.216 C 
ATOM     21  H   UNL     1       2.330   1.204  24.445  0.00  0.00    +0.149 HD
BRANCH  16   8
ATOM      8  C   UNL     1       4.493   0.846  23.166  0.00  0.00    +0.075 C 
ATOM      9  C   UNL     1       5.605  -0.109  22.884  0.00  0.00    +0.013 C 
ATOM     10  C   UNL     1       5.054   0.018  24.273  0.00  0.00    +0.013 C 
ENDBRANCH  16   8
ENDBRANCH  15   4
ENDBRANCH  11  15
TORSDOF 7
ENDMDL
MODEL 9
REMARK VINA RESULT:      -4.6     14.384     16.454
REMARK  Name = 75536547
REMARK  7 active torsions:
REMARK  status: ('A' for Active; 'I' for Inactive)
REMARK    1  A    between atoms: O_2  and  C_12
REMARK    2  A    between atoms: N_4  and  C_15
REMARK    3  A    between atoms: N_5  and  C_13
REMARK    4  A    between atoms: N_5  and  C_17
REMARK    5  A    between atoms: C_8  and  C_16
REMARK    6  A    between atoms: C_11  and  C_15
REMARK    7  A    between atoms: C_17  and  C_18
REMARK                            x       y       z     vdW  Elec       q    Type
REMARK                         _______ _______ _______ _____ _____    ______ ____
ROOT
ATOM      1  O   UNL     1      -2.965 -10.514  15.529  0.00  0.00    -0.371 OA
ATOM     11  C   UNL     1      -3.506 -10.781  14.225  0.00  0.00    +0.165 C 
ATOM     12  C   UNL     1      -4.857 -10.080  14.178  0.00  0.00    +0.164 C 
ATOM     13  C   UNL     1      -5.324 -10.252  15.612  0.00  0.00    +0.111 C 
ATOM     14  C   UNL     1      -4.027 -10.045  16.378  0.00  0.00    +0.181 C 
ENDROOT
BRANCH  12   2
ATOM      2  O   UNL     1      -5.731 -10.682  13.244  0.00  0.00    -0.388 OA
ATOM     23  H   UNL     1      -5.308 -11.488  12.904  0.00  0.00    +0.210 HD
ENDBRANCH  12   2
BRANCH  13   5
ATOM      5  N   UNL     1      -6.367  -9.316  16.001  0.00  0.00    -0.304 NA
ATOM     22  H   UNL     1      -7.019  -9.204  15.224  0.00  0.00    +0.123 HD
BRANCH   5  17
ATOM     17  C   UNL     1      -7.097  -9.799  17.167  0.00  0.00    +0.136 C 
BRANCH  17  18
ATOM      6  N   UNL     1      -8.914  -8.209  16.442  0.00  0.00    -0.347 N 
ATOM      7  N   UNL     1     -10.681  -8.813  17.643  0.00  0.00    -0.244 NA
ATOM     18  C   UNL     1      -8.500  -9.256  17.215  0.00  0.00    +0.049 A 
ATOM     19  C   UNL     1      -9.608  -9.613  17.948  0.00  0.00    +0.134 A 
ATOM     20  C   UNL     1     -10.230  -7.979  16.734  0.00  0.00    +0.196 A 
ATOM     24  H   UNL     1      -8.354  -7.696  15.774  0.00  0.00    +0.167 HD
ENDBRANCH  17  18
ENDBRANCH   5  17
ENDBRANCH  13   5
BRANCH  11  15
ATOM     15  C   UNL     1      -2.540 -10.293  13.159  0.00  0.00    +0.138 C 
BRANCH  15   4
ATOM      3  O   UNL     1      -1.437  -9.066  10.765  0.00  0.00    -0.276 OA
ATOM      4  N   UNL     1      -3.220 -10.014  11.927  0.00  0.00    -0.313 N 
ATOM     16  C   UNL     1      -2.608  -9.422  10.832  0.00  0.00    +0.216 C 
ATOM     21  H   UNL     1      -4.202 -10.268  11.864  0.00  0.00    +0.149 HD
BRANCH  16   8
ATOM      8  C   UNL     1      -3.506  -9.227   9.655  0.00  0.00    +0.075 C 
ATOM      9  C   UNL     1      -4.952  -8.953   9.902  0.00  0.00    +0.013 C 
ATOM     10  C   UNL     1      -4.519 -10.278   9.350  0.00  0.00    +0.013 C 
ENDBRANCH  16   8
ENDBRANCH  15   4
ENDBRANCH  11  15
TORSDOF 7
ENDMDL
MODEL 10
REMARK VINA RESULT:      -4.5      2.333      2.905
REMARK  Name = 75536547
REMARK  7 active torsions:
REMARK  status: ('A' for Active; 'I' for Inactive)
REMARK    1  A    between atoms: O_2  and  C_12
REMARK    2  A    between atoms: N_4  and  C_15
REMARK    3  A    between atoms: N_5  and  C_13
REMARK    4  A    between atoms: N_5  and  C_17
REMARK    5  A    between atoms: C_8  and  C_16
REMARK    6  A    between atoms: C_11  and  C_15
REMARK    7  A    between atoms: C_17  and  C_18
REMARK                            x       y       z     vdW  Elec       q    Type
REMARK                         _______ _______ _______ _____ _____    ______ ____
ROOT
ATOM      1  O   UNL     1      -2.085   3.412  25.757  0.00  0.00    -0.371 OA
ATOM     11  C   UNL     1      -2.621   2.802  24.572  0.00  0.00    +0.165 C 
ATOM     12  C   UNL     1      -1.572   1.803  24.101  0.00  0.00    +0.164 C 
ATOM     13  C   UNL     1      -0.292   2.529  24.474  0.00  0.00    +0.111 C 
ATOM     14  C   UNL     1      -0.673   3.143  25.812  0.00  0.00    +0.181 C 
ENDROOT
BRANCH  12   2
ATOM      2  O   UNL     1      -1.670   1.550  22.713  0.00  0.00    -0.388 OA
ATOM     23  H   UNL     1      -1.847   2.392  22.260  0.00  0.00    +0.210 HD
ENDBRANCH  12   2
BRANCH  13   5
ATOM      5  N   UNL     1       0.868   1.656  24.562  0.00  0.00    -0.304 NA
ATOM     22  H   UNL     1       0.674   0.912  25.233  0.00  0.00    +0.123 HD
BRANCH   5  17
ATOM     17  C   UNL     1       1.174   1.058  23.268  0.00  0.00    +0.136 C 
BRANCH  17  18
ATOM      6  N   UNL     1       3.668   1.345  23.031  0.00  0.00    -0.347 N 
ATOM      7  N   UNL     1       4.474  -0.717  23.198  0.00  0.00    -0.244 NA
ATOM     18  C   UNL     1       2.583   0.534  23.211  0.00  0.00    +0.049 A 
ATOM     19  C   UNL     1       3.106  -0.735  23.312  0.00  0.00    +0.134 A 
ATOM     20  C   UNL     1       4.780   0.550  23.030  0.00  0.00    +0.196 A 
ATOM     24  H   UNL     1       3.654   2.351  22.919  0.00  0.00    +0.167 HD
ENDBRANCH  17  18
ENDBRANCH   5  17
ENDBRANCH  13   5
BRANCH  11  15
ATOM     15  C   UNL     1      -3.961   2.159  24.887  0.00  0.00    +0.138 C 
BRANCH  15   4
ATOM      3  O   UNL     1      -4.063  -0.287  23.318  0.00  0.00    -0.276 OA
ATOM      4  N   UNL     1      -3.797   0.813  25.355  0.00  0.00    -0.313 N 
ATOM     16  C   UNL     1      -3.862  -0.299  24.527  0.00  0.00    +0.216 C 
ATOM     21  H   UNL     1      -3.622   0.677  26.346  0.00  0.00    +0.149 HD
BRANCH  16   8
ATOM      8  C   UNL     1      -3.660  -1.601  25.228  0.00  0.00    +0.075 C 
ATOM      9  C   UNL     1      -2.403  -2.361  24.967  0.00  0.00    +0.013 C 
ATOM     10  C   UNL     1      -3.709  -2.858  24.425  0.00  0.00    +0.013 C 
ENDBRANCH  16   8
ENDBRANCH  15   4
ENDBRANCH  11  15
TORSDOF 7
ENDMDL
