MODEL 1
REMARK VINA RESULT:      -5.3      0.000      0.000
REMARK  Name = 75536655
REMARK  8 active torsions:
REMARK  status: ('A' for Active; 'I' for Inactive)
REMARK    1  A    between atoms: S_1  and  N_9
REMARK    2  A    between atoms: S_1  and  C_22
REMARK    3  A    between atoms: O_3  and  C_12
REMARK    4  A    between atoms: N_7  and  C_10
REMARK    5  A    between atoms: N_7  and  C_11
REMARK    6  A    between atoms: N_9  and  C_19
REMARK    7  A    between atoms: C_13  and  C_19
REMARK    8  A    between atoms: C_20  and  C_21
REMARK                            x       y       z     vdW  Elec       q    Type
REMARK                         _______ _______ _______ _____ _____    ______ ____
ROOT
ATOM      2  O   UNL     1       0.545   0.261  23.213  0.00  0.00    -0.371 OA
ATOM     10  C   UNL     1       0.293   1.551  25.191  0.00  0.00    +0.111 C 
ATOM     12  C   UNL     1      -0.679   0.386  25.233  0.00  0.00    +0.164 C 
ATOM     13  C   UNL     1      -0.037  -0.567  24.234  0.00  0.00    +0.164 C 
ATOM     14  C   UNL     1       0.631   1.607  23.711  0.00  0.00    +0.181 C 
ENDROOT
BRANCH  12   3
ATOM      3  O   UNL     1      -0.784  -0.192  26.519  0.00  0.00    -0.388 OA
ATOM     24  H   UNL     1      -1.476   0.283  27.012  0.00  0.00    +0.210 HD
ENDBRANCH  12   3
BRANCH  10   7
ATOM      7  N   UNL     1      -0.267   2.796  25.693  0.00  0.00    -0.306 NA
ATOM     23  H   UNL     1       0.417   3.547  25.612  0.00  0.00    +0.123 HD
BRANCH   7  11
ATOM      4  O   UNL     1      -6.212   4.352  25.892  0.00  0.00    -0.276 OA
ATOM      8  N   UNL     1      -4.365   3.397  24.855  0.00  0.00    -0.302 N 
ATOM     11  C   UNL     1      -1.483   3.148  24.964  0.00  0.00    +0.057 C 
ATOM     15  C   UNL     1      -2.220   4.283  25.687  0.00  0.00    +0.037 C 
ATOM     16  C   UNL     1      -2.391   1.919  24.830  0.00  0.00    +0.037 C 
ATOM     17  C   UNL     1      -3.544   4.602  24.994  0.00  0.00    +0.109 C 
ATOM     18  C   UNL     1      -3.713   2.284  24.154  0.00  0.00    +0.109 C 
ATOM     20  C   UNL     1      -5.673   3.390  25.339  0.00  0.00    +0.212 C 
ATOM     21  C   UNL     1      -6.453   2.112  25.160  0.00  0.00    +0.109 C 
ENDBRANCH   7  11
ENDBRANCH  10   7
BRANCH  13  19
ATOM     19  C   UNL     1      -1.026  -1.535  23.607  0.00  0.00    +0.139 C 
BRANCH  19   9
ATOM      9  N   UNL     1      -1.654  -2.352  24.664  0.00  0.00    -0.192 NA
ATOM     25  H   UNL     1      -1.061  -2.470  25.496  0.00  0.00    +0.148 HD
BRANCH   9   1
ATOM      1  S   UNL     1      -3.330  -2.197  24.948  0.00  0.00    +0.027 S 
ATOM      5  O   UNL     1      -3.555  -1.430  26.157  0.00  0.00    -0.158 OA
ATOM      6  O   UNL     1      -3.948  -3.496  24.766  0.00  0.00    -0.158 OA
ATOM     22  C   UNL     1      -3.803  -1.186  23.563  0.00  0.00    +0.214 C 
ENDBRANCH   9   1
ENDBRANCH  19   9
ENDBRANCH  13  19
TORSDOF 6
ENDMDL
MODEL 2
REMARK VINA RESULT:      -4.4      2.278      5.303
REMARK  Name = 75536655
REMARK  8 active torsions:
REMARK  status: ('A' for Active; 'I' for Inactive)
REMARK    1  A    between atoms: S_1  and  N_9
REMARK    2  A    between atoms: S_1  and  C_22
REMARK    3  A    between atoms: O_3  and  C_12
REMARK    4  A    between atoms: N_7  and  C_10
REMARK    5  A    between atoms: N_7  and  C_11
REMARK    6  A    between atoms: N_9  and  C_19
REMARK    7  A    between atoms: C_13  and  C_19
REMARK    8  A    between atoms: C_20  and  C_21
REMARK                            x       y       z     vdW  Elec       q    Type
REMARK                         _______ _______ _______ _____ _____    ______ ____
ROOT
ATOM      2  O   UNL     1      -0.858   3.482  26.649  0.00  0.00    -0.371 OA
ATOM     10  C   UNL     1       0.321   2.293  24.965  0.00  0.00    +0.111 C 
ATOM     12  C   UNL     1      -0.726   3.172  24.307  0.00  0.00    +0.164 C 
ATOM     13  C   UNL     1      -0.981   4.195  25.406  0.00  0.00    +0.164 C 
ATOM     14  C   UNL     1      -0.190   2.235  26.394  0.00  0.00    +0.181 C 
ENDROOT
BRANCH  12   3
ATOM      3  O   UNL     1      -0.260   3.782  23.119  0.00  0.00    -0.388 OA
ATOM     24  H   UNL     1      -0.029   4.705  23.319  0.00  0.00    +0.210 HD
ENDBRANCH  12   3
BRANCH  10   7
ATOM      7  N   UNL     1       0.446   0.979  24.353  0.00  0.00    -0.306 NA
ATOM     23  H   UNL     1       1.401   0.635  24.451  0.00  0.00    +0.123 HD
BRANCH   7  11
ATOM      4  O   UNL     1      -3.152  -3.962  23.691  0.00  0.00    -0.276 OA
ATOM      8  N   UNL     1      -2.583  -1.947  24.697  0.00  0.00    -0.302 N 
ATOM     11  C   UNL     1      -0.488   0.034  24.959  0.00  0.00    +0.057 C 
ATOM     15  C   UNL     1      -0.193  -1.388  24.466  0.00  0.00    +0.037 C 
ATOM     16  C   UNL     1      -1.931   0.431  24.619  0.00  0.00    +0.037 C 
ATOM     17  C   UNL     1      -1.220  -2.379  25.013  0.00  0.00    +0.109 C 
ATOM     18  C   UNL     1      -2.925  -0.597  25.162  0.00  0.00    +0.109 C 
ATOM     20  C   UNL     1      -3.452  -2.818  24.039  0.00  0.00    +0.212 C 
ATOM     21  C   UNL     1      -4.837  -2.297  23.748  0.00  0.00    +0.109 C 
ENDBRANCH   7  11
ENDBRANCH  10   7
BRANCH  13  19
ATOM     19  C   UNL     1      -2.353   4.841  25.319  0.00  0.00    +0.139 C 
BRANCH  19   9
ATOM      9  N   UNL     1      -3.313   4.075  26.138  0.00  0.00    -0.192 NA
ATOM     25  H   UNL     1      -3.427   4.448  27.089  0.00  0.00    +0.148 HD
BRANCH   9   1
ATOM      1  S   UNL     1      -4.720   3.450  25.400  0.00  0.00    +0.027 S 
ATOM      5  O   UNL     1      -5.825   4.368  25.590  0.00  0.00    -0.158 OA
ATOM      6  O   UNL     1      -4.845   2.052  25.765  0.00  0.00    -0.158 OA
ATOM     22  C   UNL     1      -4.246   3.511  23.688  0.00  0.00    +0.214 C 
ENDBRANCH   9   1
ENDBRANCH  19   9
ENDBRANCH  13  19
TORSDOF 6
ENDMDL
MODEL 3
REMARK VINA RESULT:      -4.3     16.498     19.217
REMARK  Name = 75536655
REMARK  8 active torsions:
REMARK  status: ('A' for Active; 'I' for Inactive)
REMARK    1  A    between atoms: S_1  and  N_9
REMARK    2  A    between atoms: S_1  and  C_22
REMARK    3  A    between atoms: O_3  and  C_12
REMARK    4  A    between atoms: N_7  and  C_10
REMARK    5  A    between atoms: N_7  and  C_11
REMARK    6  A    between atoms: N_9  and  C_19
REMARK    7  A    between atoms: C_13  and  C_19
REMARK    8  A    between atoms: C_20  and  C_21
REMARK                            x       y       z     vdW  Elec       q    Type
REMARK                         _______ _______ _______ _____ _____    ______ ____
ROOT
ATOM      2  O   UNL     1      11.210  -6.320  32.467  0.00  0.00    -0.371 OA
ATOM     10  C   UNL     1      13.188  -7.303  31.594  0.00  0.00    +0.111 C 
ATOM     12  C   UNL     1      12.188  -8.400  31.908  0.00  0.00    +0.164 C 
ATOM     13  C   UNL     1      10.885  -7.613  31.927  0.00  0.00    +0.164 C 
ATOM     14  C   UNL     1      12.636  -6.149  32.415  0.00  0.00    +0.181 C 
ENDROOT
BRANCH  12   3
ATOM      3  O   UNL     1      12.172  -9.422  30.931  0.00  0.00    -0.388 OA
ATOM     24  H   UNL     1      11.717  -9.082  30.141  0.00  0.00    +0.210 HD
ENDBRANCH  12   3
BRANCH  10   7
ATOM      7  N   UNL     1      14.558  -7.644  31.943  0.00  0.00    -0.306 NA
ATOM     23  H   UNL     1      14.594  -8.575  32.356  0.00  0.00    +0.123 HD
BRANCH   7  11
ATOM      4  O   UNL     1      15.130  -8.182  25.845  0.00  0.00    -0.276 OA
ATOM      8  N   UNL     1      15.967  -8.277  28.010  0.00  0.00    -0.302 N 
ATOM     11  C   UNL     1      15.422  -7.585  30.768  0.00  0.00    +0.057 C 
ATOM     15  C   UNL     1      14.687  -6.902  29.607  0.00  0.00    +0.037 C 
ATOM     16  C   UNL     1      15.864  -8.998  30.366  0.00  0.00    +0.037 C 
ATOM     17  C   UNL     1      15.539  -6.916  28.338  0.00  0.00    +0.109 C 
ATOM     18  C   UNL     1      16.693  -8.970  29.082  0.00  0.00    +0.109 C 
ATOM     20  C   UNL     1      15.709  -8.799  26.742  0.00  0.00    +0.212 C 
ATOM     21  C   UNL     1      16.179 -10.208  26.483  0.00  0.00    +0.109 C 
ENDBRANCH   7  11
ENDBRANCH  10   7
BRANCH  13  19
ATOM     19  C   UNL     1       9.802  -8.264  32.771  0.00  0.00    +0.139 C 
BRANCH  19   9
ATOM      9  N   UNL     1       8.975  -9.143  31.921  0.00  0.00    -0.192 NA
ATOM     25  H   UNL     1       9.237 -10.136  31.985  0.00  0.00    +0.148 HD
BRANCH   9   1
ATOM      1  S   UNL     1       7.309  -8.811  31.756  0.00  0.00    +0.027 S 
ATOM      5  O   UNL     1       6.533  -9.915  32.285  0.00  0.00    -0.158 OA
ATOM      6  O   UNL     1       7.073  -8.313  30.415  0.00  0.00    -0.158 OA
ATOM     22  C   UNL     1       7.138  -7.437  32.871  0.00  0.00    +0.214 C 
ENDBRANCH   9   1
ENDBRANCH  19   9
ENDBRANCH  13  19
TORSDOF 6
ENDMDL
MODEL 4
REMARK VINA RESULT:      -4.0     14.987     17.651
REMARK  Name = 75536655
REMARK  8 active torsions:
REMARK  status: ('A' for Active; 'I' for Inactive)
REMARK    1  A    between atoms: S_1  and  N_9
REMARK    2  A    between atoms: S_1  and  C_22
REMARK    3  A    between atoms: O_3  and  C_12
REMARK    4  A    between atoms: N_7  and  C_10
REMARK    5  A    between atoms: N_7  and  C_11
REMARK    6  A    between atoms: N_9  and  C_19
REMARK    7  A    between atoms: C_13  and  C_19
REMARK    8  A    between atoms: C_20  and  C_21
REMARK                            x       y       z     vdW  Elec       q    Type
REMARK                         _______ _______ _______ _____ _____    ______ ____
ROOT
ATOM      2  O   UNL     1      -5.920  -9.445  14.262  0.00  0.00    -0.371 OA
ATOM     10  C   UNL     1      -6.825  -9.983  12.134  0.00  0.00    +0.111 C 
ATOM     12  C   UNL     1      -7.598 -10.732  13.203  0.00  0.00    +0.164 C 
ATOM     13  C   UNL     1      -7.272  -9.901  14.436  0.00  0.00    +0.164 C 
ATOM     14  C   UNL     1      -5.555  -9.616  12.882  0.00  0.00    +0.181 C 
ENDROOT
BRANCH  12   3
ATOM      3  O   UNL     1      -8.988 -10.771  12.946  0.00  0.00    -0.388 OA
ATOM     24  H   UNL     1      -9.410 -10.042  13.434  0.00  0.00    +0.210 HD
ENDBRANCH  12   3
BRANCH  10   7
ATOM      7  N   UNL     1      -6.571 -10.771  10.938  0.00  0.00    -0.306 NA
ATOM     23  H   UNL     1      -7.043 -11.672  11.003  0.00  0.00    +0.123 HD
BRANCH   7  11
ATOM      4  O   UNL     1      -8.717  -5.575   8.449  0.00  0.00    -0.276 OA
ATOM      8  N   UNL     1      -8.481  -7.885   8.513  0.00  0.00    -0.302 N 
ATOM     11  C   UNL     1      -7.018 -10.059   9.744  0.00  0.00    +0.057 C 
ATOM     15  C   UNL     1      -6.483  -8.621   9.756  0.00  0.00    +0.037 C 
ATOM     16  C   UNL     1      -8.551 -10.060   9.673  0.00  0.00    +0.037 C 
ATOM     17  C   UNL     1      -7.018  -7.830   8.563  0.00  0.00    +0.109 C 
ATOM     18  C   UNL     1      -9.046  -9.240   8.482  0.00  0.00    +0.109 C 
ATOM     20  C   UNL     1      -9.217  -6.702   8.459  0.00  0.00    +0.212 C 
ATOM     21  C   UNL     1     -10.718  -6.842   8.412  0.00  0.00    +0.109 C 
ENDBRANCH   7  11
ENDBRANCH  10   7
BRANCH  13  19
ATOM     19  C   UNL     1      -7.388 -10.681  15.734  0.00  0.00    +0.139 C 
BRANCH  19   9
ATOM      9  N   UNL     1      -8.772 -10.594  16.242  0.00  0.00    -0.192 NA
ATOM     25  H   UNL     1      -9.236 -11.508  16.320  0.00  0.00    +0.148 HD
BRANCH   9   1
ATOM      1  S   UNL     1      -9.139  -9.455  17.459  0.00  0.00    +0.027 S 
ATOM      5  O   UNL     1      -7.917  -8.989  18.082  0.00  0.00    -0.158 OA
ATOM      6  O   UNL     1     -10.229  -9.978  18.261  0.00  0.00    -0.158 OA
ATOM     22  C   UNL     1      -9.795  -8.127  16.476  0.00  0.00    +0.214 C 
ENDBRANCH   9   1
ENDBRANCH  19   9
ENDBRANCH  13  19
TORSDOF 6
ENDMDL
MODEL 5
REMARK VINA RESULT:      -3.2      2.220      4.846
REMARK  Name = 75536655
REMARK  8 active torsions:
REMARK  status: ('A' for Active; 'I' for Inactive)
REMARK    1  A    between atoms: S_1  and  N_9
REMARK    2  A    between atoms: S_1  and  C_22
REMARK    3  A    between atoms: O_3  and  C_12
REMARK    4  A    between atoms: N_7  and  C_10
REMARK    5  A    between atoms: N_7  and  C_11
REMARK    6  A    between atoms: N_9  and  C_19
REMARK    7  A    between atoms: C_13  and  C_19
REMARK    8  A    between atoms: C_20  and  C_21
REMARK                            x       y       z     vdW  Elec       q    Type
REMARK                         _______ _______ _______ _____ _____    ______ ____
ROOT
ATOM      2  O   UNL     1      -1.351   2.898  26.541  0.00  0.00    -0.371 OA
ATOM     10  C   UNL     1       0.431   2.562  25.007  0.00  0.00    +0.111 C 
ATOM     12  C   UNL     1      -0.604   3.470  24.371  0.00  0.00    +0.164 C 
ATOM     13  C   UNL     1      -1.338   3.985  25.601  0.00  0.00    +0.164 C 
ATOM     14  C   UNL     1      -0.374   1.926  26.128  0.00  0.00    +0.181 C 
ENDROOT
BRANCH  12   3
ATOM      3  O   UNL     1      -0.024   4.522  23.624  0.00  0.00    -0.388 OA
ATOM     24  H   UNL     1       0.806   4.784  24.059  0.00  0.00    +0.210 HD
ENDBRANCH  12   3
BRANCH  10   7
ATOM      7  N   UNL     1       0.994   1.584  24.089  0.00  0.00    -0.306 NA
ATOM     23  H   UNL     1       1.732   1.053  24.549  0.00  0.00    +0.123 HD
BRANCH   7  11
ATOM      4  O   UNL     1      -4.705  -0.646  24.677  0.00  0.00    -0.276 OA
ATOM      8  N   UNL     1      -2.482  -0.818  24.026  0.00  0.00    -0.302 N 
ATOM     11  C   UNL     1      -0.041   0.679  23.597  0.00  0.00    +0.057 C 
ATOM     15  C   UNL     1      -1.411   1.370  23.645  0.00  0.00    +0.037 C 
ATOM     16  C   UNL     1      -0.059  -0.606  24.436  0.00  0.00    +0.037 C 
ATOM     17  C   UNL     1      -2.521   0.407  23.225  0.00  0.00    +0.109 C 
ATOM     18  C   UNL     1      -1.197  -1.529  24.001  0.00  0.00    +0.109 C 
ATOM     20  C   UNL     1      -3.626  -1.242  24.702  0.00  0.00    +0.212 C 
ATOM     21  C   UNL     1      -3.503  -2.511  25.507  0.00  0.00    +0.109 C 
ENDBRANCH   7  11
ENDBRANCH  10   7
BRANCH  13  19
ATOM     19  C   UNL     1      -2.761   4.429  25.310  0.00  0.00    +0.139 C 
BRANCH  19   9
ATOM      9  N   UNL     1      -3.707   3.583  26.063  0.00  0.00    -0.192 NA
ATOM     25  H   UNL     1      -3.679   3.744  27.078  0.00  0.00    +0.148 HD
BRANCH   9   1
ATOM      1  S   UNL     1      -5.243   3.255  25.394  0.00  0.00    +0.027 S 
ATOM      5  O   UNL     1      -5.090   2.635  24.093  0.00  0.00    -0.158 OA
ATOM      6  O   UNL     1      -6.076   4.429  25.564  0.00  0.00    -0.158 OA
ATOM     22  C   UNL     1      -5.834   2.016  26.524  0.00  0.00    +0.214 C 
ENDBRANCH   9   1
ENDBRANCH  19   9
ENDBRANCH  13  19
TORSDOF 6
ENDMDL
MODEL 6
REMARK VINA RESULT:      -3.0      2.523      4.374
REMARK  Name = 75536655
REMARK  8 active torsions:
REMARK  status: ('A' for Active; 'I' for Inactive)
REMARK    1  A    between atoms: S_1  and  N_9
REMARK    2  A    between atoms: S_1  and  C_22
REMARK    3  A    between atoms: O_3  and  C_12
REMARK    4  A    between atoms: N_7  and  C_10
REMARK    5  A    between atoms: N_7  and  C_11
REMARK    6  A    between atoms: N_9  and  C_19
REMARK    7  A    between atoms: C_13  and  C_19
REMARK    8  A    between atoms: C_20  and  C_21
REMARK                            x       y       z     vdW  Elec       q    Type
REMARK                         _______ _______ _______ _____ _____    ______ ____
ROOT
ATOM      2  O   UNL     1      -1.158  -0.589  25.985  0.00  0.00    -0.371 OA
ATOM     10  C   UNL     1      -3.123  -1.512  25.022  0.00  0.00    +0.111 C 
ATOM     12  C   UNL     1      -1.918  -1.969  24.221  0.00  0.00    +0.164 C 
ATOM     13  C   UNL     1      -0.798  -1.758  25.230  0.00  0.00    +0.164 C 
ATOM     14  C   UNL     1      -2.553  -0.317  25.767  0.00  0.00    +0.181 C 
ENDROOT
BRANCH  12   3
ATOM      3  O   UNL     1      -2.012  -3.320  23.813  0.00  0.00    -0.388 OA
ATOM     24  H   UNL     1      -1.112  -3.684  23.750  0.00  0.00    +0.210 HD
ENDBRANCH  12   3
BRANCH  10   7
ATOM      7  N   UNL     1      -4.275  -1.173  24.201  0.00  0.00    -0.306 NA
ATOM     23  H   UNL     1      -5.131  -1.509  24.640  0.00  0.00    +0.123 HD
BRANCH   7  11
ATOM      4  O   UNL     1      -1.591   4.336  24.703  0.00  0.00    -0.276 OA
ATOM      8  N   UNL     1      -3.455   2.953  24.606  0.00  0.00    -0.302 N 
ATOM     11  C   UNL     1      -4.355   0.270  23.993  0.00  0.00    +0.057 C 
ATOM     15  C   UNL     1      -3.010   0.804  23.481  0.00  0.00    +0.037 C 
ATOM     16  C   UNL     1      -4.748   0.971  25.300  0.00  0.00    +0.037 C 
ATOM     17  C   UNL     1      -3.043   2.326  23.347  0.00  0.00    +0.109 C 
ATOM     18  C   UNL     1      -4.746   2.490  25.131  0.00  0.00    +0.109 C 
ATOM     20  C   UNL     1      -2.655   3.938  25.184  0.00  0.00    +0.212 C 
ATOM     21  C   UNL     1      -3.146   4.533  26.480  0.00  0.00    +0.109 C 
ENDBRANCH   7  11
ENDBRANCH  10   7
BRANCH  13  19
ATOM     19  C   UNL     1       0.562  -1.553  24.585  0.00  0.00    +0.139 C 
BRANCH  19   9
ATOM      9  N   UNL     1       0.579  -0.265  23.865  0.00  0.00    -0.192 NA
ATOM     25  H   UNL     1       0.175   0.510  24.407  0.00  0.00    +0.148 HD
BRANCH   9   1
ATOM      1  S   UNL     1       1.920   0.120  22.882  0.00  0.00    +0.027 S 
ATOM      5  O   UNL     1       2.398   1.451  23.201  0.00  0.00    -0.158 OA
ATOM      6  O   UNL     1       1.608  -0.250  21.515  0.00  0.00    -0.158 OA
ATOM     22  C   UNL     1       3.115  -1.050  23.488  0.00  0.00    +0.214 C 
ENDBRANCH   9   1
ENDBRANCH  19   9
ENDBRANCH  13  19
TORSDOF 6
ENDMDL
MODEL 7
REMARK VINA RESULT:      -2.7      2.542      4.489
REMARK  Name = 75536655
REMARK  8 active torsions:
REMARK  status: ('A' for Active; 'I' for Inactive)
REMARK    1  A    between atoms: S_1  and  N_9
REMARK    2  A    between atoms: S_1  and  C_22
REMARK    3  A    between atoms: O_3  and  C_12
REMARK    4  A    between atoms: N_7  and  C_10
REMARK    5  A    between atoms: N_7  and  C_11
REMARK    6  A    between atoms: N_9  and  C_19
REMARK    7  A    between atoms: C_13  and  C_19
REMARK    8  A    between atoms: C_20  and  C_21
REMARK                            x       y       z     vdW  Elec       q    Type
REMARK                         _______ _______ _______ _____ _____    ______ ____
ROOT
ATOM      2  O   UNL     1      -0.513   1.250  26.092  0.00  0.00    -0.371 OA
ATOM     10  C   UNL     1      -0.499  -0.830  24.947  0.00  0.00    +0.111 C 
ATOM     12  C   UNL     1      -0.096   0.269  23.981  0.00  0.00    +0.164 C 
ATOM     13  C   UNL     1       0.348   1.359  24.947  0.00  0.00    +0.164 C 
ATOM     14  C   UNL     1      -1.168  -0.029  26.051  0.00  0.00    +0.181 C 
ENDROOT
BRANCH  12   3
ATOM      3  O   UNL     1       0.949  -0.123  23.112  0.00  0.00    -0.388 OA
ATOM     24  H   UNL     1       0.853   0.369  22.277  0.00  0.00    +0.210 HD
ENDBRANCH  12   3
BRANCH  10   7
ATOM      7  N   UNL     1      -1.377  -1.830  24.359  0.00  0.00    -0.306 NA
ATOM     23  H   UNL     1      -1.473  -2.626  24.987  0.00  0.00    +0.123 HD
BRANCH   7  11
ATOM      4  O   UNL     1      -5.119   3.044  24.568  0.00  0.00    -0.276 OA
ATOM      8  N   UNL     1      -4.714   0.757  24.539  0.00  0.00    -0.302 N 
ATOM     11  C   UNL     1      -2.690  -1.260  24.071  0.00  0.00    +0.057 C 
ATOM     15  C   UNL     1      -2.539   0.170  23.537  0.00  0.00    +0.037 C 
ATOM     16  C   UNL     1      -3.559  -1.271  25.335  0.00  0.00    +0.037 C 
ATOM     17  C   UNL     1      -3.905   0.819  23.319  0.00  0.00    +0.109 C 
ATOM     18  C   UNL     1      -4.905  -0.593  25.083  0.00  0.00    +0.109 C 
ATOM     20  C   UNL     1      -5.264   1.925  25.065  0.00  0.00    +0.212 C 
ATOM     21  C   UNL     1      -6.082   1.779  26.324  0.00  0.00    +0.109 C 
ENDBRANCH   7  11
ENDBRANCH  10   7
BRANCH  13  19
ATOM     19  C   UNL     1       0.250   2.757  24.361  0.00  0.00    +0.139 C 
BRANCH  19   9
ATOM      9  N   UNL     1      -0.304   3.679  25.372  0.00  0.00    -0.192 NA
ATOM     25  H   UNL     1       0.414   4.242  25.847  0.00  0.00    +0.148 HD
BRANCH   9   1
ATOM      1  S   UNL     1      -1.789   4.459  25.060  0.00  0.00    +0.027 S 
ATOM      5  O   UNL     1      -2.448   3.829  23.934  0.00  0.00    -0.158 OA
ATOM      6  O   UNL     1      -1.568   5.892  25.086  0.00  0.00    -0.158 OA
ATOM     22  C   UNL     1      -2.695   4.036  26.531  0.00  0.00    +0.214 C 
ENDBRANCH   9   1
ENDBRANCH  19   9
ENDBRANCH  13  19
TORSDOF 6
ENDMDL
MODEL 8
REMARK VINA RESULT:      -2.3      2.225      5.198
REMARK  Name = 75536655
REMARK  8 active torsions:
REMARK  status: ('A' for Active; 'I' for Inactive)
REMARK    1  A    between atoms: S_1  and  N_9
REMARK    2  A    between atoms: S_1  and  C_22
REMARK    3  A    between atoms: O_3  and  C_12
REMARK    4  A    between atoms: N_7  and  C_10
REMARK    5  A    between atoms: N_7  and  C_11
REMARK    6  A    between atoms: N_9  and  C_19
REMARK    7  A    between atoms: C_13  and  C_19
REMARK    8  A    between atoms: C_20  and  C_21
REMARK                            x       y       z     vdW  Elec       q    Type
REMARK                         _______ _______ _______ _____ _____    ______ ____
ROOT
ATOM      2  O   UNL     1      -1.917   4.620  25.848  0.00  0.00    -0.371 OA
ATOM     10  C   UNL     1      -1.105   3.620  23.852  0.00  0.00    +0.111 C 
ATOM     12  C   UNL     1      -2.565   3.248  24.033  0.00  0.00    +0.164 C 
ATOM     13  C   UNL     1      -3.031   4.344  24.982  0.00  0.00    +0.164 C 
ATOM     14  C   UNL     1      -0.731   4.061  25.257  0.00  0.00    +0.181 C 
ENDROOT
BRANCH  12   3
ATOM      3  O   UNL     1      -3.288   3.262  22.817  0.00  0.00    -0.388 OA
ATOM     24  H   UNL     1      -3.526   4.182  22.614  0.00  0.00    +0.210 HD
ENDBRANCH  12   3
BRANCH  10   7
ATOM      7  N   UNL     1      -0.281   2.526  23.363  0.00  0.00    -0.306 NA
ATOM     23  H   UNL     1       0.693   2.821  23.299  0.00  0.00    +0.123 HD
BRANCH   7  11
ATOM      4  O   UNL     1      -1.509  -3.470  23.941  0.00  0.00    -0.276 OA
ATOM      8  N   UNL     1      -1.410  -1.299  24.760  0.00  0.00    -0.302 N 
ATOM     11  C   UNL     1      -0.394   1.361  24.236  0.00  0.00    +0.057 C 
ATOM     15  C   UNL     1       0.194   0.125  23.543  0.00  0.00    +0.037 C 
ATOM     16  C   UNL     1      -1.863   1.121  24.606  0.00  0.00    +0.037 C 
ATOM     17  C   UNL     1      -0.001  -1.125  24.401  0.00  0.00    +0.109 C 
ATOM     18  C   UNL     1      -2.018  -0.149  25.442  0.00  0.00    +0.109 C 
ATOM     20  C   UNL     1      -2.052  -2.505  24.483  0.00  0.00    +0.212 C 
ATOM     21  C   UNL     1      -3.504  -2.605  24.880  0.00  0.00    +0.109 C 
ENDBRANCH   7  11
ENDBRANCH  10   7
BRANCH  13  19
ATOM     19  C   UNL     1      -4.239   3.945  25.812  0.00  0.00    +0.139 C 
BRANCH  19   9
ATOM      9  N   UNL     1      -4.288   2.475  25.941  0.00  0.00    -0.192 NA
ATOM     25  H   UNL     1      -3.892   2.130  26.825  0.00  0.00    +0.148 HD
BRANCH   9   1
ATOM      1  S   UNL     1      -5.649   1.634  25.345  0.00  0.00    +0.027 S 
ATOM      5  O   UNL     1      -5.255   0.312  24.903  0.00  0.00    -0.158 OA
ATOM      6  O   UNL     1      -6.387   2.522  24.467  0.00  0.00    -0.158 OA
ATOM     22  C   UNL     1      -6.599   1.453  26.837  0.00  0.00    +0.214 C 
ENDBRANCH   9   1
ENDBRANCH  19   9
ENDBRANCH  13  19
TORSDOF 6
ENDMDL
MODEL 9
REMARK VINA RESULT:      -2.3      3.493      5.001
REMARK  Name = 75536655
REMARK  8 active torsions:
REMARK  status: ('A' for Active; 'I' for Inactive)
REMARK    1  A    between atoms: S_1  and  N_9
REMARK    2  A    between atoms: S_1  and  C_22
REMARK    3  A    between atoms: O_3  and  C_12
REMARK    4  A    between atoms: N_7  and  C_10
REMARK    5  A    between atoms: N_7  and  C_11
REMARK    6  A    between atoms: N_9  and  C_19
REMARK    7  A    between atoms: C_13  and  C_19
REMARK    8  A    between atoms: C_20  and  C_21
REMARK                            x       y       z     vdW  Elec       q    Type
REMARK                         _______ _______ _______ _____ _____    ______ ____
ROOT
ATOM      2  O   UNL     1       2.168   1.558  23.715  0.00  0.00    -0.371 OA
ATOM     10  C   UNL     1      -0.072   0.769  23.684  0.00  0.00    +0.111 C 
ATOM     12  C   UNL     1       0.736   0.004  22.652  0.00  0.00    +0.164 C 
ATOM     13  C   UNL     1       2.153   0.231  23.163  0.00  0.00    +0.164 C 
ATOM     14  C   UNL     1       0.809   1.985  23.915  0.00  0.00    +0.181 C 
ENDROOT
BRANCH  12   3
ATOM      3  O   UNL     1       0.406  -1.371  22.608  0.00  0.00    -0.388 OA
ATOM     24  H   UNL     1      -0.457  -1.464  22.171  0.00  0.00    +0.210 HD
ENDBRANCH  12   3
BRANCH  10   7
ATOM      7  N   UNL     1      -1.411   1.116  23.236  0.00  0.00    -0.306 NA
ATOM     23  H   UNL     1      -1.775   0.389  22.620  0.00  0.00    +0.123 HD
BRANCH   7  11
ATOM      4  O   UNL     1      -7.126   2.093  25.282  0.00  0.00    -0.276 OA
ATOM      8  N   UNL     1      -4.815   2.241  25.473  0.00  0.00    -0.302 N 
ATOM     11  C   UNL     1      -2.307   1.301  24.374  0.00  0.00    +0.057 C 
ATOM     15  C   UNL     1      -3.622   0.546  24.138  0.00  0.00    +0.037 C 
ATOM     16  C   UNL     1      -2.578   2.795  24.594  0.00  0.00    +0.037 C 
ATOM     17  C   UNL     1      -4.610   0.804  25.274  0.00  0.00    +0.109 C 
ATOM     18  C   UNL     1      -3.589   3.009  25.720  0.00  0.00    +0.109 C 
ATOM     20  C   UNL     1      -6.107   2.766  25.456  0.00  0.00    +0.212 C 
ATOM     21  C   UNL     1      -6.234   4.254  25.665  0.00  0.00    +0.109 C 
ENDBRANCH   7  11
ENDBRANCH  10   7
BRANCH  13  19
ATOM     19  C   UNL     1       3.208   0.116  22.076  0.00  0.00    +0.139 C 
BRANCH  19   9
ATOM      9  N   UNL     1       4.449   0.782  22.519  0.00  0.00    -0.192 NA
ATOM     25  H   UNL     1       4.347   1.799  22.633  0.00  0.00    +0.148 HD
BRANCH   9   1
ATOM      1  S   UNL     1       5.458  -0.006  23.647  0.00  0.00    +0.027 S 
ATOM      5  O   UNL     1       5.409   0.687  24.919  0.00  0.00    -0.158 OA
ATOM      6  O   UNL     1       6.726  -0.292  23.005  0.00  0.00    -0.158 OA
ATOM     22  C   UNL     1       4.597  -1.551  23.833  0.00  0.00    +0.214 C 
ENDBRANCH   9   1
ENDBRANCH  19   9
ENDBRANCH  13  19
TORSDOF 6
ENDMDL
MODEL 10
REMARK VINA RESULT:      -2.1      3.382      5.547
REMARK  Name = 75536655
REMARK  8 active torsions:
REMARK  status: ('A' for Active; 'I' for Inactive)
REMARK    1  A    between atoms: S_1  and  N_9
REMARK    2  A    between atoms: S_1  and  C_22
REMARK    3  A    between atoms: O_3  and  C_12
REMARK    4  A    between atoms: N_7  and  C_10
REMARK    5  A    between atoms: N_7  and  C_11
REMARK    6  A    between atoms: N_9  and  C_19
REMARK    7  A    between atoms: C_13  and  C_19
REMARK    8  A    between atoms: C_20  and  C_21
REMARK                            x       y       z     vdW  Elec       q    Type
REMARK                         _______ _______ _______ _____ _____    ______ ____
ROOT
ATOM      2  O   UNL     1       2.053   2.000  23.845  0.00  0.00    -0.371 OA
ATOM     10  C   UNL     1      -0.253   1.637  24.280  0.00  0.00    +0.111 C 
ATOM     12  C   UNL     1       0.233   0.595  23.289  0.00  0.00    +0.164 C 
ATOM     13  C   UNL     1       1.734   0.632  23.539  0.00  0.00    +0.164 C 
ATOM     14  C   UNL     1       0.834   2.692  24.165  0.00  0.00    +0.181 C 
ENDROOT
BRANCH  12   3
ATOM      3  O   UNL     1      -0.311  -0.687  23.533  0.00  0.00    -0.388 OA
ATOM     24  H   UNL     1       0.387  -1.348  23.387  0.00  0.00    +0.210 HD
ENDBRANCH  12   3
BRANCH  10   7
ATOM      7  N   UNL     1      -1.579   2.153  23.980  0.00  0.00    -0.306 NA
ATOM     23  H   UNL     1      -1.699   2.251  22.972  0.00  0.00    +0.123 HD
BRANCH   7  11
ATOM      4  O   UNL     1      -3.292  -3.527  25.593  0.00  0.00    -0.276 OA
ATOM      8  N   UNL     1      -3.742  -1.368  24.862  0.00  0.00    -0.302 N 
ATOM     11  C   UNL     1      -2.613   1.276  24.522  0.00  0.00    +0.057 C 
ATOM     15  C   UNL     1      -1.985   0.249  25.475  0.00  0.00    +0.037 C 
ATOM     16  C   UNL     1      -3.354   0.566  23.382  0.00  0.00    +0.037 C 
ATOM     17  C   UNL     1      -3.036  -0.739  25.980  0.00  0.00    +0.109 C 
ATOM     18  C   UNL     1      -4.377  -0.430  23.928  0.00  0.00    +0.109 C 
ATOM     20  C   UNL     1      -3.803  -2.759  24.775  0.00  0.00    +0.212 C 
ATOM     21  C   UNL     1      -4.546  -3.330  23.593  0.00  0.00    +0.109 C 
ENDBRANCH   7  11
ENDBRANCH  10   7
BRANCH  13  19
ATOM     19  C   UNL     1       2.553   0.168  22.346  0.00  0.00    +0.139 C 
BRANCH  19   9
ATOM      9  N   UNL     1       3.903   0.761  22.413  0.00  0.00    -0.192 NA
ATOM     25  H   UNL     1       3.899   1.789  22.387  0.00  0.00    +0.148 HD
BRANCH   9   1
ATOM      1  S   UNL     1       5.079   0.037  23.416  0.00  0.00    +0.027 S 
ATOM      5  O   UNL     1       5.179   0.768  24.663  0.00  0.00    -0.158 OA
ATOM      6  O   UNL     1       6.258  -0.234  22.617  0.00  0.00    -0.158 OA
ATOM     22  C   UNL     1       4.300  -1.525  23.758  0.00  0.00    +0.214 C 
ENDBRANCH   9   1
ENDBRANCH  19   9
ENDBRANCH  13  19
TORSDOF 6
ENDMDL
