MODEL 1
REMARK VINA RESULT:       2.4      0.000      0.000
REMARK  Name = 11865521
REMARK  10 active torsions:
REMARK  status: ('A' for Active; 'I' for Inactive)
REMARK    1  A    between atoms: O_1  and  C_11
REMARK    2  A    between atoms: O_2  and  C_13
REMARK    3  A    between atoms: N_7  and  C_12
REMARK    4  A    between atoms: N_8  and  C_19
REMARK    5  A    between atoms: N_9  and  C_21
REMARK    6  A    between atoms: C_15  and  C_17
REMARK    7  A    between atoms: C_19  and  C_20
REMARK    8  A    between atoms: C_20  and  C_24
REMARK    9  A    between atoms: C_27  and  C_28
REMARK   10  A    between atoms: C_28  and  C_29
REMARK                            x       y       z     vdW  Elec       q    Type
REMARK                         _______ _______ _______ _____ _____    ______ ____
ROOT
ATOM     11  C   UNL     1      -5.788  -9.399   8.867  0.00  0.00    +0.167 C 
ATOM     12  C   UNL     1      -5.355  -8.875  10.249  0.00  0.00    +0.129 C 
ATOM     13  C   UNL     1      -7.299  -9.249   8.655  0.00  0.00    +0.149 C 
ATOM     14  C   UNL     1      -8.110  -9.940   9.765  0.00  0.00    +0.074 C 
ATOM     15  C   UNL     1      -7.501  -9.791  11.131  0.00  0.00    +0.015 C 
ATOM     16  C   UNL     1      -6.271  -9.307  11.362  0.00  0.00    +0.006 C 
ENDROOT
BRANCH  12   7
ATOM      4  O   UNL     1      -3.110  -7.148  10.679  0.00  0.00    -0.252 OA
ATOM      7  N   UNL     1      -4.008  -9.276  10.571  0.00  0.00    -0.290 N 
ATOM      9  N   UNL     1      -1.777  -9.041  11.066  0.00  0.00    -0.269 N 
ATOM     18  C   UNL     1      -2.963  -8.365  10.768  0.00  0.00    +0.304 C 
ATOM     30  H   UNL     1      -3.791 -10.269  10.609  0.00  0.00    +0.151 HD
ATOM     34  H   UNL     1      -1.827 -10.056  11.102  0.00  0.00    +0.156 HD
BRANCH   9  21
ATOM     21  C   UNL     1      -0.504  -8.485  11.329  0.00  0.00    +0.035 A 
ATOM     22  C   UNL     1       0.602  -8.888  10.580  0.00  0.00    +0.024 A 
ATOM     23  C   UNL     1      -0.353  -7.534  12.339  0.00  0.00    +0.024 A 
ATOM     25  C   UNL     1       1.858  -8.340  10.841  0.00  0.00    +0.013 A 
ATOM     26  C   UNL     1       0.903  -6.987  12.600  0.00  0.00    +0.013 A 
ATOM     27  C   UNL     1       2.009  -7.390  11.851  0.00  0.00    +0.017 A 
BRANCH  27  28
ATOM      6  O   UNL     1       3.457  -5.610  12.397  0.00  0.00    -0.292 OA
ATOM     28  C   UNL     1       3.319  -6.819  12.122  0.00  0.00    +0.160 C 
ATOM     29  C   UNL     1       4.565  -7.697  12.075  0.00  0.00    +0.091 C 
ENDBRANCH  27  28
ENDBRANCH   9  21
ENDBRANCH  12   7
BRANCH  15  17
ATOM      3  O   UNL     1      -7.802 -10.781  13.239  0.00  0.00    -0.271 OA
ATOM      8  N   UNL     1      -9.631  -9.794  12.183  0.00  0.00    -0.311 N 
ATOM     17  C   UNL     1      -8.306 -10.178  12.293  0.00  0.00    +0.240 C 
ATOM     33  H   UNL     1      -9.942  -9.288  11.358  0.00  0.00    +0.149 HD
BRANCH   8  19
ATOM     19  C   UNL     1     -10.619 -10.066  13.203  0.00  0.00    +0.113 C 
BRANCH  19  20
ATOM     20  C   UNL     1     -10.642  -8.993  14.283  0.00  0.00    +0.114 C 
BRANCH  20  24
ATOM      5  O   UNL     1     -10.385 -10.038  16.460  0.00  0.00    -0.276 OA
ATOM     10  N   UNL     1      -8.592  -8.929  15.543  0.00  0.00    -0.329 N 
ATOM     24  C   UNL     1      -9.892  -9.390  15.542  0.00  0.00    +0.212 C 
ATOM     35  H   UNL     1      -7.973  -9.117  16.324  0.00  0.00    +0.145 HD
ATOM     36  H   UNL     1      -8.207  -8.392  14.772  0.00  0.00    +0.145 HD
ENDBRANCH  20  24
ENDBRANCH  19  20
ENDBRANCH   8  19
ENDBRANCH  15  17
BRANCH  11   1
ATOM      1  O   UNL     1      -5.443 -10.781   8.748  0.00  0.00    -0.387 OA
ATOM     31  H   UNL     1      -5.175 -11.093   9.629  0.00  0.00    +0.210 HD
ENDBRANCH  11   1
BRANCH  13   2
ATOM      2  O   UNL     1      -7.650  -7.869   8.582  0.00  0.00    -0.389 OA
ATOM     32  H   UNL     1      -6.899  -7.395   8.185  0.00  0.00    +0.210 HD
ENDBRANCH  13   2
TORSDOF 9
ENDMDL
MODEL 2
REMARK VINA RESULT:       2.9     14.957     16.643
REMARK  Name = 11865521
REMARK  10 active torsions:
REMARK  status: ('A' for Active; 'I' for Inactive)
REMARK    1  A    between atoms: O_1  and  C_11
REMARK    2  A    between atoms: O_2  and  C_13
REMARK    3  A    between atoms: N_7  and  C_12
REMARK    4  A    between atoms: N_8  and  C_19
REMARK    5  A    between atoms: N_9  and  C_21
REMARK    6  A    between atoms: C_15  and  C_17
REMARK    7  A    between atoms: C_19  and  C_20
REMARK    8  A    between atoms: C_20  and  C_24
REMARK    9  A    between atoms: C_27  and  C_28
REMARK   10  A    between atoms: C_28  and  C_29
REMARK                            x       y       z     vdW  Elec       q    Type
REMARK                         _______ _______ _______ _____ _____    ______ ____
ROOT
ATOM     11  C   UNL     1      -2.844   4.217  24.625  0.00  0.00    +0.167 C 
ATOM     12  C   UNL     1      -2.083   2.926  24.981  0.00  0.00    +0.129 C 
ATOM     13  C   UNL     1      -4.248   4.231  25.242  0.00  0.00    +0.149 C 
ATOM     14  C   UNL     1      -5.072   2.997  24.836  0.00  0.00    +0.074 C 
ATOM     15  C   UNL     1      -4.263   1.732  24.781  0.00  0.00    +0.015 C 
ATOM     16  C   UNL     1      -2.924   1.685  24.854  0.00  0.00    +0.006 C 
ENDROOT
BRANCH  12   7
ATOM      4  O   UNL     1       0.037   1.046  25.402  0.00  0.00    -0.252 OA
ATOM      7  N   UNL     1      -0.896   2.770  24.177  0.00  0.00    -0.290 N 
ATOM      9  N   UNL     1       1.122   1.902  23.506  0.00  0.00    -0.269 N 
ATOM     18  C   UNL     1       0.096   1.822  24.451  0.00  0.00    +0.304 C 
ATOM     30  H   UNL     1      -0.745   3.411  23.402  0.00  0.00    +0.151 HD
ATOM     34  H   UNL     1       1.016   2.604  22.777  0.00  0.00    +0.156 HD
BRANCH   9  21
ATOM     21  C   UNL     1       2.299   1.122  23.432  0.00  0.00    +0.035 A 
ATOM     22  C   UNL     1       2.229  -0.263  23.590  0.00  0.00    +0.024 A 
ATOM     23  C   UNL     1       3.530   1.737  23.204  0.00  0.00    +0.024 A 
ATOM     25  C   UNL     1       3.391  -1.032  23.518  0.00  0.00    +0.013 A 
ATOM     26  C   UNL     1       4.691   0.968  23.132  0.00  0.00    +0.013 A 
ATOM     27  C   UNL     1       4.622  -0.417  23.290  0.00  0.00    +0.017 A 
BRANCH  27  28
ATOM      6  O   UNL     1       5.829  -2.431  23.514  0.00  0.00    -0.292 OA
ATOM     28  C   UNL     1       5.832  -1.220  23.215  0.00  0.00    +0.160 C 
ATOM     29  C   UNL     1       7.145  -0.590  22.762  0.00  0.00    +0.091 C 
ENDBRANCH  27  28
ENDBRANCH   9  21
ENDBRANCH  12   7
BRANCH  15  17
ATOM      3  O   UNL     1      -6.165   0.367  24.979  0.00  0.00    -0.271 OA
ATOM      8  N   UNL     1      -4.184  -0.565  24.175  0.00  0.00    -0.311 N 
ATOM     17  C   UNL     1      -4.979   0.458  24.662  0.00  0.00    +0.240 C 
ATOM     33  H   UNL     1      -3.215  -0.378  23.934  0.00  0.00    +0.149 HD
BRANCH   8  19
ATOM     19  C   UNL     1      -4.668  -1.912  23.972  0.00  0.00    +0.113 C 
BRANCH  19  20
ATOM     20  C   UNL     1      -3.634  -2.959  24.362  0.00  0.00    +0.114 C 
BRANCH  20  24
ATOM      5  O   UNL     1      -2.198  -1.654  25.823  0.00  0.00    -0.276 OA
ATOM     10  N   UNL     1      -1.269  -2.695  23.996  0.00  0.00    -0.329 N 
ATOM     24  C   UNL     1      -2.318  -2.361  24.828  0.00  0.00    +0.212 C 
ATOM     35  H   UNL     1      -0.329  -2.362  24.183  0.00  0.00    +0.145 HD
ATOM     36  H   UNL     1      -1.393  -3.280  23.175  0.00  0.00    +0.145 HD
ENDBRANCH  20  24
ENDBRANCH  19  20
ENDBRANCH   8  19
ENDBRANCH  15  17
BRANCH  11   1
ATOM      1  O   UNL     1      -2.966   4.325  23.205  0.00  0.00    -0.387 OA
ATOM     31  H   UNL     1      -2.150   4.734  22.871  0.00  0.00    +0.210 HD
ENDBRANCH  11   1
BRANCH  13   2
ATOM      2  O   UNL     1      -4.158   4.312  26.663  0.00  0.00    -0.389 OA
ATOM     32  H   UNL     1      -5.065   4.308  27.016  0.00  0.00    +0.210 HD
ENDBRANCH  13   2
TORSDOF 9
ENDMDL
MODEL 3
REMARK VINA RESULT:       3.6     15.282     16.678
REMARK  Name = 11865521
REMARK  10 active torsions:
REMARK  status: ('A' for Active; 'I' for Inactive)
REMARK    1  A    between atoms: O_1  and  C_11
REMARK    2  A    between atoms: O_2  and  C_13
REMARK    3  A    between atoms: N_7  and  C_12
REMARK    4  A    between atoms: N_8  and  C_19
REMARK    5  A    between atoms: N_9  and  C_21
REMARK    6  A    between atoms: C_15  and  C_17
REMARK    7  A    between atoms: C_19  and  C_20
REMARK    8  A    between atoms: C_20  and  C_24
REMARK    9  A    between atoms: C_27  and  C_28
REMARK   10  A    between atoms: C_28  and  C_29
REMARK                            x       y       z     vdW  Elec       q    Type
REMARK                         _______ _______ _______ _____ _____    ______ ____
ROOT
ATOM     11  C   UNL     1      -1.862  -1.608  24.841  0.00  0.00    +0.167 C 
ATOM     12  C   UNL     1      -2.053  -0.528  23.759  0.00  0.00    +0.129 C 
ATOM     13  C   UNL     1      -3.208  -2.124  25.365  0.00  0.00    +0.149 C 
ATOM     14  C   UNL     1      -4.096  -0.986  25.899  0.00  0.00    +0.074 C 
ATOM     15  C   UNL     1      -4.016   0.269  25.076  0.00  0.00    +0.015 C 
ATOM     16  C   UNL     1      -3.112   0.484  24.109  0.00  0.00    +0.006 C 
ENDROOT
BRANCH  12   7
ATOM      4  O   UNL     1       0.590  -1.627  23.857  0.00  0.00    -0.252 OA
ATOM      7  N   UNL     1      -0.821   0.165  23.476  0.00  0.00    -0.290 N 
ATOM      9  N   UNL     1       1.442   0.465  23.220  0.00  0.00    -0.269 N 
ATOM     18  C   UNL     1       0.436  -0.448  23.546  0.00  0.00    +0.304 C 
ATOM     30  H   UNL     1      -0.858   1.159  23.264  0.00  0.00    +0.151 HD
ATOM     34  H   UNL     1       1.143   1.409  22.984  0.00  0.00    +0.156 HD
BRANCH   9  21
ATOM     21  C   UNL     1       2.837   0.241  23.174  0.00  0.00    +0.035 A 
ATOM     22  C   UNL     1       3.362  -0.979  23.602  0.00  0.00    +0.024 A 
ATOM     23  C   UNL     1       3.689   1.240  22.702  0.00  0.00    +0.024 A 
ATOM     25  C   UNL     1       4.739  -1.200  23.558  0.00  0.00    +0.013 A 
ATOM     26  C   UNL     1       5.066   1.019  22.658  0.00  0.00    +0.013 A 
ATOM     27  C   UNL     1       5.591  -0.201  23.086  0.00  0.00    +0.017 A 
BRANCH  27  28
ATOM      6  O   UNL     1       7.515  -1.343  22.340  0.00  0.00    -0.292 OA
ATOM     28  C   UNL     1       7.026  -0.433  23.039  0.00  0.00    +0.160 C 
ATOM     29  C   UNL     1       7.973   0.444  23.852  0.00  0.00    +0.091 C 
ENDBRANCH  27  28
ENDBRANCH   9  21
ENDBRANCH  12   7
BRANCH  15  17
ATOM      3  O   UNL     1      -6.143   1.049  25.696  0.00  0.00    -0.271 OA
ATOM      8  N   UNL     1      -4.500   2.595  25.108  0.00  0.00    -0.311 N 
ATOM     17  C   UNL     1      -5.001   1.324  25.329  0.00  0.00    +0.240 C 
ATOM     33  H   UNL     1      -3.534   2.711  24.813  0.00  0.00    +0.149 HD
BRANCH   8  19
ATOM     19  C   UNL     1      -5.284   3.795  25.288  0.00  0.00    +0.113 C 
BRANCH  19  20
ATOM     20  C   UNL     1      -4.424   4.994  25.664  0.00  0.00    +0.114 C 
BRANCH  20  24
ATOM      5  O   UNL     1      -2.672   3.809  26.857  0.00  0.00    -0.276 OA
ATOM     10  N   UNL     1      -2.080   5.322  25.231  0.00  0.00    -0.329 N 
ATOM     24  C   UNL     1      -2.990   4.625  25.997  0.00  0.00    +0.212 C 
ATOM     35  H   UNL     1      -1.082   5.180  25.347  0.00  0.00    +0.145 HD
ATOM     36  H   UNL     1      -2.366   5.996  24.527  0.00  0.00    +0.145 HD
ENDBRANCH  20  24
ENDBRANCH  19  20
ENDBRANCH   8  19
ENDBRANCH  15  17
BRANCH  11   1
ATOM      1  O   UNL     1      -1.121  -1.064  25.935  0.00  0.00    -0.387 OA
ATOM     31  H   UNL     1      -0.320  -0.651  25.571  0.00  0.00    +0.210 HD
ENDBRANCH  11   1
BRANCH  13   2
ATOM      2  O   UNL     1      -3.893  -2.838  24.339  0.00  0.00    -0.389 OA
ATOM     32  H   UNL     1      -3.696  -3.783  24.456  0.00  0.00    +0.210 HD
ENDBRANCH  13   2
TORSDOF 9
ENDMDL
MODEL 4
REMARK VINA RESULT:       3.6     15.331     17.078
REMARK  Name = 11865521
REMARK  10 active torsions:
REMARK  status: ('A' for Active; 'I' for Inactive)
REMARK    1  A    between atoms: O_1  and  C_11
REMARK    2  A    between atoms: O_2  and  C_13
REMARK    3  A    between atoms: N_7  and  C_12
REMARK    4  A    between atoms: N_8  and  C_19
REMARK    5  A    between atoms: N_9  and  C_21
REMARK    6  A    between atoms: C_15  and  C_17
REMARK    7  A    between atoms: C_19  and  C_20
REMARK    8  A    between atoms: C_20  and  C_24
REMARK    9  A    between atoms: C_27  and  C_28
REMARK   10  A    between atoms: C_28  and  C_29
REMARK                            x       y       z     vdW  Elec       q    Type
REMARK                         _______ _______ _______ _____ _____    ______ ____
ROOT
ATOM     11  C   UNL     1      -4.261  -0.636  24.948  0.00  0.00    +0.167 C 
ATOM     12  C   UNL     1      -3.495  -0.120  23.714  0.00  0.00    +0.129 C 
ATOM     13  C   UNL     1      -5.468   0.252  25.273  0.00  0.00    +0.149 C 
ATOM     14  C   UNL     1      -5.067   1.724  25.472  0.00  0.00    +0.074 C 
ATOM     15  C   UNL     1      -4.001   2.186  24.518  0.00  0.00    +0.015 C 
ATOM     16  C   UNL     1      -3.296   1.372  23.719  0.00  0.00    +0.006 C 
ENDROOT
BRANCH  12   7
ATOM      4  O   UNL     1      -0.929   1.151  23.777  0.00  0.00    -0.252 OA
ATOM      7  N   UNL     1      -2.211  -0.763  23.579  0.00  0.00    -0.290 N 
ATOM      9  N   UNL     1       0.075  -0.948  23.464  0.00  0.00    -0.269 N 
ATOM     18  C   UNL     1      -0.998  -0.067  23.622  0.00  0.00    +0.304 C 
ATOM     30  H   UNL     1      -2.185  -1.762  23.392  0.00  0.00    +0.151 HD
ATOM     34  H   UNL     1      -0.156  -1.931  23.347  0.00  0.00    +0.156 HD
BRANCH   9  21
ATOM     21  C   UNL     1       1.456  -0.641  23.450  0.00  0.00    +0.035 A 
ATOM     22  C   UNL     1       1.887   0.615  23.023  0.00  0.00    +0.024 A 
ATOM     23  C   UNL     1       2.386  -1.596  23.860  0.00  0.00    +0.024 A 
ATOM     25  C   UNL     1       3.249   0.917  23.008  0.00  0.00    +0.013 A 
ATOM     26  C   UNL     1       3.748  -1.295  23.845  0.00  0.00    +0.013 A 
ATOM     27  C   UNL     1       4.179  -0.038  23.418  0.00  0.00    +0.017 A 
BRANCH  27  28
ATOM      6  O   UNL     1       6.045   1.298  23.965  0.00  0.00    -0.292 OA
ATOM     28  C   UNL     1       5.599   0.277  23.403  0.00  0.00    +0.160 C 
ATOM     29  C   UNL     1       6.584  -0.645  22.692  0.00  0.00    +0.091 C 
ENDBRANCH  27  28
ENDBRANCH   9  21
ENDBRANCH  12   7
BRANCH  15  17
ATOM      3  O   UNL     1      -4.311   4.335  23.622  0.00  0.00    -0.271 OA
ATOM      8  N   UNL     1      -2.765   4.040  25.343  0.00  0.00    -0.311 N 
ATOM     17  C   UNL     1      -3.723   3.623  24.436  0.00  0.00    +0.240 C 
ATOM     33  H   UNL     1      -2.348   3.367  25.980  0.00  0.00    +0.149 HD
BRANCH   8  19
ATOM     19  C   UNL     1      -2.323   5.412  25.449  0.00  0.00    +0.113 C 
BRANCH  19  20
ATOM     20  C   UNL     1      -0.884   5.591  24.984  0.00  0.00    +0.114 C 
BRANCH  20  24
ATOM      5  O   UNL     1       0.138   3.482  25.621  0.00  0.00    -0.276 OA
ATOM     10  N   UNL     1       0.125   4.082  23.402  0.00  0.00    -0.329 N 
ATOM     24  C   UNL     1      -0.164   4.277  24.737  0.00  0.00    +0.212 C 
ATOM     35  H   UNL     1       0.608   3.247  23.090  0.00  0.00    +0.145 HD
ATOM     36  H   UNL     1      -0.132   4.756  22.687  0.00  0.00    +0.145 HD
ENDBRANCH  20  24
ENDBRANCH  19  20
ENDBRANCH   8  19
ENDBRANCH  15  17
BRANCH  11   1
ATOM      1  O   UNL     1      -3.389  -0.657  26.080  0.00  0.00    -0.387 OA
ATOM     31  H   UNL     1      -2.482  -0.526  25.753  0.00  0.00    +0.210 HD
ENDBRANCH  11   1
BRANCH  13   2
ATOM      2  O   UNL     1      -6.447   0.148  24.241  0.00  0.00    -0.389 OA
ATOM     32  H   UNL     1      -7.173  -0.404  24.579  0.00  0.00    +0.210 HD
ENDBRANCH  13   2
TORSDOF 9
ENDMDL
MODEL 5
REMARK VINA RESULT:       4.0     14.602     16.427
REMARK  Name = 11865521
REMARK  10 active torsions:
REMARK  status: ('A' for Active; 'I' for Inactive)
REMARK    1  A    between atoms: O_1  and  C_11
REMARK    2  A    between atoms: O_2  and  C_13
REMARK    3  A    between atoms: N_7  and  C_12
REMARK    4  A    between atoms: N_8  and  C_19
REMARK    5  A    between atoms: N_9  and  C_21
REMARK    6  A    between atoms: C_15  and  C_17
REMARK    7  A    between atoms: C_19  and  C_20
REMARK    8  A    between atoms: C_20  and  C_24
REMARK    9  A    between atoms: C_27  and  C_28
REMARK   10  A    between atoms: C_28  and  C_29
REMARK                            x       y       z     vdW  Elec       q    Type
REMARK                         _______ _______ _______ _____ _____    ______ ____
ROOT
ATOM     11  C   UNL     1      -3.143   3.683  23.260  0.00  0.00    +0.167 C 
ATOM     12  C   UNL     1      -2.105   2.957  24.136  0.00  0.00    +0.129 C 
ATOM     13  C   UNL     1      -4.480   3.851  23.993  0.00  0.00    +0.149 C 
ATOM     14  C   UNL     1      -5.043   2.506  24.484  0.00  0.00    +0.074 C 
ATOM     15  C   UNL     1      -3.987   1.571  25.003  0.00  0.00    +0.015 C 
ATOM     16  C   UNL     1      -2.668   1.765  24.862  0.00  0.00    +0.006 C 
ENDROOT
BRANCH  12   7
ATOM      4  O   UNL     1       0.192   1.548  25.109  0.00  0.00    -0.252 OA
ATOM      7  N   UNL     1      -0.960   2.537  23.365  0.00  0.00    -0.290 N 
ATOM      9  N   UNL     1       1.080   1.574  22.937  0.00  0.00    -0.269 N 
ATOM     18  C   UNL     1       0.125   1.848  23.919  0.00  0.00    +0.304 C 
ATOM     30  H   UNL     1      -0.913   2.796  22.383  0.00  0.00    +0.151 HD
ATOM     34  H   UNL     1       0.870   1.893  21.994  0.00  0.00    +0.156 HD
BRANCH   9  21
ATOM     21  C   UNL     1       2.314   0.899  23.089  0.00  0.00    +0.035 A 
ATOM     22  C   UNL     1       3.513   1.601  22.961  0.00  0.00    +0.024 A 
ATOM     23  C   UNL     1       2.331  -0.468  23.365  0.00  0.00    +0.024 A 
ATOM     25  C   UNL     1       4.730   0.935  23.111  0.00  0.00    +0.013 A 
ATOM     26  C   UNL     1       3.548  -1.134  23.515  0.00  0.00    +0.013 A 
ATOM     27  C   UNL     1       4.747  -0.433  23.387  0.00  0.00    +0.017 A 
BRANCH  27  28
ATOM      6  O   UNL     1       6.078  -2.260  24.060  0.00  0.00    -0.292 OA
ATOM     28  C   UNL     1       6.016  -1.126  23.543  0.00  0.00    +0.160 C 
ATOM     29  C   UNL     1       7.311  -0.474  23.072  0.00  0.00    +0.091 C 
ENDBRANCH  27  28
ENDBRANCH   9  21
ENDBRANCH  12   7
BRANCH  15  17
ATOM      3  O   UNL     1      -5.579   0.264  26.134  0.00  0.00    -0.271 OA
ATOM      8  N   UNL     1      -3.409  -0.555  25.894  0.00  0.00    -0.311 N 
ATOM     17  C   UNL     1      -4.421   0.375  25.731  0.00  0.00    +0.240 C 
ATOM     33  H   UNL     1      -2.487  -0.367  25.512  0.00  0.00    +0.149 HD
BRANCH   8  19
ATOM     19  C   UNL     1      -3.595  -1.812  26.582  0.00  0.00    +0.113 C 
BRANCH  19  20
ATOM     20  C   UNL     1      -3.286  -3.008  25.691  0.00  0.00    +0.114 C 
BRANCH  20  24
ATOM      5  O   UNL     1      -4.074  -2.359  23.488  0.00  0.00    -0.276 OA
ATOM     10  N   UNL     1      -1.820  -2.678  23.811  0.00  0.00    -0.329 N 
ATOM     24  C   UNL     1      -3.135  -2.643  24.225  0.00  0.00    +0.212 C 
ATOM     35  H   UNL     1      -1.570  -2.459  22.852  0.00  0.00    +0.145 HD
ATOM     36  H   UNL     1      -1.060  -2.919  24.438  0.00  0.00    +0.145 HD
ENDBRANCH  20  24
ENDBRANCH  19  20
ENDBRANCH   8  19
ENDBRANCH  15  17
BRANCH  11   1
ATOM      1  O   UNL     1      -3.367   2.936  22.063  0.00  0.00    -0.387 OA
ATOM     31  H   UNL     1      -2.561   2.424  21.881  0.00  0.00    +0.210 HD
ENDBRANCH  11   1
BRANCH  13   2
ATOM      2  O   UNL     1      -4.328   4.747  25.092  0.00  0.00    -0.389 OA
ATOM     32  H   UNL     1      -3.991   4.233  25.846  0.00  0.00    +0.210 HD
ENDBRANCH  13   2
TORSDOF 9
ENDMDL
