MODEL 1
REMARK VINA RESULT:      -6.7      0.000      0.000
REMARK  Name = 75536498
REMARK  7 active torsions:
REMARK  status: ('A' for Active; 'I' for Inactive)
REMARK    1  A    between atoms: O_2  and  C_10
REMARK    2  A    between atoms: N_5  and  C_8
REMARK    3  A    between atoms: N_5  and  C_9
REMARK    4  A    between atoms: N_7  and  C_17
REMARK    5  A    between atoms: C_11  and  C_17
REMARK    6  A    between atoms: C_18  and  C_19
REMARK    7  A    between atoms: C_20  and  C_21
REMARK                            x       y       z     vdW  Elec       q    Type
REMARK                         _______ _______ _______ _____ _____    ______ ____
ROOT
ATOM      1  O   UNL     1      -0.883   0.178  23.984  0.00  0.00    -0.371 OA
ATOM      8  C   UNL     1      -0.069   2.341  24.534  0.00  0.00    +0.111 C 
ATOM     10  C   UNL     1      -0.683   1.713  25.772  0.00  0.00    +0.164 C 
ATOM     11  C   UNL     1      -0.648   0.237  25.401  0.00  0.00    +0.165 C 
ATOM     14  C   UNL     1      -0.679   1.490  23.432  0.00  0.00    +0.181 C 
ENDROOT
BRANCH  10   2
ATOM      2  O   UNL     1       0.060   1.979  26.945  0.00  0.00    -0.388 OA
ATOM     23  H   UNL     1      -0.545   1.946  27.705  0.00  0.00    +0.210 HD
ENDBRANCH  10   2
BRANCH   8   5
ATOM      5  N   UNL     1      -0.367   3.756  24.389  0.00  0.00    -0.306 NA
ATOM     22  H   UNL     1       0.048   4.117  23.532  0.00  0.00    +0.123 HD
BRANCH   5   9
ATOM      3  O   UNL     1      -5.874   2.500  26.818  0.00  0.00    -0.276 OA
ATOM      6  N   UNL     1      -4.494   3.141  25.063  0.00  0.00    -0.302 N 
ATOM      9  C   UNL     1      -1.811   3.984  24.378  0.00  0.00    +0.057 C 
ATOM     12  C   UNL     1      -2.340   4.076  25.814  0.00  0.00    +0.037 C 
ATOM     13  C   UNL     1      -2.516   2.854  23.617  0.00  0.00    +0.037 C 
ATOM     15  C   UNL     1      -3.861   4.218  25.827  0.00  0.00    +0.109 C 
ATOM     16  C   UNL     1      -4.035   3.020  23.673  0.00  0.00    +0.109 C 
ATOM     18  C   UNL     1      -5.480   2.355  25.658  0.00  0.00    +0.212 C 
ATOM     19  C   UNL     1      -6.081   1.265  24.807  0.00  0.00    +0.109 C 
ENDBRANCH   5   9
ENDBRANCH   8   5
BRANCH  11  17
ATOM     17  C   UNL     1      -1.693  -0.590  26.129  0.00  0.00    +0.138 C 
BRANCH  17   7
ATOM      4  O   UNL     1      -2.257  -2.872  24.424  0.00  0.00    -0.276 OA
ATOM      7  N   UNL     1      -2.853  -0.801  25.311  0.00  0.00    -0.313 N 
ATOM     20  C   UNL     1      -3.040  -1.932  24.523  0.00  0.00    +0.210 C 
ATOM     21  C   UNL     1      -4.354  -1.911  23.787  0.00  0.00    +0.109 C 
ATOM     24  H   UNL     1      -3.569  -0.081  25.314  0.00  0.00    +0.149 HD
ENDBRANCH  17   7
ENDBRANCH  11  17
TORSDOF 5
ENDMDL
MODEL 2
REMARK VINA RESULT:      -6.0      1.562      4.868
REMARK  Name = 75536498
REMARK  7 active torsions:
REMARK  status: ('A' for Active; 'I' for Inactive)
REMARK    1  A    between atoms: O_2  and  C_10
REMARK    2  A    between atoms: N_5  and  C_8
REMARK    3  A    between atoms: N_5  and  C_9
REMARK    4  A    between atoms: N_7  and  C_17
REMARK    5  A    between atoms: C_11  and  C_17
REMARK    6  A    between atoms: C_18  and  C_19
REMARK    7  A    between atoms: C_20  and  C_21
REMARK                            x       y       z     vdW  Elec       q    Type
REMARK                         _______ _______ _______ _____ _____    ______ ____
ROOT
ATOM      1  O   UNL     1      -0.749   3.662  26.520  0.00  0.00    -0.371 OA
ATOM      8  C   UNL     1       0.015   2.411  24.651  0.00  0.00    +0.111 C 
ATOM     10  C   UNL     1      -1.422   2.833  24.410  0.00  0.00    +0.164 C 
ATOM     11  C   UNL     1      -1.551   4.001  25.376  0.00  0.00    +0.165 C 
ATOM     14  C   UNL     1       0.131   2.584  26.157  0.00  0.00    +0.181 C 
ENDROOT
BRANCH  10   2
ATOM      2  O   UNL     1      -1.659   3.226  23.072  0.00  0.00    -0.388 OA
ATOM     23  H   UNL     1      -1.185   4.059  22.909  0.00  0.00    +0.210 HD
ENDBRANCH  10   2
BRANCH   8   5
ATOM      5  N   UNL     1       0.308   1.057  24.212  0.00  0.00    -0.306 NA
ATOM     22  H   UNL     1       1.276   0.820  24.421  0.00  0.00    +0.123 HD
BRANCH   5   9
ATOM      3  O   UNL     1      -3.142  -4.009  23.722  0.00  0.00    -0.276 OA
ATOM      6  N   UNL     1      -2.623  -1.954  24.671  0.00  0.00    -0.302 N 
ATOM      9  C   UNL     1      -0.590   0.098  24.854  0.00  0.00    +0.057 C 
ATOM     12  C   UNL     1      -0.255  -1.326  24.393  0.00  0.00    +0.037 C 
ATOM     13  C   UNL     1      -2.048   0.441  24.525  0.00  0.00    +0.037 C 
ATOM     15  C   UNL     1      -1.243  -2.334  24.978  0.00  0.00    +0.109 C 
ATOM     16  C   UNL     1      -3.001  -0.603  25.108  0.00  0.00    +0.109 C 
ATOM     18  C   UNL     1      -3.473  -2.867  24.048  0.00  0.00    +0.212 C 
ATOM     19  C   UNL     1      -4.878  -2.398  23.763  0.00  0.00    +0.109 C 
ENDBRANCH   5   9
ENDBRANCH   8   5
BRANCH  11  17
ATOM     17  C   UNL     1      -2.982   4.264  25.813  0.00  0.00    +0.138 C 
BRANCH  17   7
ATOM      4  O   UNL     1      -5.886   4.236  25.774  0.00  0.00    -0.276 OA
ATOM      7  N   UNL     1      -3.838   3.161  25.482  0.00  0.00    -0.313 N 
ATOM     20  C   UNL     1      -5.227   3.239  25.489  0.00  0.00    +0.210 C 
ATOM     21  C   UNL     1      -5.880   1.946  25.078  0.00  0.00    +0.109 C 
ATOM     24  H   UNL     1      -3.398   2.280  25.232  0.00  0.00    +0.149 HD
ENDBRANCH  17   7
ENDBRANCH  11  17
TORSDOF 5
ENDMDL
MODEL 3
REMARK VINA RESULT:      -5.9     15.192     18.052
REMARK  Name = 75536498
REMARK  7 active torsions:
REMARK  status: ('A' for Active; 'I' for Inactive)
REMARK    1  A    between atoms: O_2  and  C_10
REMARK    2  A    between atoms: N_5  and  C_8
REMARK    3  A    between atoms: N_5  and  C_9
REMARK    4  A    between atoms: N_7  and  C_17
REMARK    5  A    between atoms: C_11  and  C_17
REMARK    6  A    between atoms: C_18  and  C_19
REMARK    7  A    between atoms: C_20  and  C_21
REMARK                            x       y       z     vdW  Elec       q    Type
REMARK                         _______ _______ _______ _____ _____    ______ ____
ROOT
ATOM      1  O   UNL     1      -6.711  -9.721  13.541  0.00  0.00    -0.371 OA
ATOM      8  C   UNL     1      -8.266  -9.630  11.747  0.00  0.00    +0.111 C 
ATOM     10  C   UNL     1      -8.970 -10.149  12.986  0.00  0.00    +0.164 C 
ATOM     11  C   UNL     1      -8.041  -9.650  14.083  0.00  0.00    +0.165 C 
ATOM     14  C   UNL     1      -6.808  -9.858  12.112  0.00  0.00    +0.181 C 
ENDROOT
BRANCH  10   2
ATOM      2  O   UNL     1     -10.279  -9.631  13.128  0.00  0.00    -0.388 OA
ATOM     23  H   UNL     1     -10.556  -9.260  12.273  0.00  0.00    +0.210 HD
ENDBRANCH  10   2
BRANCH   8   5
ATOM      5  N   UNL     1      -8.657 -10.312  10.524  0.00  0.00    -0.306 NA
ATOM     22  H   UNL     1      -9.454 -10.921  10.701  0.00  0.00    +0.123 HD
BRANCH   5   9
ATOM      3  O   UNL     1      -8.433  -4.512   8.497  0.00  0.00    -0.276 OA
ATOM      6  N   UNL     1      -9.405  -6.618   8.612  0.00  0.00    -0.302 N 
ATOM      9  C   UNL     1      -8.988  -9.349   9.476  0.00  0.00    +0.057 C 
ATOM     12  C   UNL     1      -7.813  -8.388   9.254  0.00  0.00    +0.037 C 
ATOM     13  C   UNL     1     -10.254  -8.571   9.856  0.00  0.00    +0.037 C 
ATOM     15  C   UNL     1      -8.175  -7.314   8.230  0.00  0.00    +0.109 C 
ATOM     16  C   UNL     1     -10.567  -7.492   8.820  0.00  0.00    +0.109 C 
ATOM     18  C   UNL     1      -9.414  -5.227   8.711  0.00  0.00    +0.212 C 
ATOM     19  C   UNL     1     -10.719  -4.587   9.113  0.00  0.00    +0.109 C 
ENDBRANCH   5   9
ENDBRANCH   8   5
BRANCH  11  17
ATOM     17  C   UNL     1      -8.120 -10.473  15.357  0.00  0.00    +0.138 C 
BRANCH  17   7
ATOM      4  O   UNL     1      -7.273  -9.791  18.050  0.00  0.00    -0.276 OA
ATOM      7  N   UNL     1      -6.821 -10.662  15.937  0.00  0.00    -0.313 N 
ATOM     20  C   UNL     1      -6.504 -10.304  17.243  0.00  0.00    +0.210 C 
ATOM     21  C   UNL     1      -5.079 -10.637  17.603  0.00  0.00    +0.109 C 
ATOM     24  H   UNL     1      -6.101 -11.080  15.354  0.00  0.00    +0.149 HD
ENDBRANCH  17   7
ENDBRANCH  11  17
TORSDOF 5
ENDMDL
MODEL 4
REMARK VINA RESULT:      -5.9      2.071      5.693
REMARK  Name = 75536498
REMARK  7 active torsions:
REMARK  status: ('A' for Active; 'I' for Inactive)
REMARK    1  A    between atoms: O_2  and  C_10
REMARK    2  A    between atoms: N_5  and  C_8
REMARK    3  A    between atoms: N_5  and  C_9
REMARK    4  A    between atoms: N_7  and  C_17
REMARK    5  A    between atoms: C_11  and  C_17
REMARK    6  A    between atoms: C_18  and  C_19
REMARK    7  A    between atoms: C_20  and  C_21
REMARK                            x       y       z     vdW  Elec       q    Type
REMARK                         _______ _______ _______ _____ _____    ______ ____
ROOT
ATOM      1  O   UNL     1      -3.826   2.124  23.346  0.00  0.00    -0.371 OA
ATOM      8  C   UNL     1      -4.582   0.266  24.619  0.00  0.00    +0.111 C 
ATOM     10  C   UNL     1      -4.903   1.545  25.370  0.00  0.00    +0.164 C 
ATOM     11  C   UNL     1      -4.858   2.567  24.243  0.00  0.00    +0.165 C 
ATOM     14  C   UNL     1      -3.522   0.750  23.643  0.00  0.00    +0.181 C 
ENDROOT
BRANCH  10   2
ATOM      2  O   UNL     1      -6.171   1.506  25.996  0.00  0.00    -0.388 OA
ATOM     23  H   UNL     1      -6.755   2.139  25.544  0.00  0.00    +0.210 HD
ENDBRANCH  10   2
BRANCH   8   5
ATOM      5  N   UNL     1      -4.115  -0.812  25.475  0.00  0.00    -0.306 NA
ATOM     22  H   UNL     1      -4.424  -1.711  25.110  0.00  0.00    +0.123 HD
BRANCH   5   9
ATOM      3  O   UNL     1       1.213   1.802  23.864  0.00  0.00    -0.276 OA
ATOM      6  N   UNL     1      -0.069  -0.010  24.551  0.00  0.00    -0.302 N 
ATOM      9  C   UNL     1      -2.657  -0.793  25.584  0.00  0.00    +0.057 C 
ATOM     12  C   UNL     1      -2.155   0.653  25.685  0.00  0.00    +0.037 C 
ATOM     13  C   UNL     1      -2.030  -1.495  24.373  0.00  0.00    +0.037 C 
ATOM     15  C   UNL     1      -0.628   0.699  25.703  0.00  0.00    +0.109 C 
ATOM     16  C   UNL     1      -0.505  -1.406  24.416  0.00  0.00    +0.109 C 
ATOM     18  C   UNL     1       0.835   0.638  23.709  0.00  0.00    +0.212 C 
ATOM     19  C   UNL     1       1.363  -0.159  22.543  0.00  0.00    +0.109 C 
ENDBRANCH   5   9
ENDBRANCH   8   5
BRANCH  11  17
ATOM     17  C   UNL     1      -4.552   3.975  24.722  0.00  0.00    +0.138 C 
BRANCH  17   7
ATOM      4  O   UNL     1      -2.374   3.916  26.641  0.00  0.00    -0.276 OA
ATOM      7  N   UNL     1      -3.178   4.317  24.491  0.00  0.00    -0.313 N 
ATOM     20  C   UNL     1      -2.197   4.258  25.475  0.00  0.00    +0.210 C 
ATOM     21  C   UNL     1      -0.836   4.645  24.959  0.00  0.00    +0.109 C 
ATOM     24  H   UNL     1      -2.917   4.618  23.556  0.00  0.00    +0.149 HD
ENDBRANCH  17   7
ENDBRANCH  11  17
TORSDOF 5
ENDMDL
MODEL 5
REMARK VINA RESULT:      -5.7      1.762      5.066
REMARK  Name = 75536498
REMARK  7 active torsions:
REMARK  status: ('A' for Active; 'I' for Inactive)
REMARK    1  A    between atoms: O_2  and  C_10
REMARK    2  A    between atoms: N_5  and  C_8
REMARK    3  A    between atoms: N_5  and  C_9
REMARK    4  A    between atoms: N_7  and  C_17
REMARK    5  A    between atoms: C_11  and  C_17
REMARK    6  A    between atoms: C_18  and  C_19
REMARK    7  A    between atoms: C_20  and  C_21
REMARK                            x       y       z     vdW  Elec       q    Type
REMARK                         _______ _______ _______ _____ _____    ______ ____
ROOT
ATOM      1  O   UNL     1      -3.011   4.827  23.871  0.00  0.00    -0.371 OA
ATOM      8  C   UNL     1      -4.408   3.624  25.368  0.00  0.00    +0.111 C 
ATOM     10  C   UNL     1      -3.021   3.740  25.971  0.00  0.00    +0.164 C 
ATOM     11  C   UNL     1      -2.462   4.925  25.197  0.00  0.00    +0.165 C 
ATOM     14  C   UNL     1      -4.125   3.919  23.905  0.00  0.00    +0.181 C 
ENDROOT
BRANCH  10   2
ATOM      2  O   UNL     1      -3.049   3.987  27.364  0.00  0.00    -0.388 OA
ATOM     23  H   UNL     1      -3.530   4.817  27.518  0.00  0.00    +0.210 HD
ENDBRANCH  10   2
BRANCH   8   5
ATOM      5  N   UNL     1      -5.028   2.325  25.575  0.00  0.00    -0.306 NA
ATOM     22  H   UNL     1      -6.032   2.386  25.419  0.00  0.00    +0.123 HD
BRANCH   5   9
ATOM      3  O   UNL     1      -3.293  -3.507  24.694  0.00  0.00    -0.276 OA
ATOM      6  N   UNL     1      -3.134  -1.226  24.285  0.00  0.00    -0.302 N 
ATOM      9  C   UNL     1      -4.443   1.324  24.685  0.00  0.00    +0.057 C 
ATOM     12  C   UNL     1      -5.208  -0.000  24.809  0.00  0.00    +0.037 C 
ATOM     13  C   UNL     1      -2.961   1.122  25.021  0.00  0.00    +0.037 C 
ATOM     15  C   UNL     1      -4.554  -1.088  23.958  0.00  0.00    +0.109 C 
ATOM     16  C   UNL     1      -2.351   0.011  24.166  0.00  0.00    +0.109 C 
ATOM     18  C   UNL     1      -2.621  -2.475  24.635  0.00  0.00    +0.212 C 
ATOM     19  C   UNL     1      -1.149  -2.534  24.961  0.00  0.00    +0.109 C 
ENDBRANCH   5   9
ENDBRANCH   8   5
BRANCH  11  17
ATOM     17  C   UNL     1      -0.945   4.933  25.124  0.00  0.00    +0.138 C 
BRANCH  17   7
ATOM      4  O   UNL     1       0.431   2.635  26.246  0.00  0.00    -0.276 OA
ATOM      7  N   UNL     1      -0.450   3.784  24.421  0.00  0.00    -0.313 N 
ATOM     20  C   UNL     1       0.200   2.724  25.044  0.00  0.00    +0.210 C 
ATOM     21  C   UNL     1       0.591   1.638  24.077  0.00  0.00    +0.109 C 
ATOM     24  H   UNL     1      -0.586   3.753  23.414  0.00  0.00    +0.149 HD
ENDBRANCH  17   7
ENDBRANCH  11  17
TORSDOF 5
ENDMDL
MODEL 6
REMARK VINA RESULT:      -5.5      2.162      4.950
REMARK  Name = 75536498
REMARK  7 active torsions:
REMARK  status: ('A' for Active; 'I' for Inactive)
REMARK    1  A    between atoms: O_2  and  C_10
REMARK    2  A    between atoms: N_5  and  C_8
REMARK    3  A    between atoms: N_5  and  C_9
REMARK    4  A    between atoms: N_7  and  C_17
REMARK    5  A    between atoms: C_11  and  C_17
REMARK    6  A    between atoms: C_18  and  C_19
REMARK    7  A    between atoms: C_20  and  C_21
REMARK                            x       y       z     vdW  Elec       q    Type
REMARK                         _______ _______ _______ _____ _____    ______ ____
ROOT
ATOM      1  O   UNL     1      -4.801   3.230  26.299  0.00  0.00    -0.371 OA
ATOM      8  C   UNL     1      -3.265   4.101  24.711  0.00  0.00    +0.111 C 
ATOM     10  C   UNL     1      -4.011   2.935  24.090  0.00  0.00    +0.164 C 
ATOM     11  C   UNL     1      -5.243   2.867  24.980  0.00  0.00    +0.165 C 
ATOM     14  C   UNL     1      -3.515   3.863  26.191  0.00  0.00    +0.181 C 
ENDROOT
BRANCH  10   2
ATOM      2  O   UNL     1      -4.350   3.163  22.736  0.00  0.00    -0.388 OA
ATOM     23  H   UNL     1      -4.673   4.075  22.650  0.00  0.00    +0.210 HD
ENDBRANCH  10   2
BRANCH   8   5
ATOM      5  N   UNL     1      -1.851   4.136  24.373  0.00  0.00    -0.306 NA
ATOM     22  H   UNL     1      -1.361   4.793  24.978  0.00  0.00    +0.123 HD
BRANCH   5   9
ATOM      3  O   UNL     1       2.765   0.328  22.959  0.00  0.00    -0.276 OA
ATOM      6  N   UNL     1       0.556   0.765  23.530  0.00  0.00    -0.302 N 
ATOM      9  C   UNL     1      -1.256   2.806  24.495  0.00  0.00    +0.057 C 
ATOM     12  C   UNL     1       0.262   2.924  24.683  0.00  0.00    +0.037 C 
ATOM     13  C   UNL     1      -1.579   1.969  23.251  0.00  0.00    +0.037 C 
ATOM     15  C   UNL     1       0.916   1.544  24.717  0.00  0.00    +0.109 C 
ATOM     16  C   UNL     1      -0.887   0.607  23.312  0.00  0.00    +0.109 C 
ATOM     18  C   UNL     1       1.558   0.210  22.734  0.00  0.00    +0.212 C 
ATOM     19  C   UNL     1       1.106  -0.575  21.529  0.00  0.00    +0.109 C 
ENDBRANCH   5   9
ENDBRANCH   8   5
BRANCH  11  17
ATOM     17  C   UNL     1      -5.884   1.491  25.014  0.00  0.00    +0.138 C 
BRANCH  17   7
ATOM      4  O   UNL     1      -4.166  -0.424  23.667  0.00  0.00    -0.276 OA
ATOM      7  N   UNL     1      -5.013   0.525  25.620  0.00  0.00    -0.313 N 
ATOM     20  C   UNL     1      -4.221  -0.357  24.892  0.00  0.00    +0.210 C 
ATOM     21  C   UNL     1      -3.384  -1.244  25.775  0.00  0.00    +0.109 C 
ATOM     24  H   UNL     1      -4.980   0.490  26.635  0.00  0.00    +0.149 HD
ENDBRANCH  17   7
ENDBRANCH  11  17
TORSDOF 5
ENDMDL
MODEL 7
REMARK VINA RESULT:      -5.5     14.865     17.241
REMARK  Name = 75536498
REMARK  7 active torsions:
REMARK  status: ('A' for Active; 'I' for Inactive)
REMARK    1  A    between atoms: O_2  and  C_10
REMARK    2  A    between atoms: N_5  and  C_8
REMARK    3  A    between atoms: N_5  and  C_9
REMARK    4  A    between atoms: N_7  and  C_17
REMARK    5  A    between atoms: C_11  and  C_17
REMARK    6  A    between atoms: C_18  and  C_19
REMARK    7  A    between atoms: C_20  and  C_21
REMARK                            x       y       z     vdW  Elec       q    Type
REMARK                         _______ _______ _______ _____ _____    ______ ____
ROOT
ATOM      1  O   UNL     1      -5.954 -10.442  17.191  0.00  0.00    -0.371 OA
ATOM      8  C   UNL     1      -7.110 -10.198  15.130  0.00  0.00    +0.111 C 
ATOM     10  C   UNL     1      -5.617 -10.098  14.875  0.00  0.00    +0.164 C 
ATOM     11  C   UNL     1      -5.061 -10.781  16.116  0.00  0.00    +0.165 C 
ATOM     14  C   UNL     1      -7.178  -9.939  16.626  0.00  0.00    +0.181 C 
ENDROOT
BRANCH  10   2
ATOM      2  O   UNL     1      -5.220 -10.756  13.688  0.00  0.00    -0.388 OA
ATOM     23  H   UNL     1      -4.249 -10.752  13.646  0.00  0.00    +0.210 HD
ENDBRANCH  10   2
BRANCH   8   5
ATOM      5  N   UNL     1      -7.899  -9.255  14.355  0.00  0.00    -0.306 NA
ATOM     22  H   UNL     1      -7.404  -8.368  14.270  0.00  0.00    +0.123 HD
BRANCH   5   9
ATOM      3  O   UNL     1      -8.416  -8.250   8.311  0.00  0.00    -0.276 OA
ATOM      6  N   UNL     1      -8.955  -9.385  10.265  0.00  0.00    -0.302 N 
ATOM      9  C   UNL     1      -8.192  -9.791  13.027  0.00  0.00    +0.057 C 
ATOM     12  C   UNL     1      -7.211  -9.215  11.999  0.00  0.00    +0.037 C 
ATOM     13  C   UNL     1      -9.638  -9.460  12.634  0.00  0.00    +0.037 C 
ATOM     15  C   UNL     1      -7.560  -9.688  10.589  0.00  0.00    +0.109 C 
ATOM     16  C   UNL     1      -9.939  -9.928  11.210  0.00  0.00    +0.109 C 
ATOM     18  C   UNL     1      -9.259  -8.666   9.109  0.00  0.00    +0.212 C 
ATOM     19  C   UNL     1     -10.719  -8.391   8.848  0.00  0.00    +0.109 C 
ENDBRANCH   5   9
ENDBRANCH   8   5
BRANCH  11  17
ATOM     17  C   UNL     1      -3.650 -10.340  16.463  0.00  0.00    +0.138 C 
BRANCH  17   7
ATOM      4  O   UNL     1      -0.763 -10.377  16.156  0.00  0.00    -0.276 OA
ATOM      7  N   UNL     1      -2.895 -10.032  15.282  0.00  0.00    -0.313 N 
ATOM     20  C   UNL     1      -1.506 -10.077  15.226  0.00  0.00    +0.210 C 
ATOM     21  C   UNL     1      -0.972  -9.734  13.860  0.00  0.00    +0.109 C 
ATOM     24  H   UNL     1      -3.411  -9.767  14.448  0.00  0.00    +0.149 HD
ENDBRANCH  17   7
ENDBRANCH  11  17
TORSDOF 5
ENDMDL
MODEL 8
REMARK VINA RESULT:      -5.3     15.829     18.368
REMARK  Name = 75536498
REMARK  7 active torsions:
REMARK  status: ('A' for Active; 'I' for Inactive)
REMARK    1  A    between atoms: O_2  and  C_10
REMARK    2  A    between atoms: N_5  and  C_8
REMARK    3  A    between atoms: N_5  and  C_9
REMARK    4  A    between atoms: N_7  and  C_17
REMARK    5  A    between atoms: C_11  and  C_17
REMARK    6  A    between atoms: C_18  and  C_19
REMARK    7  A    between atoms: C_20  and  C_21
REMARK                            x       y       z     vdW  Elec       q    Type
REMARK                         _______ _______ _______ _____ _____    ______ ____
ROOT
ATOM      1  O   UNL     1      -2.654  -9.260  10.028  0.00  0.00    -0.371 OA
ATOM      8  C   UNL     1      -4.971  -9.590  10.432  0.00  0.00    +0.111 C 
ATOM     10  C   UNL     1      -4.173 -10.405  11.433  0.00  0.00    +0.164 C 
ATOM     11  C   UNL     1      -2.830  -9.692  11.388  0.00  0.00    +0.165 C 
ATOM     14  C   UNL     1      -3.926  -9.322   9.362  0.00  0.00    +0.181 C 
ENDROOT
BRANCH  10   2
ATOM      2  O   UNL     1      -4.739 -10.384  12.729  0.00  0.00    -0.388 OA
ATOM     23  H   UNL     1      -5.701 -10.281  12.642  0.00  0.00    +0.210 HD
ENDBRANCH  10   2
BRANCH   8   5
ATOM      5  N   UNL     1      -6.144 -10.279   9.920  0.00  0.00    -0.306 NA
ATOM     22  H   UNL     1      -6.753 -10.556  10.689  0.00  0.00    +0.123 HD
BRANCH   5   9
ATOM      3  O   UNL     1      -8.751  -4.837   8.742  0.00  0.00    -0.276 OA
ATOM      6  N   UNL     1      -8.561  -7.134   8.460  0.00  0.00    -0.302 N 
ATOM      9  C   UNL     1      -6.877  -9.430   8.984  0.00  0.00    +0.057 C 
ATOM     12  C   UNL     1      -6.323  -8.000   9.025  0.00  0.00    +0.037 C 
ATOM     13  C   UNL     1      -8.372  -9.436   9.326  0.00  0.00    +0.037 C 
ATOM     15  C   UNL     1      -7.138  -7.074   8.124  0.00  0.00    +0.109 C 
ATOM     16  C   UNL     1      -9.147  -8.481   8.419  0.00  0.00    +0.109 C 
ATOM     18  C   UNL     1      -9.257  -5.961   8.748  0.00  0.00    +0.212 C 
ATOM     19  C   UNL     1     -10.719  -6.108   9.088  0.00  0.00    +0.109 C 
ENDBRANCH   5   9
ENDBRANCH   8   5
BRANCH  11  17
ATOM     17  C   UNL     1      -1.666 -10.577  11.800  0.00  0.00    +0.138 C 
BRANCH  17   7
ATOM      4  O   UNL     1      -2.866 -10.759  14.439  0.00  0.00    -0.276 OA
ATOM      7  N   UNL     1      -1.100 -10.146  13.047  0.00  0.00    -0.313 N 
ATOM     20  C   UNL     1      -1.750 -10.274  14.269  0.00  0.00    +0.210 C 
ATOM     21  C   UNL     1      -0.921  -9.767  15.420  0.00  0.00    +0.109 C 
ATOM     24  H   UNL     1      -0.175  -9.726  13.025  0.00  0.00    +0.149 HD
ENDBRANCH  17   7
ENDBRANCH  11  17
TORSDOF 5
ENDMDL
MODEL 9
REMARK VINA RESULT:      -5.2     15.286     17.968
REMARK  Name = 75536498
REMARK  7 active torsions:
REMARK  status: ('A' for Active; 'I' for Inactive)
REMARK    1  A    between atoms: O_2  and  C_10
REMARK    2  A    between atoms: N_5  and  C_8
REMARK    3  A    between atoms: N_5  and  C_9
REMARK    4  A    between atoms: N_7  and  C_17
REMARK    5  A    between atoms: C_11  and  C_17
REMARK    6  A    between atoms: C_18  and  C_19
REMARK    7  A    between atoms: C_20  and  C_21
REMARK                            x       y       z     vdW  Elec       q    Type
REMARK                         _______ _______ _______ _____ _____    ______ ____
ROOT
ATOM      1  O   UNL     1      -5.995  -9.623  14.775  0.00  0.00    -0.371 OA
ATOM      8  C   UNL     1      -6.435 -10.014  12.474  0.00  0.00    +0.111 C 
ATOM     10  C   UNL     1      -7.482 -10.731  13.307  0.00  0.00    +0.164 C 
ATOM     11  C   UNL     1      -7.382  -9.970  14.621  0.00  0.00    +0.165 C 
ATOM     14  C   UNL     1      -5.342  -9.778  13.503  0.00  0.00    +0.181 C 
ENDROOT
BRANCH  10   2
ATOM      2  O   UNL     1      -8.778 -10.646  12.746  0.00  0.00    -0.388 OA
ATOM     23  H   UNL     1      -8.961 -11.474  12.272  0.00  0.00    +0.210 HD
ENDBRANCH  10   2
BRANCH   8   5
ATOM      5  N   UNL     1      -5.978 -10.781  11.327  0.00  0.00    -0.306 NA
ATOM     22  H   UNL     1      -6.397 -11.709  11.334  0.00  0.00    +0.123 HD
BRANCH   5   9
ATOM      3  O   UNL     1      -8.427  -5.870   8.554  0.00  0.00    -0.276 OA
ATOM      6  N   UNL     1      -7.845  -8.117   8.628  0.00  0.00    -0.302 N 
ATOM      9  C   UNL     1      -6.307 -10.095  10.079  0.00  0.00    +0.057 C 
ATOM     12  C   UNL     1      -6.016  -8.594  10.211  0.00  0.00    +0.037 C 
ATOM     13  C   UNL     1      -7.781 -10.326   9.724  0.00  0.00    +0.037 C 
ATOM     15  C   UNL     1      -6.443  -7.844   8.951  0.00  0.00    +0.109 C 
ATOM     16  C   UNL     1      -8.173  -9.541   8.473  0.00  0.00    +0.109 C 
ATOM     18  C   UNL     1      -8.736  -7.060   8.453  0.00  0.00    +0.212 C 
ATOM     19  C   UNL     1     -10.162  -7.425   8.125  0.00  0.00    +0.109 C 
ENDBRANCH   5   9
ENDBRANCH   8   5
BRANCH  11  17
ATOM     17  C   UNL     1      -7.844 -10.780  15.820  0.00  0.00    +0.138 C 
BRANCH  17   7
ATOM      4  O   UNL     1      -8.313 -10.400  18.661  0.00  0.00    -0.276 OA
ATOM      7  N   UNL     1      -8.991 -10.183  16.442  0.00  0.00    -0.313 N 
ATOM     20  C   UNL     1      -9.131 -10.041  17.818  0.00  0.00    +0.210 C 
ATOM     21  C   UNL     1     -10.418  -9.358  18.200  0.00  0.00    +0.109 C 
ATOM     24  H   UNL     1      -9.736  -9.851  15.836  0.00  0.00    +0.149 HD
ENDBRANCH  17   7
ENDBRANCH  11  17
TORSDOF 5
ENDMDL
MODEL 10
REMARK VINA RESULT:      -5.1      2.023      4.313
REMARK  Name = 75536498
REMARK  7 active torsions:
REMARK  status: ('A' for Active; 'I' for Inactive)
REMARK    1  A    between atoms: O_2  and  C_10
REMARK    2  A    between atoms: N_5  and  C_8
REMARK    3  A    between atoms: N_5  and  C_9
REMARK    4  A    between atoms: N_7  and  C_17
REMARK    5  A    between atoms: C_11  and  C_17
REMARK    6  A    between atoms: C_18  and  C_19
REMARK    7  A    between atoms: C_20  and  C_21
REMARK                            x       y       z     vdW  Elec       q    Type
REMARK                         _______ _______ _______ _____ _____    ______ ____
ROOT
ATOM      1  O   UNL     1      -1.846  -0.987  26.361  0.00  0.00    -0.371 OA
ATOM      8  C   UNL     1      -3.674  -1.752  25.051  0.00  0.00    +0.111 C 
ATOM     10  C   UNL     1      -2.381  -2.034  24.308  0.00  0.00    +0.164 C 
ATOM     11  C   UNL     1      -1.373  -1.992  25.448  0.00  0.00    +0.165 C 
ATOM     14  C   UNL     1      -3.222  -0.703  26.054  0.00  0.00    +0.181 C 
ENDROOT
BRANCH  10   2
ATOM      2  O   UNL     1      -2.388  -3.289  23.656  0.00  0.00    -0.388 OA
ATOM     23  H   UNL     1      -2.184  -3.976  24.313  0.00  0.00    +0.210 HD
ENDBRANCH  10   2
BRANCH   8   5
ATOM      5  N   UNL     1      -4.751  -1.287  24.192  0.00  0.00    -0.306 NA
ATOM     22  H   UNL     1      -5.654  -1.507  24.609  0.00  0.00    +0.123 HD
BRANCH   5   9
ATOM      3  O   UNL     1      -1.478   3.880  24.815  0.00  0.00    -0.276 OA
ATOM      6  N   UNL     1      -3.480   2.723  24.602  0.00  0.00    -0.302 N 
ATOM      9  C   UNL     1      -4.646   0.152  23.960  0.00  0.00    +0.057 C 
ATOM     12  C   UNL     1      -3.217   0.515  23.538  0.00  0.00    +0.037 C 
ATOM     13  C   UNL     1      -5.042   0.919  25.228  0.00  0.00    +0.037 C 
ATOM     15  C   UNL     1      -3.061   2.026  23.385  0.00  0.00    +0.109 C 
ATOM     16  C   UNL     1      -4.850   2.424  25.041  0.00  0.00    +0.109 C 
ATOM     18  C   UNL     1      -2.612   3.619  25.224  0.00  0.00    +0.212 C 
ATOM     19  C   UNL     1      -3.117   4.293  26.475  0.00  0.00    +0.109 C 
ENDBRANCH   5   9
ENDBRANCH   8   5
BRANCH  11  17
ATOM     17  C   UNL     1       0.035  -1.650  24.993  0.00  0.00    +0.138 C 
BRANCH  17   7
ATOM      4  O   UNL     1       0.897  -0.218  22.618  0.00  0.00    -0.276 OA
ATOM      7  N   UNL     1       0.204  -0.233  24.843  0.00  0.00    -0.313 N 
ATOM     20  C   UNL     1       0.622   0.369  23.661  0.00  0.00    +0.210 C 
ATOM     21  C   UNL     1       0.691   1.870  23.770  0.00  0.00    +0.109 C 
ATOM     24  H   UNL     1       0.006   0.353  25.649  0.00  0.00    +0.149 HD
ENDBRANCH  17   7
ENDBRANCH  11  17
TORSDOF 5
ENDMDL
