MODEL 1
REMARK VINA RESULT:      -3.5      0.000      0.000
REMARK  Name = 71693735
REMARK  3 active torsions:
REMARK  status: ('A' for Active; 'I' for Inactive)
REMARK    1  A    between atoms: N_5  and  C_14
REMARK    2  A    between atoms: C_14  and  C_16
REMARK    3  A    between atoms: C_15  and  C_17
REMARK                            x       y       z     vdW  Elec       q    Type
REMARK                         _______ _______ _______ _____ _____    ______ ____
ROOT
ATOM      1  O   UNL     1       0.218   3.355  25.326  0.00  0.00    -0.364 OA
ATOM      2  O   UNL     1      -2.549   5.547  25.768  0.00  0.00    -0.273 OA
ATOM      3  O   UNL     1       0.741  -1.297  24.250  0.00  0.00    -0.270 OA
ATOM      4  N   UNL     1      -0.502   0.665  24.211  0.00  0.00    -0.293 N 
ATOM      5  N   UNL     1      -2.273   3.851  24.199  0.00  0.00    -0.288 N 
ATOM      8  C   UNL     1      -1.441   2.770  23.685  0.00  0.00    +0.124 C 
ATOM      9  C   UNL     1       0.048   2.947  23.971  0.00  0.00    +0.158 C 
ATOM     10  C   UNL     1      -1.748   1.419  24.335  0.00  0.00    +0.133 C 
ATOM     11  C   UNL     1       0.601   1.536  23.817  0.00  0.00    +0.141 C 
ATOM     12  C   UNL     1      -1.841   4.709  25.208  0.00  0.00    +0.242 C 
ATOM     13  C   UNL     1      -0.363   4.619  25.544  0.00  0.00    +0.256 C 
ATOM     15  C   UNL     1      -0.329  -0.702  24.363  0.00  0.00    +0.247 C 
ENDROOT
BRANCH  15  17
ATOM      7  N   UNL     1      -3.786  -3.034  25.265  0.00  0.00    -0.263 NA
ATOM     17  C   UNL     1      -1.520  -1.508  24.675  0.00  0.00    +0.040 A 
ATOM     20  C   UNL     1      -1.791  -2.663  23.951  0.00  0.00    +0.033 A 
ATOM     21  C   UNL     1      -2.383  -1.114  25.694  0.00  0.00    +0.033 A 
ATOM     23  C   UNL     1      -2.926  -3.385  24.282  0.00  0.00    +0.111 A 
ATOM     24  C   UNL     1      -3.491  -1.905  25.946  0.00  0.00    +0.111 A 
ENDBRANCH  15  17
BRANCH   5  14
ATOM     14  C   UNL     1      -3.651   3.902  23.730  0.00  0.00    +0.145 C 
BRANCH  14  16
ATOM      6  N   UNL     1      -6.086   2.940  26.459  0.00  0.00    -0.263 NA
ATOM     16  C   UNL     1      -4.566   3.072  24.583  0.00  0.00    -0.012 A 
ATOM     18  C   UNL     1      -4.754   1.718  24.327  0.00  0.00    +0.008 A 
ATOM     19  C   UNL     1      -5.249   3.630  25.653  0.00  0.00    +0.115 A 
ATOM     22  C   UNL     1      -5.606   0.975  25.135  0.00  0.00    +0.020 A 
ATOM     25  C   UNL     1      -6.243   1.626  26.179  0.00  0.00    +0.111 A 
ENDBRANCH  14  16
ENDBRANCH   5  14
TORSDOF 3
ENDMDL
MODEL 2
REMARK VINA RESULT:      -2.9      1.307      5.215
REMARK  Name = 71693735
REMARK  3 active torsions:
REMARK  status: ('A' for Active; 'I' for Inactive)
REMARK    1  A    between atoms: N_5  and  C_14
REMARK    2  A    between atoms: C_14  and  C_16
REMARK    3  A    between atoms: C_15  and  C_17
REMARK                            x       y       z     vdW  Elec       q    Type
REMARK                         _______ _______ _______ _____ _____    ______ ____
ROOT
ATOM      1  O   UNL     1       0.388   2.439  23.802  0.00  0.00    -0.364 OA
ATOM      2  O   UNL     1       0.938  -0.991  23.035  0.00  0.00    -0.273 OA
ATOM      3  O   UNL     1      -3.182   4.954  25.802  0.00  0.00    -0.270 OA
ATOM      4  N   UNL     1      -2.040   2.955  25.485  0.00  0.00    -0.293 N 
ATOM      5  N   UNL     1      -0.083  -0.066  24.910  0.00  0.00    -0.288 N 
ATOM      8  C   UNL     1      -0.536   1.136  25.601  0.00  0.00    +0.124 C 
ATOM      9  C   UNL     1       0.236   2.396  25.219  0.00  0.00    +0.158 C 
ATOM     10  C   UNL     1      -1.980   1.512  25.262  0.00  0.00    +0.133 C 
ATOM     11  C   UNL     1      -0.703   3.519  25.639  0.00  0.00    +0.141 C 
ATOM     12  C   UNL     1       0.649  -0.014  23.727  0.00  0.00    +0.242 C 
ATOM     13  C   UNL     1       1.174   1.361  23.351  0.00  0.00    +0.256 C 
ATOM     15  C   UNL     1      -3.177   3.738  25.614  0.00  0.00    +0.247 C 
ENDROOT
BRANCH  15  17
ATOM      7  N   UNL     1      -6.956   1.773  25.371  0.00  0.00    -0.263 NA
ATOM     17  C   UNL     1      -4.481   3.062  25.530  0.00  0.00    +0.040 A 
ATOM     20  C   UNL     1      -5.294   2.971  26.654  0.00  0.00    +0.033 A 
ATOM     21  C   UNL     1      -4.905   2.508  24.326  0.00  0.00    +0.033 A 
ATOM     23  C   UNL     1      -6.511   2.322  26.523  0.00  0.00    +0.111 A 
ATOM     24  C   UNL     1      -6.139   1.881  24.300  0.00  0.00    +0.111 A 
ENDBRANCH  15  17
BRANCH   5  14
ATOM     14  C   UNL     1      -0.570  -1.341  25.418  0.00  0.00    +0.145 C 
BRANCH  14  16
ATOM      6  N   UNL     1      -3.318  -3.259  23.667  0.00  0.00    -0.263 NA
ATOM     16  C   UNL     1      -1.919  -1.690  24.861  0.00  0.00    -0.012 A 
ATOM     18  C   UNL     1      -2.998  -0.823  24.998  0.00  0.00    +0.008 A 
ATOM     19  C   UNL     1      -2.131  -2.885  24.193  0.00  0.00    +0.115 A 
ATOM     22  C   UNL     1      -4.236  -1.172  24.470  0.00  0.00    +0.020 A 
ATOM     25  C   UNL     1      -4.343  -2.391  23.820  0.00  0.00    +0.111 A 
ENDBRANCH  14  16
ENDBRANCH   5  14
TORSDOF 3
ENDMDL
MODEL 3
REMARK VINA RESULT:      -2.4      2.005      4.533
REMARK  Name = 71693735
REMARK  3 active torsions:
REMARK  status: ('A' for Active; 'I' for Inactive)
REMARK    1  A    between atoms: N_5  and  C_14
REMARK    2  A    between atoms: C_14  and  C_16
REMARK    3  A    between atoms: C_15  and  C_17
REMARK                            x       y       z     vdW  Elec       q    Type
REMARK                         _______ _______ _______ _____ _____    ______ ____
ROOT
ATOM      1  O   UNL     1      -3.397   4.640  24.378  0.00  0.00    -0.364 OA
ATOM      2  O   UNL     1       0.075   4.973  23.673  0.00  0.00    -0.273 OA
ATOM      3  O   UNL     1      -6.291   1.008  25.602  0.00  0.00    -0.270 OA
ATOM      4  N   UNL     1      -4.179   1.969  25.498  0.00  0.00    -0.293 N 
ATOM      5  N   UNL     1      -0.960   3.668  25.298  0.00  0.00    -0.288 N 
ATOM      8  C   UNL     1      -2.205   3.207  25.901  0.00  0.00    +0.124 C 
ATOM      9  C   UNL     1      -3.373   4.175  25.726  0.00  0.00    +0.158 C 
ATOM     10  C   UNL     1      -2.738   1.922  25.261  0.00  0.00    +0.133 C 
ATOM     11  C   UNL     1      -4.592   3.292  25.955  0.00  0.00    +0.141 C 
ATOM     12  C   UNL     1      -0.930   4.645  24.306  0.00  0.00    +0.242 C 
ATOM     13  C   UNL     1      -2.237   5.385  24.086  0.00  0.00    +0.256 C 
ATOM     15  C   UNL     1      -5.082   0.923  25.392  0.00  0.00    +0.247 C 
ENDROOT
BRANCH  15  17
ATOM      7  N   UNL     1      -3.553  -2.902  24.284  0.00  0.00    -0.263 NA
ATOM     17  C   UNL     1      -4.553  -0.396  25.009  0.00  0.00    +0.040 A 
ATOM     20  C   UNL     1      -4.819  -0.914  23.747  0.00  0.00    +0.033 A 
ATOM     21  C   UNL     1      -3.788  -1.129  25.910  0.00  0.00    +0.033 A 
ATOM     23  C   UNL     1      -4.300  -2.161  23.436  0.00  0.00    +0.111 A 
ATOM     24  C   UNL     1      -3.316  -2.366  25.502  0.00  0.00    +0.111 A 
ENDBRANCH  15  17
BRANCH   5  14
ATOM     14  C   UNL     1       0.253   2.948  25.658  0.00  0.00    +0.145 C 
BRANCH  14  16
ATOM      6  N   UNL     1       1.458   0.484  23.054  0.00  0.00    -0.263 NA
ATOM     16  C   UNL     1       0.404   1.676  24.875  0.00  0.00    -0.012 A 
ATOM     18  C   UNL     1      -0.327   0.539  25.203  0.00  0.00    +0.008 A 
ATOM     19  C   UNL     1       1.276   1.596  23.800  0.00  0.00    +0.115 A 
ATOM     22  C   UNL     1      -0.168  -0.624  24.459  0.00  0.00    +0.020 A 
ATOM     25  C   UNL     1       0.729  -0.600  23.403  0.00  0.00    +0.111 A 
ENDBRANCH  14  16
ENDBRANCH   5  14
TORSDOF 3
ENDMDL
MODEL 4
REMARK VINA RESULT:      -2.0      1.830      4.425
REMARK  Name = 71693735
REMARK  3 active torsions:
REMARK  status: ('A' for Active; 'I' for Inactive)
REMARK    1  A    between atoms: N_5  and  C_14
REMARK    2  A    between atoms: C_14  and  C_16
REMARK    3  A    between atoms: C_15  and  C_17
REMARK                            x       y       z     vdW  Elec       q    Type
REMARK                         _______ _______ _______ _____ _____    ______ ____
ROOT
ATOM      1  O   UNL     1      -4.057   3.869  26.072  0.00  0.00    -0.364 OA
ATOM      2  O   UNL     1      -6.516   1.388  26.749  0.00  0.00    -0.273 OA
ATOM      3  O   UNL     1       0.196   3.930  23.842  0.00  0.00    -0.270 OA
ATOM      4  N   UNL     1      -1.898   2.986  24.186  0.00  0.00    -0.293 N 
ATOM      5  N   UNL     1      -5.244   1.687  24.824  0.00  0.00    -0.288 N 
ATOM      8  C   UNL     1      -4.198   2.439  24.141  0.00  0.00    +0.124 C 
ATOM      9  C   UNL     1      -4.036   3.871  24.646  0.00  0.00    +0.158 C 
ATOM     10  C   UNL     1      -2.802   1.850  24.356  0.00  0.00    +0.133 C 
ATOM     11  C   UNL     1      -2.635   4.246  24.183  0.00  0.00    +0.141 C 
ATOM     12  C   UNL     1      -5.735   2.059  26.073  0.00  0.00    +0.242 C 
ATOM     13  C   UNL     1      -5.309   3.435  26.552  0.00  0.00    +0.256 C 
ATOM     15  C   UNL     1      -0.528   2.945  23.980  0.00  0.00    +0.247 C 
ENDROOT
BRANCH  15  17
ATOM      7  N   UNL     1       1.320  -0.895  23.776  0.00  0.00    -0.263 NA
ATOM     17  C   UNL     1       0.110   1.621  23.911  0.00  0.00    +0.040 A 
ATOM     20  C   UNL     1       1.388   1.489  23.380  0.00  0.00    +0.033 A 
ATOM     21  C   UNL     1      -0.564   0.496  24.375  0.00  0.00    +0.033 A 
ATOM     23  C   UNL     1       1.944   0.221  23.335  0.00  0.00    +0.111 A 
ATOM     24  C   UNL     1       0.079  -0.727  24.286  0.00  0.00    +0.111 A 
ENDBRANCH  15  17
BRANCH   5  14
ATOM     14  C   UNL     1      -5.649   0.426  24.220  0.00  0.00    +0.145 C 
BRANCH  14  16
ATOM      6  N   UNL     1      -3.057  -1.638  26.043  0.00  0.00    -0.263 NA
ATOM     16  C   UNL     1      -4.685  -0.682  24.533  0.00  0.00    -0.012 A 
ATOM     18  C   UNL     1      -4.509  -1.749  23.659  0.00  0.00    +0.008 A 
ATOM     19  C   UNL     1      -3.941  -0.674  25.702  0.00  0.00    +0.115 A 
ATOM     22  C   UNL     1      -3.609  -2.759  23.974  0.00  0.00    +0.020 A 
ATOM     25  C   UNL     1      -2.913  -2.658  25.168  0.00  0.00    +0.111 A 
ENDBRANCH  14  16
ENDBRANCH   5  14
TORSDOF 3
ENDMDL
MODEL 5
REMARK VINA RESULT:      -1.7      1.747      5.208
REMARK  Name = 71693735
REMARK  3 active torsions:
REMARK  status: ('A' for Active; 'I' for Inactive)
REMARK    1  A    between atoms: N_5  and  C_14
REMARK    2  A    between atoms: C_14  and  C_16
REMARK    3  A    between atoms: C_15  and  C_17
REMARK                            x       y       z     vdW  Elec       q    Type
REMARK                         _______ _______ _______ _____ _____    ______ ____
ROOT
ATOM      1  O   UNL     1      -1.277  -1.798  24.825  0.00  0.00    -0.364 OA
ATOM      2  O   UNL     1      -4.321  -2.407  23.088  0.00  0.00    -0.273 OA
ATOM      3  O   UNL     1       0.917   2.092  26.593  0.00  0.00    -0.270 OA
ATOM      4  N   UNL     1      -1.008   0.987  25.907  0.00  0.00    -0.293 N 
ATOM      5  N   UNL     1      -3.918  -0.933  24.842  0.00  0.00    -0.288 N 
ATOM      8  C   UNL     1      -2.953  -0.350  25.767  0.00  0.00    +0.124 C 
ATOM      9  C   UNL     1      -1.751  -1.247  26.052  0.00  0.00    +0.158 C 
ATOM     10  C   UNL     1      -2.298   0.922  25.223  0.00  0.00    +0.133 C 
ATOM     11  C   UNL     1      -0.707  -0.272  26.580  0.00  0.00    +0.141 C 
ATOM     12  C   UNL     1      -3.587  -1.973  23.977  0.00  0.00    +0.242 C 
ATOM     13  C   UNL     1      -2.248  -2.637  24.245  0.00  0.00    +0.256 C 
ATOM     15  C   UNL     1      -0.164   2.082  26.004  0.00  0.00    +0.247 C 
ENDROOT
BRANCH  15  17
ATOM      7  N   UNL     1      -1.417   5.715  24.152  0.00  0.00    -0.263 NA
ATOM     17  C   UNL     1      -0.597   3.334  25.364  0.00  0.00    +0.040 A 
ATOM     20  C   UNL     1      -0.079   3.702  24.128  0.00  0.00    +0.033 A 
ATOM     21  C   UNL     1      -1.524   4.157  25.997  0.00  0.00    +0.033 A 
ATOM     23  C   UNL     1      -0.518   4.891  23.569  0.00  0.00    +0.111 A 
ATOM     24  C   UNL     1      -1.897   5.325  25.354  0.00  0.00    +0.111 A 
ENDBRANCH  15  17
BRANCH   5  14
ATOM     14  C   UNL     1      -5.212  -0.272  24.738  0.00  0.00    +0.145 C 
BRANCH  14  16
ATOM      6  N   UNL     1      -5.578   3.283  25.973  0.00  0.00    -0.263 NA
ATOM     16  C   UNL     1      -5.087   1.222  24.809  0.00  0.00    -0.012 A 
ATOM     18  C   UNL     1      -4.402   1.932  23.828  0.00  0.00    +0.008 A 
ATOM     19  C   UNL     1      -5.652   1.940  25.851  0.00  0.00    +0.115 A 
ATOM     22  C   UNL     1      -4.304   3.315  23.918  0.00  0.00    +0.020 A 
ATOM     25  C   UNL     1      -4.904   3.938  25.001  0.00  0.00    +0.111 A 
ENDBRANCH  14  16
ENDBRANCH   5  14
TORSDOF 3
ENDMDL
MODEL 6
REMARK VINA RESULT:      -1.0      2.300      6.094
REMARK  Name = 71693735
REMARK  3 active torsions:
REMARK  status: ('A' for Active; 'I' for Inactive)
REMARK    1  A    between atoms: N_5  and  C_14
REMARK    2  A    between atoms: C_14  and  C_16
REMARK    3  A    between atoms: C_15  and  C_17
REMARK                            x       y       z     vdW  Elec       q    Type
REMARK                         _______ _______ _______ _____ _____    ______ ____
ROOT
ATOM      1  O   UNL     1      -3.063  -2.509  25.375  0.00  0.00    -0.364 OA
ATOM      2  O   UNL     1       0.450  -2.198  25.849  0.00  0.00    -0.273 OA
ATOM      3  O   UNL     1      -6.641   0.519  24.330  0.00  0.00    -0.270 OA
ATOM      4  N   UNL     1      -4.387  -0.043  24.298  0.00  0.00    -0.293 N 
ATOM      5  N   UNL     1      -0.907  -1.129  24.291  0.00  0.00    -0.288 N 
ATOM      8  C   UNL     1      -2.252  -0.909  23.770  0.00  0.00    +0.124 C 
ATOM      9  C   UNL     1      -3.210  -2.070  24.027  0.00  0.00    +0.158 C 
ATOM     10  C   UNL     1      -2.966   0.268  24.439  0.00  0.00    +0.133 C 
ATOM     11  C   UNL     1      -4.582  -1.426  23.875  0.00  0.00    +0.141 C 
ATOM     12  C   UNL     1      -0.636  -2.067  25.283  0.00  0.00    +0.242 C 
ATOM     13  C   UNL     1      -1.771  -3.028  25.592  0.00  0.00    +0.256 C 
ATOM     15  C   UNL     1      -5.456   0.824  24.459  0.00  0.00    +0.247 C 
ENDROOT
BRANCH  15  17
ATOM      7  N   UNL     1      -4.576   4.881  25.445  0.00  0.00    -0.263 NA
ATOM     17  C   UNL     1      -5.152   2.223  24.801  0.00  0.00    +0.040 A 
ATOM     20  C   UNL     1      -5.935   2.902  25.727  0.00  0.00    +0.033 A 
ATOM     21  C   UNL     1      -4.081   2.872  24.194  0.00  0.00    +0.033 A 
ATOM     23  C   UNL     1      -5.608   4.217  26.012  0.00  0.00    +0.111 A 
ATOM     24  C   UNL     1      -3.838   4.189  24.548  0.00  0.00    +0.111 A 
ENDBRANCH  15  17
BRANCH   5  14
ATOM     14  C   UNL     1       0.129  -0.206  23.848  0.00  0.00    +0.145 C 
BRANCH  14  16
ATOM      6  N   UNL     1      -0.341   3.544  23.973  0.00  0.00    -0.263 NA
ATOM     16  C   UNL     1      -0.080   1.177  24.392  0.00  0.00    -0.012 A 
ATOM     18  C   UNL     1      -0.202   1.399  25.760  0.00  0.00    +0.008 A 
ATOM     19  C   UNL     1      -0.156   2.274  23.549  0.00  0.00    +0.115 A 
ATOM     22  C   UNL     1      -0.393   2.691  26.235  0.00  0.00    +0.020 A 
ATOM     25  C   UNL     1      -0.455   3.720  25.309  0.00  0.00    +0.111 A 
ENDBRANCH  14  16
ENDBRANCH   5  14
TORSDOF 3
ENDMDL
