MODEL 1
REMARK VINA RESULT:      -2.4      0.000      0.000
REMARK  Name = 75537087
REMARK  4 active torsions:
REMARK  status: ('A' for Active; 'I' for Inactive)
REMARK    1  A    between atoms: N_4  and  C_14
REMARK    2  A    between atoms: N_5  and  C_15
REMARK    3  A    between atoms: C_14  and  C_16
REMARK    4  A    between atoms: C_15  and  C_17
REMARK                            x       y       z     vdW  Elec       q    Type
REMARK                         _______ _______ _______ _____ _____    ______ ____
ROOT
ATOM      2  O   UNL     1      -0.266  -1.728  23.951  0.00  0.00    -0.252 OA
ATOM      3  N   UNL     1      -0.835   0.380  24.818  0.00  0.00    -0.278 N 
ATOM      4  N   UNL     1      -2.451   2.522  25.664  0.00  0.00    -0.292 NA
ATOM      5  N   UNL     1       0.841   0.259  23.329  0.00  0.00    -0.279 N 
ATOM      8  C   UNL     1      -0.305   1.727  24.758  0.00  0.00    +0.109 C 
ATOM      9  C   UNL     1      -1.441   2.739  24.609  0.00  0.00    +0.109 C 
ATOM     10  C   UNL     1       0.671   1.679  23.584  0.00  0.00    +0.133 C 
ATOM     11  C   UNL     1      -1.933   0.091  25.717  0.00  0.00    +0.125 C 
ATOM     12  C   UNL     1      -3.019   1.161  25.578  0.00  0.00    +0.104 C 
ATOM     13  C   UNL     1      -0.105  -0.517  24.028  0.00  0.00    +0.305 C 
ENDROOT
BRANCH   4  14
ATOM     14  C   UNL     1      -3.512   3.524  25.569  0.00  0.00    +0.158 C 
BRANCH  14  16
ATOM      6  N   UNL     1      -5.735   2.873  26.514  0.00  0.00    -0.347 N 
ATOM      7  N   UNL     1      -5.384   2.315  24.394  0.00  0.00    -0.239 NA
ATOM     16  C   UNL     1      -4.871   2.895  25.456  0.00  0.00    +0.121 A 
ATOM     20  C   UNL     1      -6.873   2.238  26.102  0.00  0.00    +0.104 A 
ATOM     21  C   UNL     1      -6.633   1.904  24.790  0.00  0.00    +0.130 A 
ATOM     25  H   UNL     1      -5.566   3.257  27.435  0.00  0.00    +0.167 HD
ENDBRANCH  14  16
ENDBRANCH   4  14
BRANCH   5  15
ATOM     15  C   UNL     1       1.784  -0.236  22.350  0.00  0.00    +0.144 C 
BRANCH  15  17
ATOM      1  F   UNL     1       7.055  -0.253  24.325  0.00  0.00    -0.205 F 
ATOM     17  C   UNL     1       3.190  -0.240  22.876  0.00  0.00    -0.030 A 
ATOM     18  C   UNL     1       3.696  -1.380  23.500  0.00  0.00    +0.008 A 
ATOM     19  C   UNL     1       3.988   0.895  22.742  0.00  0.00    +0.008 A 
ATOM     22  C   UNL     1       5.002  -1.385  23.990  0.00  0.00    +0.038 A 
ATOM     23  C   UNL     1       5.295   0.890  23.232  0.00  0.00    +0.038 A 
ATOM     24  C   UNL     1       5.801  -0.249  23.855  0.00  0.00    +0.123 A 
ENDBRANCH  15  17
ENDBRANCH   5  15
TORSDOF 4
ENDMDL
MODEL 2
REMARK VINA RESULT:      -2.1      3.561      8.761
REMARK  Name = 75537087
REMARK  4 active torsions:
REMARK  status: ('A' for Active; 'I' for Inactive)
REMARK    1  A    between atoms: N_4  and  C_14
REMARK    2  A    between atoms: N_5  and  C_15
REMARK    3  A    between atoms: C_14  and  C_16
REMARK    4  A    between atoms: C_15  and  C_17
REMARK                            x       y       z     vdW  Elec       q    Type
REMARK                         _______ _______ _______ _____ _____    ______ ____
ROOT
ATOM      2  O   UNL     1      -2.508   2.447  25.491  0.00  0.00    -0.252 OA
ATOM      3  N   UNL     1      -0.812   0.962  24.829  0.00  0.00    -0.278 N 
ATOM      4  N   UNL     1       1.548   0.054  23.595  0.00  0.00    -0.292 NA
ATOM      5  N   UNL     1      -2.944   0.275  24.683  0.00  0.00    -0.279 N 
ATOM      8  C   UNL     1      -0.719  -0.426  24.426  0.00  0.00    +0.109 C 
ATOM      9  C   UNL     1       0.255  -0.577  23.259  0.00  0.00    +0.109 C 
ATOM     10  C   UNL     1      -2.164  -0.808  24.110  0.00  0.00    +0.133 C 
ATOM     11  C   UNL     1       0.403   1.721  25.042  0.00  0.00    +0.125 C 
ATOM     12  C   UNL     1       1.373   1.493  23.879  0.00  0.00    +0.104 C 
ATOM     13  C   UNL     1      -2.134   1.365  25.060  0.00  0.00    +0.305 C 
ENDROOT
BRANCH   4  14
ATOM     14  C   UNL     1       2.508  -0.139  22.509  0.00  0.00    +0.158 C 
BRANCH  14  16
ATOM      6  N   UNL     1       4.341  -1.215  23.828  0.00  0.00    -0.347 N 
ATOM      7  N   UNL     1       4.887   0.652  22.758  0.00  0.00    -0.239 NA
ATOM     16  C   UNL     1       3.921  -0.202  23.013  0.00  0.00    +0.121 A 
ATOM     20  C   UNL     1       5.659  -0.994  24.112  0.00  0.00    +0.104 A 
ATOM     21  C   UNL     1       5.973   0.164  23.440  0.00  0.00    +0.130 A 
ATOM     25  H   UNL     1       3.780  -1.989  24.160  0.00  0.00    +0.167 HD
ENDBRANCH  14  16
ENDBRANCH   4  14
BRANCH   5  15
ATOM     15  C   UNL     1      -4.391   0.252  24.700  0.00  0.00    +0.144 C 
BRANCH  15  17
ATOM      1  F   UNL     1      -6.563   5.352  25.681  0.00  0.00    -0.205 F 
ATOM     17  C   UNL     1      -4.971   1.612  24.962  0.00  0.00    -0.030 A 
ATOM     18  C   UNL     1      -4.624   2.687  24.142  0.00  0.00    +0.008 A 
ATOM     19  C   UNL     1      -5.854   1.801  26.024  0.00  0.00    +0.008 A 
ATOM     22  C   UNL     1      -5.163   3.950  24.385  0.00  0.00    +0.038 A 
ATOM     23  C   UNL     1      -6.392   3.065  26.267  0.00  0.00    +0.038 A 
ATOM     24  C   UNL     1      -6.047   4.139  25.448  0.00  0.00    +0.123 A 
ENDBRANCH  15  17
ENDBRANCH   5  15
TORSDOF 4
ENDMDL
MODEL 3
REMARK VINA RESULT:      -1.6      1.495      2.125
REMARK  Name = 75537087
REMARK  4 active torsions:
REMARK  status: ('A' for Active; 'I' for Inactive)
REMARK    1  A    between atoms: N_4  and  C_14
REMARK    2  A    between atoms: N_5  and  C_15
REMARK    3  A    between atoms: C_14  and  C_16
REMARK    4  A    between atoms: C_15  and  C_17
REMARK                            x       y       z     vdW  Elec       q    Type
REMARK                         _______ _______ _______ _____ _____    ______ ____
ROOT
ATOM      2  O   UNL     1       1.105   1.612  25.417  0.00  0.00    -0.252 OA
ATOM      3  N   UNL     1      -0.774   2.715  24.539  0.00  0.00    -0.278 N 
ATOM      4  N   UNL     1      -3.231   4.085  24.494  0.00  0.00    -0.292 NA
ATOM      5  N   UNL     1      -0.090   0.822  23.544  0.00  0.00    -0.279 N 
ATOM      8  C   UNL     1      -1.629   2.586  23.377  0.00  0.00    +0.109 C 
ATOM      9  C   UNL     1      -3.090   2.808  23.765  0.00  0.00    +0.109 C 
ATOM     10  C   UNL     1      -1.310   1.190  22.846  0.00  0.00    +0.133 C 
ATOM     11  C   UNL     1      -0.931   3.861  25.411  0.00  0.00    +0.125 C 
ATOM     12  C   UNL     1      -2.413   4.082  25.724  0.00  0.00    +0.104 C 
ATOM     13  C   UNL     1       0.198   1.708  24.602  0.00  0.00    +0.305 C 
ENDROOT
BRANCH   4  14
ATOM     14  C   UNL     1      -4.635   4.336  24.816  0.00  0.00    +0.158 C 
BRANCH  14  16
ATOM      6  N   UNL     1      -5.849   2.985  26.536  0.00  0.00    -0.347 N 
ATOM      7  N   UNL     1      -5.546   2.001  24.568  0.00  0.00    -0.239 NA
ATOM     16  C   UNL     1      -5.339   3.091  25.273  0.00  0.00    +0.121 A 
ATOM     20  C   UNL     1      -6.420   1.748  26.645  0.00  0.00    +0.104 A 
ATOM     21  C   UNL     1      -6.221   1.159  25.418  0.00  0.00    +0.130 A 
ATOM     25  H   UNL     1      -5.814   3.692  27.258  0.00  0.00    +0.167 HD
ENDBRANCH  14  16
ENDBRANCH   4  14
BRANCH   5  15
ATOM     15  C   UNL     1       0.621  -0.403  23.250  0.00  0.00    +0.144 C 
BRANCH  15  17
ATOM      1  F   UNL     1       6.197   0.370  23.171  0.00  0.00    -0.205 F 
ATOM     17  C   UNL     1       2.109  -0.197  23.230  0.00  0.00    -0.030 A 
ATOM     18  C   UNL     1       2.641   0.983  22.709  0.00  0.00    +0.008 A 
ATOM     19  C   UNL     1       2.957  -1.185  23.729  0.00  0.00    +0.008 A 
ATOM     22  C   UNL     1       4.022   1.175  22.690  0.00  0.00    +0.038 A 
ATOM     23  C   UNL     1       4.338  -0.993  23.708  0.00  0.00    +0.038 A 
ATOM     24  C   UNL     1       4.871   0.186  23.190  0.00  0.00    +0.123 A 
ENDBRANCH  15  17
ENDBRANCH   5  15
TORSDOF 4
ENDMDL
MODEL 4
REMARK VINA RESULT:      -0.4      3.394      8.458
REMARK  Name = 75537087
REMARK  4 active torsions:
REMARK  status: ('A' for Active; 'I' for Inactive)
REMARK    1  A    between atoms: N_4  and  C_14
REMARK    2  A    between atoms: N_5  and  C_15
REMARK    3  A    between atoms: C_14  and  C_16
REMARK    4  A    between atoms: C_15  and  C_17
REMARK                            x       y       z     vdW  Elec       q    Type
REMARK                         _______ _______ _______ _____ _____    ______ ____
ROOT
ATOM      2  O   UNL     1      -1.514  -2.230  24.337  0.00  0.00    -0.252 OA
ATOM      3  N   UNL     1      -0.216  -0.468  23.482  0.00  0.00    -0.278 N 
ATOM      4  N   UNL     1       2.075   1.033  22.839  0.00  0.00    -0.292 NA
ATOM      5  N   UNL     1      -2.071   0.042  24.640  0.00  0.00    -0.279 N 
ATOM      8  C   UNL     1      -0.328   0.972  23.373  0.00  0.00    +0.109 C 
ATOM      9  C   UNL     1       1.016   1.633  23.676  0.00  0.00    +0.109 C 
ATOM     10  C   UNL     1      -1.450   1.322  24.348  0.00  0.00    +0.133 C 
ATOM     11  C   UNL     1       0.878  -1.146  22.818  0.00  0.00    +0.125 C 
ATOM     12  C   UNL     1       2.194  -0.416  23.099  0.00  0.00    +0.104 C 
ATOM     13  C   UNL     1      -1.296  -1.037  24.170  0.00  0.00    +0.305 C 
ENDROOT
BRANCH   4  14
ATOM     14  C   UNL     1       3.353   1.701  23.076  0.00  0.00    +0.158 C 
BRANCH  14  16
ATOM      6  N   UNL     1       4.893   0.372  24.533  0.00  0.00    -0.347 N 
ATOM      7  N   UNL     1       5.154   0.098  22.345  0.00  0.00    -0.239 NA
ATOM     16  C   UNL     1       4.471   0.719  23.280  0.00  0.00    +0.121 A 
ATOM     20  C   UNL     1       5.912  -0.528  24.388  0.00  0.00    +0.104 A 
ATOM     21  C   UNL     1       6.054  -0.681  23.029  0.00  0.00    +0.130 A 
ATOM     25  H   UNL     1       4.520   0.716  25.408  0.00  0.00    +0.167 HD
ENDBRANCH  14  16
ENDBRANCH   4  14
BRANCH   5  15
ATOM     15  C   UNL     1      -3.263  -0.065  25.453  0.00  0.00    +0.144 C 
BRANCH  15  17
ATOM      1  F   UNL     1      -6.226   4.722  25.481  0.00  0.00    -0.205 F 
ATOM     17  C   UNL     1      -4.053   1.212  25.460  0.00  0.00    -0.030 A 
ATOM     18  C   UNL     1      -3.400   2.435  25.606  0.00  0.00    +0.008 A 
ATOM     19  C   UNL     1      -5.440   1.174  25.321  0.00  0.00    +0.008 A 
ATOM     22  C   UNL     1      -4.133   3.621  25.613  0.00  0.00    +0.038 A 
ATOM     23  C   UNL     1      -6.174   2.361  25.328  0.00  0.00    +0.038 A 
ATOM     24  C   UNL     1      -5.521   3.584  25.474  0.00  0.00    +0.123 A 
ENDBRANCH  15  17
ENDBRANCH   5  15
TORSDOF 4
ENDMDL
MODEL 5
REMARK VINA RESULT:      -0.3      3.501      8.524
REMARK  Name = 75537087
REMARK  4 active torsions:
REMARK  status: ('A' for Active; 'I' for Inactive)
REMARK    1  A    between atoms: N_4  and  C_14
REMARK    2  A    between atoms: N_5  and  C_15
REMARK    3  A    between atoms: C_14  and  C_16
REMARK    4  A    between atoms: C_15  and  C_17
REMARK                            x       y       z     vdW  Elec       q    Type
REMARK                         _______ _______ _______ _____ _____    ______ ____
ROOT
ATOM      2  O   UNL     1      -1.290  -0.243  26.138  0.00  0.00    -0.252 OA
ATOM      3  N   UNL     1      -0.066   0.110  24.164  0.00  0.00    -0.278 N 
ATOM      4  N   UNL     1       2.090   0.013  22.360  0.00  0.00    -0.292 NA
ATOM      5  N   UNL     1      -1.247   1.824  25.004  0.00  0.00    -0.279 N 
ATOM      8  C   UNL     1       0.075   1.164  23.180  0.00  0.00    +0.109 C 
ATOM      9  C   UNL     1       1.540   1.319  22.775  0.00  0.00    +0.109 C 
ATOM     10  C   UNL     1      -0.534   2.384  23.868  0.00  0.00    +0.133 C 
ATOM     11  C   UNL     1       0.564  -1.172  23.924  0.00  0.00    +0.125 C 
ATOM     12  C   UNL     1       2.009  -0.967  23.462  0.00  0.00    +0.104 C 
ATOM     13  C   UNL     1      -0.918   0.471  25.216  0.00  0.00    +0.305 C 
ENDROOT
BRANCH   4  14
ATOM     14  C   UNL     1       3.474   0.161  21.910  0.00  0.00    +0.158 C 
BRANCH  14  16
ATOM      6  N   UNL     1       4.776  -1.148  23.598  0.00  0.00    -0.347 N 
ATOM      7  N   UNL     1       5.079   1.051  23.636  0.00  0.00    -0.239 NA
ATOM     16  C   UNL     1       4.448   0.059  23.048  0.00  0.00    +0.121 A 
ATOM     20  C   UNL     1       5.673  -0.912  24.602  0.00  0.00    +0.104 A 
ATOM     21  C   UNL     1       5.845   0.452  24.606  0.00  0.00    +0.130 A 
ATOM     25  H   UNL     1       4.422  -2.052  23.315  0.00  0.00    +0.167 HD
ENDBRANCH  14  16
ENDBRANCH   4  14
BRANCH   5  15
ATOM     15  C   UNL     1      -2.066   2.642  25.872  0.00  0.00    +0.144 C 
BRANCH  15  17
ATOM      1  F   UNL     1      -7.553   2.046  24.759  0.00  0.00    -0.205 F 
ATOM     17  C   UNL     1      -3.530   2.483  25.576  0.00  0.00    -0.030 A 
ATOM     18  C   UNL     1      -4.005   1.290  25.032  0.00  0.00    +0.008 A 
ATOM     19  C   UNL     1      -4.413   3.529  25.843  0.00  0.00    +0.008 A 
ATOM     22  C   UNL     1      -5.364   1.142  24.756  0.00  0.00    +0.038 A 
ATOM     23  C   UNL     1      -5.772   3.381  25.566  0.00  0.00    +0.038 A 
ATOM     24  C   UNL     1      -6.248   2.188  25.023  0.00  0.00    +0.123 A 
ENDBRANCH  15  17
ENDBRANCH   5  15
TORSDOF 4
ENDMDL
MODEL 6
REMARK VINA RESULT:      -0.3      3.481      8.395
REMARK  Name = 75537087
REMARK  4 active torsions:
REMARK  status: ('A' for Active; 'I' for Inactive)
REMARK    1  A    between atoms: N_4  and  C_14
REMARK    2  A    between atoms: N_5  and  C_15
REMARK    3  A    between atoms: C_14  and  C_16
REMARK    4  A    between atoms: C_15  and  C_17
REMARK                            x       y       z     vdW  Elec       q    Type
REMARK                         _______ _______ _______ _____ _____    ______ ____
ROOT
ATOM      2  O   UNL     1      -2.763  -1.400  26.429  0.00  0.00    -0.252 OA
ATOM      3  N   UNL     1      -1.367  -1.106  24.563  0.00  0.00    -0.278 N 
ATOM      4  N   UNL     1       0.923  -0.416  23.079  0.00  0.00    -0.292 NA
ATOM      5  N   UNL     1      -3.513  -0.472  24.394  0.00  0.00    -0.279 N 
ATOM      8  C   UNL     1      -1.520  -0.707  23.179  0.00  0.00    +0.109 C 
ATOM      9  C   UNL     1      -0.375   0.214  22.761  0.00  0.00    +0.109 C 
ATOM     10  C   UNL     1      -2.907  -0.068  23.138  0.00  0.00    +0.133 C 
ATOM     11  C   UNL     1      -0.084  -1.601  25.019  0.00  0.00    +0.125 C 
ATOM     12  C   UNL     1       1.037  -0.682  24.528  0.00  0.00    +0.104 C 
ATOM     13  C   UNL     1      -2.572  -1.043  25.274  0.00  0.00    +0.305 C 
ENDROOT
BRANCH   4  14
ATOM     14  C   UNL     1       2.026   0.430  22.628  0.00  0.00    +0.158 C 
BRANCH  14  16
ATOM      6  N   UNL     1       4.382   0.829  23.367  0.00  0.00    -0.347 N 
ATOM      7  N   UNL     1       3.677  -1.274  23.474  0.00  0.00    -0.239 NA
ATOM     16  C   UNL     1       3.349  -0.041  23.158  0.00  0.00    +0.121 A 
ATOM     20  C   UNL     1       5.438   0.105  23.846  0.00  0.00    +0.104 A 
ATOM     21  C   UNL     1       4.978  -1.190  23.904  0.00  0.00    +0.130 A 
ATOM     25  H   UNL     1       4.370   1.826  23.200  0.00  0.00    +0.167 HD
ENDBRANCH  14  16
ENDBRANCH   4  14
BRANCH   5  15
ATOM     15  C   UNL     1      -4.890  -0.163  24.715  0.00  0.00    +0.144 C 
BRANCH  15  17
ATOM      1  F   UNL     1      -5.651   5.333  25.668  0.00  0.00    -0.205 F 
ATOM     17  C   UNL     1      -5.092   1.303  24.969  0.00  0.00    -0.030 A 
ATOM     18  C   UNL     1      -6.102   1.727  25.833  0.00  0.00    +0.008 A 
ATOM     19  C   UNL     1      -4.272   2.239  24.341  0.00  0.00    +0.008 A 
ATOM     22  C   UNL     1      -6.291   3.088  26.069  0.00  0.00    +0.038 A 
ATOM     23  C   UNL     1      -4.462   3.601  24.577  0.00  0.00    +0.038 A 
ATOM     24  C   UNL     1      -5.470   4.026  25.441  0.00  0.00    +0.123 A 
ENDBRANCH  15  17
ENDBRANCH   5  15
TORSDOF 4
ENDMDL
MODEL 7
REMARK VINA RESULT:       1.3      3.514      7.842
REMARK  Name = 75537087
REMARK  4 active torsions:
REMARK  status: ('A' for Active; 'I' for Inactive)
REMARK    1  A    between atoms: N_4  and  C_14
REMARK    2  A    between atoms: N_5  and  C_15
REMARK    3  A    between atoms: C_14  and  C_16
REMARK    4  A    between atoms: C_15  and  C_17
REMARK                            x       y       z     vdW  Elec       q    Type
REMARK                         _______ _______ _______ _____ _____    ______ ____
ROOT
ATOM      2  O   UNL     1      -2.832   3.565  24.579  0.00  0.00    -0.252 OA
ATOM      3  N   UNL     1      -0.665   2.658  24.558  0.00  0.00    -0.278 N 
ATOM      4  N   UNL     1       1.942   2.109  23.654  0.00  0.00    -0.292 NA
ATOM      5  N   UNL     1      -2.373   1.317  25.125  0.00  0.00    -0.279 N 
ATOM      8  C   UNL     1      -0.035   1.413  24.945  0.00  0.00    +0.109 C 
ATOM      9  C   UNL     1       1.003   0.996  23.904  0.00  0.00    +0.109 C 
ATOM     10  C   UNL     1      -1.209   0.448  25.104  0.00  0.00    +0.133 C 
ATOM     11  C   UNL     1       0.163   3.774  24.148  0.00  0.00    +0.125 C 
ATOM     12  C   UNL     1       1.225   3.299  23.153  0.00  0.00    +0.104 C 
ATOM     13  C   UNL     1      -2.054   2.634  24.738  0.00  0.00    +0.305 C 
ENDROOT
BRANCH   4  14
ATOM     14  C   UNL     1       2.976   1.700  22.704  0.00  0.00    +0.158 C 
BRANCH  14  16
ATOM      6  N   UNL     1       5.022   0.757  23.794  0.00  0.00    -0.347 N 
ATOM      7  N   UNL     1       3.471  -0.719  23.208  0.00  0.00    -0.239 NA
ATOM     16  C   UNL     1       3.796   0.554  23.226  0.00  0.00    +0.121 A 
ATOM     20  C   UNL     1       5.511  -0.464  24.162  0.00  0.00    +0.104 A 
ATOM     21  C   UNL     1       4.536  -1.360  23.791  0.00  0.00    +0.130 A 
ATOM     25  H   UNL     1       5.484   1.648  23.921  0.00  0.00    +0.167 HD
ENDBRANCH  14  16
ENDBRANCH   4  14
BRANCH   5  15
ATOM     15  C   UNL     1      -3.705   0.807  25.371  0.00  0.00    +0.144 C 
BRANCH  15  17
ATOM      1  F   UNL     1      -4.165  -4.629  23.979  0.00  0.00    -0.205 F 
ATOM     17  C   UNL     1      -3.829  -0.643  24.999  0.00  0.00    -0.030 A 
ATOM     18  C   UNL     1      -3.350  -1.626  25.865  0.00  0.00    +0.008 A 
ATOM     19  C   UNL     1      -4.420  -1.005  23.790  0.00  0.00    +0.008 A 
ATOM     22  C   UNL     1      -3.464  -2.973  25.520  0.00  0.00    +0.038 A 
ATOM     23  C   UNL     1      -4.533  -2.352  23.445  0.00  0.00    +0.038 A 
ATOM     24  C   UNL     1      -4.056  -3.336  24.310  0.00  0.00    +0.123 A 
ENDBRANCH  15  17
ENDBRANCH   5  15
TORSDOF 4
ENDMDL
