MODEL 1
REMARK VINA RESULT:      -5.4      0.000      0.000
REMARK  Name = 75536741
REMARK  9 active torsions:
REMARK  status: ('A' for Active; 'I' for Inactive)
REMARK    1  A    between atoms: O_3  and  C_9
REMARK    2  A    between atoms: N_5  and  C_8
REMARK    3  A    between atoms: N_5  and  C_13
REMARK    4  A    between atoms: N_6  and  C_12
REMARK    5  A    between atoms: N_7  and  C_16
REMARK    6  A    between atoms: C_10  and  C_12
REMARK    7  A    between atoms: C_13  and  C_14
REMARK    8  A    between atoms: C_16  and  C_18
REMARK    9  A    between atoms: C_16  and  C_19
REMARK                            x       y       z     vdW  Elec       q    Type
REMARK                         _______ _______ _______ _____ _____    ______ ____
ROOT
ATOM      2  O   UNL     1       0.150   3.272  23.535  0.00  0.00    -0.371 OA
ATOM      8  C   UNL     1      -0.889   3.801  25.604  0.00  0.00    +0.111 C 
ATOM      9  C   UNL     1      -0.494   2.336  25.610  0.00  0.00    +0.164 C 
ATOM     10  C   UNL     1       0.571   2.316  24.522  0.00  0.00    +0.165 C 
ATOM     11  C   UNL     1      -0.859   4.115  24.118  0.00  0.00    +0.181 C 
ENDROOT
BRANCH   9   3
ATOM      3  O   UNL     1       0.020   1.914  26.859  0.00  0.00    -0.388 OA
ATOM     23  H   UNL     1      -0.729   1.732  27.451  0.00  0.00    +0.210 HD
ENDBRANCH   9   3
BRANCH   8   5
ATOM      5  N   UNL     1      -2.185   4.059  26.211  0.00  0.00    -0.304 NA
ATOM     22  H   UNL     1      -2.116   4.892  26.797  0.00  0.00    +0.123 HD
BRANCH   5  13
ATOM     13  C   UNL     1      -3.208   4.274  25.195  0.00  0.00    +0.124 C 
BRANCH  13  14
ATOM      1  S   UNL     1      -3.960   1.792  24.193  0.00  0.00    -0.100 S 
ATOM     14  C   UNL     1      -4.226   3.166  25.179  0.00  0.00    +0.004 A 
ATOM     17  C   UNL     1      -5.409   3.080  25.878  0.00  0.00    +0.012 A 
ATOM     20  C   UNL     1      -6.108   1.869  25.598  0.00  0.00    +0.008 A 
ATOM     21  C   UNL     1      -5.432   1.077  24.698  0.00  0.00    +0.045 A 
ENDBRANCH  13  14
ENDBRANCH   5  13
ENDBRANCH   8   5
BRANCH  10  12
ATOM     12  C   UNL     1       0.744   0.952  23.876  0.00  0.00    +0.140 C 
BRANCH  12   6
ATOM      4  O   UNL     1      -0.448  -1.090  25.530  0.00  0.00    -0.253 OA
ATOM      6  N   UNL     1      -0.522   0.307  23.675  0.00  0.00    -0.297 N 
ATOM      7  N   UNL     1      -2.275  -1.134  24.100  0.00  0.00    -0.297 N 
ATOM     15  C   UNL     1      -1.029  -0.679  24.528  0.00  0.00    +0.300 C 
ATOM     24  H   UNL     1      -1.071   0.570  22.863  0.00  0.00    +0.150 HD
ATOM     25  H   UNL     1      -2.707  -0.679  23.302  0.00  0.00    +0.150 HD
BRANCH   7  16
ATOM     16  C   UNL     1      -3.019  -2.152  24.802  0.00  0.00    +0.068 C 
ATOM     18  C   UNL     1      -4.188  -2.635  23.954  0.00  0.00    +0.027 C 
ATOM     19  C   UNL     1      -3.495  -1.631  26.153  0.00  0.00    +0.027 C 
ENDBRANCH   7  16
ENDBRANCH  12   6
ENDBRANCH  10  12
TORSDOF 7
ENDMDL
MODEL 2
REMARK VINA RESULT:      -5.4      2.309      4.378
REMARK  Name = 75536741
REMARK  9 active torsions:
REMARK  status: ('A' for Active; 'I' for Inactive)
REMARK    1  A    between atoms: O_3  and  C_9
REMARK    2  A    between atoms: N_5  and  C_8
REMARK    3  A    between atoms: N_5  and  C_13
REMARK    4  A    between atoms: N_6  and  C_12
REMARK    5  A    between atoms: N_7  and  C_16
REMARK    6  A    between atoms: C_10  and  C_12
REMARK    7  A    between atoms: C_13  and  C_14
REMARK    8  A    between atoms: C_16  and  C_18
REMARK    9  A    between atoms: C_16  and  C_19
REMARK                            x       y       z     vdW  Elec       q    Type
REMARK                         _______ _______ _______ _____ _____    ______ ____
ROOT
ATOM      2  O   UNL     1      -1.758   2.691  23.367  0.00  0.00    -0.371 OA
ATOM      8  C   UNL     1      -4.028   2.656  24.066  0.00  0.00    +0.111 C 
ATOM      9  C   UNL     1      -3.142   2.884  25.276  0.00  0.00    +0.164 C 
ATOM     10  C   UNL     1      -1.869   3.397  24.615  0.00  0.00    +0.165 C 
ATOM     11  C   UNL     1      -3.031   2.095  23.065  0.00  0.00    +0.181 C 
ENDROOT
BRANCH   9   3
ATOM      3  O   UNL     1      -3.683   3.830  26.179  0.00  0.00    -0.388 OA
ATOM     23  H   UNL     1      -2.971   4.136  26.764  0.00  0.00    +0.210 HD
ENDBRANCH   9   3
BRANCH   8   5
ATOM      5  N   UNL     1      -5.142   1.758  24.320  0.00  0.00    -0.304 NA
ATOM     22  H   UNL     1      -5.307   1.192  23.487  0.00  0.00    +0.123 HD
BRANCH   5  13
ATOM     13  C   UNL     1      -4.860   0.875  25.446  0.00  0.00    +0.124 C 
BRANCH  13  14
ATOM      1  S   UNL     1      -2.738  -0.888  25.794  0.00  0.00    -0.100 S 
ATOM     14  C   UNL     1      -4.177  -0.392  25.009  0.00  0.00    +0.004 A 
ATOM     17  C   UNL     1      -4.552  -1.269  24.015  0.00  0.00    +0.012 A 
ATOM     20  C   UNL     1      -3.645  -2.362  23.896  0.00  0.00    +0.008 A 
ATOM     21  C   UNL     1      -2.613  -2.279  24.803  0.00  0.00    +0.045 A 
ENDBRANCH  13  14
ENDBRANCH   5  13
ENDBRANCH   8   5
BRANCH  10  12
ATOM     12  C   UNL     1      -0.622   3.162  25.450  0.00  0.00    +0.140 C 
BRANCH  12   6
ATOM      4  O   UNL     1       0.146   0.512  24.607  0.00  0.00    -0.253 OA
ATOM      6  N   UNL     1       0.498   2.808  24.627  0.00  0.00    -0.297 N 
ATOM      7  N   UNL     1       1.940   1.434  23.461  0.00  0.00    -0.297 N 
ATOM     15  C   UNL     1       0.802   1.493  24.263  0.00  0.00    +0.300 C 
ATOM     24  H   UNL     1       1.110   3.551  24.305  0.00  0.00    +0.150 HD
ATOM     25  H   UNL     1       2.370   2.306  23.169  0.00  0.00    +0.150 HD
BRANCH   7  16
ATOM     16  C   UNL     1       2.471   0.194  22.947  0.00  0.00    +0.068 C 
ATOM     18  C   UNL     1       3.936   0.362  22.565  0.00  0.00    +0.027 C 
ATOM     19  C   UNL     1       1.644  -0.292  21.763  0.00  0.00    +0.027 C 
ENDBRANCH   7  16
ENDBRANCH  12   6
ENDBRANCH  10  12
TORSDOF 7
ENDMDL
MODEL 3
REMARK VINA RESULT:      -4.9      1.987      4.448
REMARK  Name = 75536741
REMARK  9 active torsions:
REMARK  status: ('A' for Active; 'I' for Inactive)
REMARK    1  A    between atoms: O_3  and  C_9
REMARK    2  A    between atoms: N_5  and  C_8
REMARK    3  A    between atoms: N_5  and  C_13
REMARK    4  A    between atoms: N_6  and  C_12
REMARK    5  A    between atoms: N_7  and  C_16
REMARK    6  A    between atoms: C_10  and  C_12
REMARK    7  A    between atoms: C_13  and  C_14
REMARK    8  A    between atoms: C_16  and  C_18
REMARK    9  A    between atoms: C_16  and  C_19
REMARK                            x       y       z     vdW  Elec       q    Type
REMARK                         _______ _______ _______ _____ _____    ______ ____
ROOT
ATOM      2  O   UNL     1       0.138   3.706  25.787  0.00  0.00    -0.371 OA
ATOM      8  C   UNL     1      -0.036   1.610  24.681  0.00  0.00    +0.111 C 
ATOM      9  C   UNL     1      -1.293   2.416  24.414  0.00  0.00    +0.164 C 
ATOM     10  C   UNL     1      -0.805   3.828  24.708  0.00  0.00    +0.165 C 
ATOM     11  C   UNL     1       0.526   2.325  25.899  0.00  0.00    +0.181 C 
ENDROOT
BRANCH   9   3
ATOM      3  O   UNL     1      -1.753   2.285  23.083  0.00  0.00    -0.388 OA
ATOM     23  H   UNL     1      -1.506   1.402  22.760  0.00  0.00    +0.210 HD
ENDBRANCH   9   3
BRANCH   8   5
ATOM      5  N   UNL     1      -0.287   0.199  24.920  0.00  0.00    -0.304 NA
ATOM     22  H   UNL     1       0.511  -0.200  25.416  0.00  0.00    +0.123 HD
BRANCH   5  13
ATOM     13  C   UNL     1      -1.489   0.007  25.722  0.00  0.00    +0.124 C 
BRANCH  13  14
ATOM      1  S   UNL     1      -2.033  -2.481  24.605  0.00  0.00    -0.100 S 
ATOM     14  C   UNL     1      -2.486  -0.886  25.034  0.00  0.00    +0.004 A 
ATOM     17  C   UNL     1      -3.786  -0.604  24.676  0.00  0.00    +0.012 A 
ATOM     20  C   UNL     1      -4.417  -1.711  24.038  0.00  0.00    +0.008 A 
ATOM     21  C   UNL     1      -3.577  -2.797  23.935  0.00  0.00    +0.045 A 
ENDBRANCH  13  14
ENDBRANCH   5  13
ENDBRANCH   8   5
BRANCH  10  12
ATOM     12  C   UNL     1      -1.921   4.778  25.107  0.00  0.00    +0.140 C 
BRANCH  12   6
ATOM      4  O   UNL     1      -4.431   3.740  24.133  0.00  0.00    -0.253 OA
ATOM      6  N   UNL     1      -2.932   4.105  25.870  0.00  0.00    -0.297 N 
ATOM      7  N   UNL     1      -4.926   3.017  26.281  0.00  0.00    -0.297 N 
ATOM     15  C   UNL     1      -4.126   3.630  25.319  0.00  0.00    +0.300 C 
ATOM     24  H   UNL     1      -2.777   3.979  26.865  0.00  0.00    +0.150 HD
ATOM     25  H   UNL     1      -4.554   2.909  27.220  0.00  0.00    +0.150 HD
BRANCH   7  16
ATOM     16  C   UNL     1      -6.214   2.442  25.976  0.00  0.00    +0.068 C 
ATOM     18  C   UNL     1      -6.647   1.493  27.086  0.00  0.00    +0.027 C 
ATOM     19  C   UNL     1      -6.178   1.733  24.627  0.00  0.00    +0.027 C 
ENDBRANCH   7  16
ENDBRANCH  12   6
ENDBRANCH  10  12
TORSDOF 7
ENDMDL
MODEL 4
REMARK VINA RESULT:      -4.7      2.091      4.484
REMARK  Name = 75536741
REMARK  9 active torsions:
REMARK  status: ('A' for Active; 'I' for Inactive)
REMARK    1  A    between atoms: O_3  and  C_9
REMARK    2  A    between atoms: N_5  and  C_8
REMARK    3  A    between atoms: N_5  and  C_13
REMARK    4  A    between atoms: N_6  and  C_12
REMARK    5  A    between atoms: N_7  and  C_16
REMARK    6  A    between atoms: C_10  and  C_12
REMARK    7  A    between atoms: C_13  and  C_14
REMARK    8  A    between atoms: C_16  and  C_18
REMARK    9  A    between atoms: C_16  and  C_19
REMARK                            x       y       z     vdW  Elec       q    Type
REMARK                         _______ _______ _______ _____ _____    ______ ____
ROOT
ATOM      2  O   UNL     1      -1.230  -1.990  23.550  0.00  0.00    -0.371 OA
ATOM      8  C   UNL     1       0.073  -0.403  24.744  0.00  0.00    +0.111 C 
ATOM      9  C   UNL     1      -1.197  -0.688  25.524  0.00  0.00    +0.164 C 
ATOM     10  C   UNL     1      -1.607  -2.031  24.937  0.00  0.00    +0.165 C 
ATOM     11  C   UNL     1      -0.306  -0.904  23.360  0.00  0.00    +0.181 C 
ENDROOT
BRANCH   9   3
ATOM      3  O   UNL     1      -0.974  -0.769  26.919  0.00  0.00    -0.388 OA
ATOM     23  H   UNL     1      -0.209  -0.213  27.139  0.00  0.00    +0.210 HD
ENDBRANCH   9   3
BRANCH   8   5
ATOM      5  N   UNL     1       0.461   0.998  24.752  0.00  0.00    -0.304 NA
ATOM     22  H   UNL     1       1.437   1.072  24.464  0.00  0.00    +0.123 HD
BRANCH   5  13
ATOM     13  C   UNL     1      -0.365   1.777  23.837  0.00  0.00    +0.124 C 
BRANCH  13  14
ATOM      1  S   UNL     1      -1.929   2.923  25.831  0.00  0.00    -0.100 S 
ATOM     14  C   UNL     1      -0.881   3.036  24.481  0.00  0.00    +0.004 A 
ATOM     17  C   UNL     1      -0.626   4.344  24.133  0.00  0.00    +0.012 A 
ATOM     20  C   UNL     1      -1.301   5.265  24.985  0.00  0.00    +0.008 A 
ATOM     21  C   UNL     1      -2.046   4.627  25.952  0.00  0.00    +0.045 A 
ENDBRANCH  13  14
ENDBRANCH   5  13
ENDBRANCH   8   5
BRANCH  10  12
ATOM     12  C   UNL     1      -3.096  -2.309  25.056  0.00  0.00    +0.140 C 
BRANCH  12   6
ATOM      4  O   UNL     1      -3.971  -0.091  23.432  0.00  0.00    -0.253 OA
ATOM      6  N   UNL     1      -3.810  -1.145  25.496  0.00  0.00    -0.297 N 
ATOM      7  N   UNL     1      -4.876   0.895  25.327  0.00  0.00    -0.297 N 
ATOM     15  C   UNL     1      -4.199  -0.110  24.640  0.00  0.00    +0.300 C 
ATOM     24  H   UNL     1      -4.032  -1.063  26.483  0.00  0.00    +0.150 HD
ATOM     25  H   UNL     1      -5.082   0.753  26.311  0.00  0.00    +0.150 HD
BRANCH   7  16
ATOM     16  C   UNL     1      -5.386   2.079  24.677  0.00  0.00    +0.068 C 
ATOM     18  C   UNL     1      -4.358   2.631  23.698  0.00  0.00    +0.027 C 
ATOM     19  C   UNL     1      -5.783   3.127  25.710  0.00  0.00    +0.027 C 
ENDBRANCH   7  16
ENDBRANCH  12   6
ENDBRANCH  10  12
TORSDOF 7
ENDMDL
MODEL 5
REMARK VINA RESULT:      -4.5      2.178      4.239
REMARK  Name = 75536741
REMARK  9 active torsions:
REMARK  status: ('A' for Active; 'I' for Inactive)
REMARK    1  A    between atoms: O_3  and  C_9
REMARK    2  A    between atoms: N_5  and  C_8
REMARK    3  A    between atoms: N_5  and  C_13
REMARK    4  A    between atoms: N_6  and  C_12
REMARK    5  A    between atoms: N_7  and  C_16
REMARK    6  A    between atoms: C_10  and  C_12
REMARK    7  A    between atoms: C_13  and  C_14
REMARK    8  A    between atoms: C_16  and  C_18
REMARK    9  A    between atoms: C_16  and  C_19
REMARK                            x       y       z     vdW  Elec       q    Type
REMARK                         _______ _______ _______ _____ _____    ______ ____
ROOT
ATOM      2  O   UNL     1      -4.140   3.804  26.472  0.00  0.00    -0.371 OA
ATOM      8  C   UNL     1      -2.416   4.221  24.892  0.00  0.00    +0.111 C 
ATOM      9  C   UNL     1      -3.343   3.153  24.342  0.00  0.00    +0.164 C 
ATOM     10  C   UNL     1      -4.597   3.399  25.171  0.00  0.00    +0.165 C 
ATOM     11  C   UNL     1      -2.755   4.179  26.373  0.00  0.00    +0.181 C 
ENDROOT
BRANCH   9   3
ATOM      3  O   UNL     1      -3.590   3.305  22.957  0.00  0.00    -0.388 OA
ATOM     23  H   UNL     1      -3.179   2.558  22.490  0.00  0.00    +0.210 HD
ENDBRANCH   9   3
BRANCH   8   5
ATOM      5  N   UNL     1      -1.010   3.966  24.626  0.00  0.00    -0.304 NA
ATOM     22  H   UNL     1      -0.489   4.837  24.735  0.00  0.00    +0.123 HD
BRANCH   5  13
ATOM     13  C   UNL     1      -0.472   2.972  25.547  0.00  0.00    +0.124 C 
BRANCH  13  14
ATOM      1  S   UNL     1      -0.891   0.223  25.506  0.00  0.00    -0.100 S 
ATOM     14  C   UNL     1      -0.209   1.657  24.864  0.00  0.00    +0.004 A 
ATOM     17  C   UNL     1       0.539   1.413  23.734  0.00  0.00    +0.012 A 
ATOM     20  C   UNL     1       0.555   0.030  23.391  0.00  0.00    +0.008 A 
ATOM     21  C   UNL     1      -0.183  -0.730  24.272  0.00  0.00    +0.045 A 
ENDBRANCH  13  14
ENDBRANCH   5  13
ENDBRANCH   8   5
BRANCH  10  12
ATOM     12  C   UNL     1      -5.483   2.171  25.297  0.00  0.00    +0.140 C 
BRANCH  12   6
ATOM      4  O   UNL     1      -4.295  -0.329  26.113  0.00  0.00    -0.253 OA
ATOM      6  N   UNL     1      -5.029   1.110  24.444  0.00  0.00    -0.297 N 
ATOM      7  N   UNL     1      -4.110  -0.931  23.880  0.00  0.00    -0.297 N 
ATOM     15  C   UNL     1      -4.462  -0.075  24.922  0.00  0.00    +0.300 C 
ATOM     24  H   UNL     1      -5.111   1.234  23.440  0.00  0.00    +0.150 HD
ATOM     25  H   UNL     1      -4.357  -0.664  22.932  0.00  0.00    +0.150 HD
BRANCH   7  16
ATOM     16  C   UNL     1      -3.505  -2.223  24.100  0.00  0.00    +0.068 C 
ATOM     18  C   UNL     1      -4.371  -3.323  23.500  0.00  0.00    +0.027 C 
ATOM     19  C   UNL     1      -3.268  -2.457  25.588  0.00  0.00    +0.027 C 
ENDBRANCH   7  16
ENDBRANCH  12   6
ENDBRANCH  10  12
TORSDOF 7
ENDMDL
MODEL 6
REMARK VINA RESULT:      -3.9      3.012      6.531
REMARK  Name = 75536741
REMARK  9 active torsions:
REMARK  status: ('A' for Active; 'I' for Inactive)
REMARK    1  A    between atoms: O_3  and  C_9
REMARK    2  A    between atoms: N_5  and  C_8
REMARK    3  A    between atoms: N_5  and  C_13
REMARK    4  A    between atoms: N_6  and  C_12
REMARK    5  A    between atoms: N_7  and  C_16
REMARK    6  A    between atoms: C_10  and  C_12
REMARK    7  A    between atoms: C_13  and  C_14
REMARK    8  A    between atoms: C_16  and  C_18
REMARK    9  A    between atoms: C_16  and  C_19
REMARK                            x       y       z     vdW  Elec       q    Type
REMARK                         _______ _______ _______ _____ _____    ______ ____
ROOT
ATOM      2  O   UNL     1      -1.690  -2.629  23.905  0.00  0.00    -0.371 OA
ATOM      8  C   UNL     1       0.000  -1.031  24.386  0.00  0.00    +0.111 C 
ATOM      9  C   UNL     1      -1.222  -0.727  25.231  0.00  0.00    +0.164 C 
ATOM     10  C   UNL     1      -1.938  -2.071  25.206  0.00  0.00    +0.165 C 
ATOM     11  C   UNL     1      -0.595  -1.916  23.303  0.00  0.00    +0.181 C 
ENDROOT
BRANCH   9   3
ATOM      3  O   UNL     1      -0.891  -0.331  26.548  0.00  0.00    -0.388 OA
ATOM     23  H   UNL     1      -1.363  -0.910  27.169  0.00  0.00    +0.210 HD
ENDBRANCH   9   3
BRANCH   8   5
ATOM      5  N   UNL     1       0.651   0.154  23.853  0.00  0.00    -0.304 NA
ATOM     22  H   UNL     1       1.240   0.564  24.580  0.00  0.00    +0.123 HD
BRANCH   5  13
ATOM     13  C   UNL     1       1.479  -0.174  22.699  0.00  0.00    +0.124 C 
BRANCH  13  14
ATOM      1  S   UNL     1       3.965   1.072  22.658  0.00  0.00    -0.100 S 
ATOM     14  C   UNL     1       2.939  -0.240  23.056  0.00  0.00    +0.004 A 
ATOM     17  C   UNL     1       3.620  -1.254  23.693  0.00  0.00    +0.012 A 
ATOM     20  C   UNL     1       5.003  -0.949  23.855  0.00  0.00    +0.008 A 
ATOM     21  C   UNL     1       5.326   0.285  23.336  0.00  0.00    +0.045 A 
ENDBRANCH  13  14
ENDBRANCH   5  13
ENDBRANCH   8   5
BRANCH  10  12
ATOM     12  C   UNL     1      -3.434  -1.959  25.441  0.00  0.00    +0.140 C 
BRANCH  12   6
ATOM      4  O   UNL     1      -4.087   0.163  23.598  0.00  0.00    -0.253 OA
ATOM      6  N   UNL     1      -3.811  -0.614  25.770  0.00  0.00    -0.297 N 
ATOM      7  N   UNL     1      -4.447   1.574  25.404  0.00  0.00    -0.297 N 
ATOM     15  C   UNL     1      -4.113   0.358  24.812  0.00  0.00    +0.300 C 
ATOM     24  H   UNL     1      -3.847  -0.352  26.750  0.00  0.00    +0.150 HD
ATOM     25  H   UNL     1      -4.514   1.616  26.416  0.00  0.00    +0.150 HD
BRANCH   7  16
ATOM     16  C   UNL     1      -4.801   2.746  24.638  0.00  0.00    +0.068 C 
ATOM     18  C   UNL     1      -3.552   3.399  24.061  0.00  0.00    +0.027 C 
ATOM     19  C   UNL     1      -5.591   3.727  25.496  0.00  0.00    +0.027 C 
ENDBRANCH   7  16
ENDBRANCH  12   6
ENDBRANCH  10  12
TORSDOF 7
ENDMDL
MODEL 7
REMARK VINA RESULT:      -3.5      2.252      5.333
REMARK  Name = 75536741
REMARK  9 active torsions:
REMARK  status: ('A' for Active; 'I' for Inactive)
REMARK    1  A    between atoms: O_3  and  C_9
REMARK    2  A    between atoms: N_5  and  C_8
REMARK    3  A    between atoms: N_5  and  C_13
REMARK    4  A    between atoms: N_6  and  C_12
REMARK    5  A    between atoms: N_7  and  C_16
REMARK    6  A    between atoms: C_10  and  C_12
REMARK    7  A    between atoms: C_13  and  C_14
REMARK    8  A    between atoms: C_16  and  C_18
REMARK    9  A    between atoms: C_16  and  C_19
REMARK                            x       y       z     vdW  Elec       q    Type
REMARK                         _______ _______ _______ _____ _____    ______ ____
ROOT
ATOM      2  O   UNL     1      -2.629  -2.989  23.831  0.00  0.00    -0.371 OA
ATOM      8  C   UNL     1      -1.000  -1.935  25.201  0.00  0.00    +0.111 C 
ATOM      9  C   UNL     1      -2.295  -1.150  25.281  0.00  0.00    +0.164 C 
ATOM     10  C   UNL     1      -3.302  -2.198  24.825  0.00  0.00    +0.165 C 
ATOM     11  C   UNL     1      -1.216  -2.743  23.932  0.00  0.00    +0.181 C 
ENDROOT
BRANCH   9   3
ATOM      3  O   UNL     1      -2.573  -0.687  26.589  0.00  0.00    -0.388 OA
ATOM     23  H   UNL     1      -3.219   0.035  26.526  0.00  0.00    +0.210 HD
ENDBRANCH   9   3
BRANCH   8   5
ATOM      5  N   UNL     1       0.187  -1.099  25.144  0.00  0.00    -0.304 NA
ATOM     22  H   UNL     1       1.002  -1.691  24.979  0.00  0.00    +0.123 HD
BRANCH   5  13
ATOM     13  C   UNL     1       0.088  -0.117  24.071  0.00  0.00    +0.124 C 
BRANCH  13  14
ATOM      1  S   UNL     1      -0.686   2.496  23.515  0.00  0.00    -0.100 S 
ATOM     14  C   UNL     1      -0.194   1.265  24.598  0.00  0.00    +0.004 A 
ATOM     17  C   UNL     1      -0.113   1.720  25.896  0.00  0.00    +0.012 A 
ATOM     20  C   UNL     1      -0.458   3.098  26.001  0.00  0.00    +0.008 A 
ATOM     21  C   UNL     1      -0.790   3.644  24.782  0.00  0.00    +0.045 A 
ENDBRANCH  13  14
ENDBRANCH   5  13
ENDBRANCH   8   5
BRANCH  10  12
ATOM     12  C   UNL     1      -4.567  -1.598  24.236  0.00  0.00    +0.140 C 
BRANCH  12   6
ATOM      4  O   UNL     1      -5.270   0.747  25.762  0.00  0.00    -0.253 OA
ATOM      6  N   UNL     1      -4.367  -0.229  23.857  0.00  0.00    -0.297 N 
ATOM      7  N   UNL     1      -4.431   2.070  24.051  0.00  0.00    -0.297 N 
ATOM     15  C   UNL     1      -4.739   0.855  24.658  0.00  0.00    +0.300 C 
ATOM     24  H   UNL     1      -3.947  -0.038  22.953  0.00  0.00    +0.150 HD
ATOM     25  H   UNL     1      -3.924   2.055  23.171  0.00  0.00    +0.150 HD
BRANCH   7  16
ATOM     16  C   UNL     1      -4.710   3.346  24.667  0.00  0.00    +0.068 C 
ATOM     18  C   UNL     1      -4.181   4.480  23.799  0.00  0.00    +0.027 C 
ATOM     19  C   UNL     1      -4.119   3.403  26.070  0.00  0.00    +0.027 C 
ENDBRANCH   7  16
ENDBRANCH  12   6
ENDBRANCH  10  12
TORSDOF 7
ENDMDL
MODEL 8
REMARK VINA RESULT:      -3.2      1.631      1.949
REMARK  Name = 75536741
REMARK  9 active torsions:
REMARK  status: ('A' for Active; 'I' for Inactive)
REMARK    1  A    between atoms: O_3  and  C_9
REMARK    2  A    between atoms: N_5  and  C_8
REMARK    3  A    between atoms: N_5  and  C_13
REMARK    4  A    between atoms: N_6  and  C_12
REMARK    5  A    between atoms: N_7  and  C_16
REMARK    6  A    between atoms: C_10  and  C_12
REMARK    7  A    between atoms: C_13  and  C_14
REMARK    8  A    between atoms: C_16  and  C_18
REMARK    9  A    between atoms: C_16  and  C_19
REMARK                            x       y       z     vdW  Elec       q    Type
REMARK                         _______ _______ _______ _____ _____    ______ ____
ROOT
ATOM      2  O   UNL     1       0.147   3.494  24.418  0.00  0.00    -0.371 OA
ATOM      8  C   UNL     1      -2.003   4.484  24.617  0.00  0.00    +0.111 C 
ATOM      9  C   UNL     1      -1.842   3.432  25.697  0.00  0.00    +0.164 C 
ATOM     10  C   UNL     1      -0.326   3.309  25.763  0.00  0.00    +0.165 C 
ATOM     11  C   UNL     1      -0.910   4.082  23.640  0.00  0.00    +0.181 C 
ENDROOT
BRANCH   9   3
ATOM      3  O   UNL     1      -2.392   3.833  26.937  0.00  0.00    -0.388 OA
ATOM     23  H   UNL     1      -3.201   4.342  26.762  0.00  0.00    +0.210 HD
ENDBRANCH   9   3
BRANCH   8   5
ATOM      5  N   UNL     1      -3.324   4.501  24.011  0.00  0.00    -0.304 NA
ATOM     22  H   UNL     1      -3.314   5.134  23.211  0.00  0.00    +0.123 HD
BRANCH   5  13
ATOM     13  C   UNL     1      -3.714   3.171  23.560  0.00  0.00    +0.124 C 
BRANCH  13  14
ATOM      1  S   UNL     1      -5.600   3.462  25.582  0.00  0.00    -0.100 S 
ATOM     14  C   UNL     1      -4.653   2.502  24.527  0.00  0.00    +0.004 A 
ATOM     17  C   UNL     1      -4.884   1.156  24.706  0.00  0.00    +0.012 A 
ATOM     20  C   UNL     1      -5.850   0.910  25.724  0.00  0.00    +0.008 A 
ATOM     21  C   UNL     1      -6.321   2.076  26.283  0.00  0.00    +0.045 A 
ENDBRANCH  13  14
ENDBRANCH   5  13
ENDBRANCH   8   5
BRANCH  10  12
ATOM     12  C   UNL     1       0.146   1.965  26.293  0.00  0.00    +0.140 C 
BRANCH  12   6
ATOM      4  O   UNL     1      -0.259   0.137  24.097  0.00  0.00    -0.253 OA
ATOM      6  N   UNL     1      -0.881   0.970  26.175  0.00  0.00    -0.297 N 
ATOM      7  N   UNL     1      -2.087  -0.749  25.217  0.00  0.00    -0.297 N 
ATOM     15  C   UNL     1      -1.008   0.119  25.072  0.00  0.00    +0.300 C 
ATOM     24  H   UNL     1      -1.559   0.889  26.926  0.00  0.00    +0.150 HD
ATOM     25  H   UNL     1      -2.602  -0.738  26.093  0.00  0.00    +0.150 HD
BRANCH   7  16
ATOM     16  C   UNL     1      -2.440  -1.731  24.220  0.00  0.00    +0.068 C 
ATOM     18  C   UNL     1      -3.885  -2.179  24.404  0.00  0.00    +0.027 C 
ATOM     19  C   UNL     1      -1.484  -2.917  24.274  0.00  0.00    +0.027 C 
ENDBRANCH   7  16
ENDBRANCH  12   6
ENDBRANCH  10  12
TORSDOF 7
ENDMDL
MODEL 9
REMARK VINA RESULT:      -3.2      1.518      4.610
REMARK  Name = 75536741
REMARK  9 active torsions:
REMARK  status: ('A' for Active; 'I' for Inactive)
REMARK    1  A    between atoms: O_3  and  C_9
REMARK    2  A    between atoms: N_5  and  C_8
REMARK    3  A    between atoms: N_5  and  C_13
REMARK    4  A    between atoms: N_6  and  C_12
REMARK    5  A    between atoms: N_7  and  C_16
REMARK    6  A    between atoms: C_10  and  C_12
REMARK    7  A    between atoms: C_13  and  C_14
REMARK    8  A    between atoms: C_16  and  C_18
REMARK    9  A    between atoms: C_16  and  C_19
REMARK                            x       y       z     vdW  Elec       q    Type
REMARK                         _______ _______ _______ _____ _____    ______ ____
ROOT
ATOM      2  O   UNL     1      -0.919  -0.512  26.162  0.00  0.00    -0.371 OA
ATOM      8  C   UNL     1      -2.770  -1.769  25.365  0.00  0.00    +0.111 C 
ATOM      9  C   UNL     1      -1.806  -1.528  24.219  0.00  0.00    +0.164 C 
ATOM     10  C   UNL     1      -0.521  -1.220  24.976  0.00  0.00    +0.165 C 
ATOM     11  C   UNL     1      -2.331  -0.704  26.356  0.00  0.00    +0.181 C 
ENDROOT
BRANCH   9   3
ATOM      3  O   UNL     1      -1.664  -2.656  23.377  0.00  0.00    -0.388 OA
ATOM     23  H   UNL     1      -1.280  -3.380  23.900  0.00  0.00    +0.210 HD
ENDBRANCH   9   3
BRANCH   8   5
ATOM      5  N   UNL     1      -4.168  -1.648  24.986  0.00  0.00    -0.304 NA
ATOM     22  H   UNL     1      -4.721  -1.447  25.821  0.00  0.00    +0.123 HD
BRANCH   5  13
ATOM     13  C   UNL     1      -4.361  -0.573  24.020  0.00  0.00    +0.124 C 
BRANCH  13  14
ATOM      1  S   UNL     1      -4.433   2.206  24.013  0.00  0.00    -0.100 S 
ATOM     14  C   UNL     1      -4.864   0.686  24.672  0.00  0.00    +0.004 A 
ATOM     17  C   UNL     1      -5.667   0.813  25.784  0.00  0.00    +0.012 A 
ATOM     20  C   UNL     1      -5.930   2.178  26.100  0.00  0.00    +0.008 A 
ATOM     21  C   UNL     1      -5.320   3.041  25.218  0.00  0.00    +0.045 A 
ENDBRANCH  13  14
ENDBRANCH   5  13
ENDBRANCH   8   5
BRANCH  10  12
ATOM     12  C   UNL     1       0.459  -0.377  24.178  0.00  0.00    +0.140 C 
BRANCH  12   6
ATOM      4  O   UNL     1      -1.558   1.615  23.638  0.00  0.00    -0.253 OA
ATOM      6  N   UNL     1       0.452   0.988  24.620  0.00  0.00    -0.297 N 
ATOM      7  N   UNL     1      -0.324   3.148  24.867  0.00  0.00    -0.297 N 
ATOM     15  C   UNL     1      -0.568   1.893  24.312  0.00  0.00    +0.300 C 
ATOM     24  H   UNL     1       1.237   1.317  25.173  0.00  0.00    +0.150 HD
ATOM     25  H   UNL     1       0.484   3.259  25.472  0.00  0.00    +0.150 HD
BRANCH   7  16
ATOM     16  C   UNL     1      -1.223   4.265  24.700  0.00  0.00    +0.068 C 
ATOM     18  C   UNL     1      -0.437   5.562  24.565  0.00  0.00    +0.027 C 
ATOM     19  C   UNL     1      -2.209   4.336  25.860  0.00  0.00    +0.027 C 
ENDBRANCH   7  16
ENDBRANCH  12   6
ENDBRANCH  10  12
TORSDOF 7
ENDMDL
MODEL 10
REMARK VINA RESULT:      -2.4      2.667      4.858
REMARK  Name = 75536741
REMARK  9 active torsions:
REMARK  status: ('A' for Active; 'I' for Inactive)
REMARK    1  A    between atoms: O_3  and  C_9
REMARK    2  A    between atoms: N_5  and  C_8
REMARK    3  A    between atoms: N_5  and  C_13
REMARK    4  A    between atoms: N_6  and  C_12
REMARK    5  A    between atoms: N_7  and  C_16
REMARK    6  A    between atoms: C_10  and  C_12
REMARK    7  A    between atoms: C_13  and  C_14
REMARK    8  A    between atoms: C_16  and  C_18
REMARK    9  A    between atoms: C_16  and  C_19
REMARK                            x       y       z     vdW  Elec       q    Type
REMARK                         _______ _______ _______ _____ _____    ______ ____
ROOT
ATOM      2  O   UNL     1      -0.173  -0.185  25.025  0.00  0.00    -0.371 OA
ATOM      8  C   UNL     1      -2.492  -0.613  24.736  0.00  0.00    +0.111 C 
ATOM      9  C   UNL     1      -2.101   0.584  23.890  0.00  0.00    +0.164 C 
ATOM     10  C   UNL     1      -0.596   0.381  23.773  0.00  0.00    +0.165 C 
ATOM     11  C   UNL     1      -1.333  -0.679  25.717  0.00  0.00    +0.181 C 
ENDROOT
BRANCH   9   3
ATOM      3  O   UNL     1      -2.731   0.587  22.623  0.00  0.00    -0.388 OA
ATOM     23  H   UNL     1      -2.863  -0.335  22.346  0.00  0.00    +0.210 HD
ENDBRANCH   9   3
BRANCH   8   5
ATOM      5  N   UNL     1      -3.781  -0.468  25.391  0.00  0.00    -0.304 NA
ATOM     22  H   UNL     1      -3.662   0.094  26.235  0.00  0.00    +0.123 HD
BRANCH   5  13
ATOM     13  C   UNL     1      -4.745   0.188  24.516  0.00  0.00    +0.124 C 
BRANCH  13  14
ATOM      1  S   UNL     1      -4.159   2.900  24.343  0.00  0.00    -0.100 S 
ATOM     14  C   UNL     1      -5.058   1.587  24.974  0.00  0.00    +0.004 A 
ATOM     17  C   UNL     1      -6.015   2.001  25.874  0.00  0.00    +0.012 A 
ATOM     20  C   UNL     1      -6.007   3.415  26.050  0.00  0.00    +0.008 A 
ATOM     21  C   UNL     1      -5.047   4.028  25.277  0.00  0.00    +0.045 A 
ENDBRANCH  13  14
ENDBRANCH   5  13
ENDBRANCH   8   5
BRANCH  10  12
ATOM     12  C   UNL     1       0.165   1.669  23.509  0.00  0.00    +0.140 C 
BRANCH  12   6
ATOM      4  O   UNL     1       2.066  -0.124  22.287  0.00  0.00    -0.253 OA
ATOM      6  N   UNL     1       1.555   1.531  23.836  0.00  0.00    -0.297 N 
ATOM      7  N   UNL     1       3.706   0.704  23.704  0.00  0.00    -0.297 N 
ATOM     15  C   UNL     1       2.412   0.633  23.192  0.00  0.00    +0.300 C 
ATOM     24  H   UNL     1       1.932   2.105  24.583  0.00  0.00    +0.150 HD
ATOM     25  H   UNL     1       3.911   1.414  24.400  0.00  0.00    +0.150 HD
BRANCH   7  16
ATOM     16  C   UNL     1       4.787  -0.118  23.215  0.00  0.00    +0.068 C 
ATOM     18  C   UNL     1       4.655  -1.539  23.749  0.00  0.00    +0.027 C 
ATOM     19  C   UNL     1       6.133   0.489  23.590  0.00  0.00    +0.027 C 
ENDBRANCH   7  16
ENDBRANCH  12   6
ENDBRANCH  10  12
TORSDOF 7
ENDMDL
