MODEL 1
REMARK VINA RESULT:       2.4      0.000      0.000
REMARK  Name = 56773973
REMARK  6 active torsions:
REMARK  status: ('A' for Active; 'I' for Inactive)
REMARK    1  A    between atoms: O_2  and  C_31
REMARK    2  A    between atoms: N_4  and  C_13
REMARK    3  A    between atoms: C_9  and  C_14
REMARK    4  A    between atoms: C_13  and  C_19
REMARK    5  A    between atoms: C_21  and  C_22
REMARK    6  A    between atoms: C_29  and  C_31
REMARK                            x       y       z     vdW  Elec       q    Type
REMARK                         _______ _______ _______ _____ _____    ______ ____
ROOT
ATOM      4  N   UNL     1      -4.050   3.288  25.603  0.00  0.00    -0.287 NA
ATOM      9  C   UNL     1      -2.960   3.821  24.762  0.00  0.00    +0.146 C 
ATOM     10  C   UNL     1      -2.579   5.160  25.419  0.00  0.00    +0.030 C 
ATOM     11  C   UNL     1      -3.546   5.322  26.583  0.00  0.00    +0.017 C 
ATOM     12  C   UNL     1      -4.720   4.445  26.195  0.00  0.00    +0.085 C 
ENDROOT
BRANCH   9  14
ATOM      1  O   UNL     1      -1.242   2.443  25.823  0.00  0.00    -0.336 OA
ATOM      6  N   UNL     1      -1.208   2.384  23.584  0.00  0.00    -0.190 NA
ATOM      7  N   UNL     1      -0.190   1.588  25.472  0.00  0.00    -0.056 NA
ATOM     14  C   UNL     1      -1.787   2.868  24.653  0.00  0.00    +0.245 A 
ATOM     21  C   UNL     1      -0.234   1.604  24.136  0.00  0.00    +0.202 A 
BRANCH  21  22
ATOM      5  N   UNL     1       4.214   0.071  23.143  0.00  0.00    -0.315 N 
ATOM      8  N   UNL     1       2.456  -0.620  21.746  0.00  0.00    -0.240 NA
ATOM     15  C   UNL     1       6.207   0.221  24.381  0.00  0.00    +0.020 C 
ATOM     16  C   UNL     1       6.549  -0.123  22.942  0.00  0.00    +0.020 C 
ATOM     17  C   UNL     1       4.793   0.788  24.277  0.00  0.00    +0.106 C 
ATOM     18  C   UNL     1       5.229  -0.662  22.392  0.00  0.00    +0.106 C 
ATOM     20  C   UNL     1       2.873   0.084  22.823  0.00  0.00    +0.122 A 
ATOM     22  C   UNL     1       0.678   0.851  23.324  0.00  0.00    +0.027 A 
ATOM     25  C   UNL     1       2.034   0.828  23.636  0.00  0.00    +0.055 A 
ATOM     26  C   UNL     1       0.211   0.140  22.225  0.00  0.00    +0.031 A 
ATOM     30  C   UNL     1       1.132  -0.573  21.474  0.00  0.00    +0.113 A 
ENDBRANCH  21  22
ENDBRANCH   9  14
BRANCH   4  13
ATOM     13  C   UNL     1      -4.976   2.434  24.869  0.00  0.00    +0.120 C 
BRANCH  13  19
ATOM     19  C   UNL     1      -4.446   1.033  24.717  0.00  0.00    -0.033 A 
ATOM     23  C   UNL     1      -4.302   0.216  25.838  0.00  0.00    +0.006 A 
ATOM     24  C   UNL     1      -4.097   0.551  23.454  0.00  0.00    +0.006 A 
ATOM     27  C   UNL     1      -3.810  -1.081  25.698  0.00  0.00    +0.015 A 
ATOM     28  C   UNL     1      -3.607  -0.746  23.314  0.00  0.00    +0.015 A 
ATOM     29  C   UNL     1      -3.463  -1.563  24.436  0.00  0.00    +0.059 A 
BRANCH  29  31
ATOM      3  O   UNL     1      -3.640  -3.941  24.242  0.00  0.00    -0.245 OA
ATOM     31  C   UNL     1      -2.952  -2.917  24.289  0.00  0.00    +0.337 C 
BRANCH  31   2
ATOM      2  O   UNL     1      -1.594  -2.954  24.205  0.00  0.00    -0.477 OA
ATOM     32  H   UNL     1      -1.283  -2.894  23.277  0.00  0.00    +0.295 HD
ENDBRANCH  31   2
ENDBRANCH  29  31
ENDBRANCH  13  19
ENDBRANCH   4  13
TORSDOF 6
ENDMDL
MODEL 2
REMARK VINA RESULT:       4.7      2.082      7.653
REMARK  Name = 56773973
REMARK  6 active torsions:
REMARK  status: ('A' for Active; 'I' for Inactive)
REMARK    1  A    between atoms: O_2  and  C_31
REMARK    2  A    between atoms: N_4  and  C_13
REMARK    3  A    between atoms: C_9  and  C_14
REMARK    4  A    between atoms: C_13  and  C_19
REMARK    5  A    between atoms: C_21  and  C_22
REMARK    6  A    between atoms: C_29  and  C_31
REMARK                            x       y       z     vdW  Elec       q    Type
REMARK                         _______ _______ _______ _____ _____    ______ ____
ROOT
ATOM      4  N   UNL     1       2.915   0.888  23.569  0.00  0.00    -0.287 NA
ATOM      9  C   UNL     1       2.434  -0.390  23.008  0.00  0.00    +0.146 C 
ATOM     10  C   UNL     1       3.601  -1.372  23.218  0.00  0.00    +0.030 C 
ATOM     11  C   UNL     1       4.712  -0.543  23.845  0.00  0.00    +0.017 C 
ATOM     12  C   UNL     1       4.372   0.876  23.436  0.00  0.00    +0.085 C 
ENDROOT
BRANCH   9  14
ATOM      1  O   UNL     1       1.276  -1.736  24.688  0.00  0.00    -0.336 OA
ATOM      6  N   UNL     1      -0.089  -0.555  23.362  0.00  0.00    -0.190 NA
ATOM      7  N   UNL     1      -0.027  -2.026  25.113  0.00  0.00    -0.056 NA
ATOM     14  C   UNL     1       1.149  -0.864  23.654  0.00  0.00    +0.245 A 
ATOM     21  C   UNL     1      -0.775  -1.292  24.283  0.00  0.00    +0.202 A 
BRANCH  21  22
ATOM      5  N   UNL     1      -4.911   1.071  24.932  0.00  0.00    -0.315 N 
ATOM      8  N   UNL     1      -5.000  -1.232  24.475  0.00  0.00    -0.240 NA
ATOM     15  C   UNL     1      -5.360   3.373  25.099  0.00  0.00    +0.020 C 
ATOM     16  C   UNL     1      -6.560   2.601  25.618  0.00  0.00    +0.020 C 
ATOM     17  C   UNL     1      -4.233   2.345  25.159  0.00  0.00    +0.106 C 
ATOM     18  C   UNL     1      -6.363   1.210  25.019  0.00  0.00    +0.106 C 
ATOM     20  C   UNL     1      -4.261  -0.115  24.667  0.00  0.00    +0.122 A 
ATOM     22  C   UNL     1      -2.208  -1.272  24.349  0.00  0.00    +0.027 A 
ATOM     25  C   UNL     1      -2.877  -0.082  24.615  0.00  0.00    +0.055 A 
ATOM     26  C   UNL     1      -2.932  -2.441  24.146  0.00  0.00    +0.031 A 
ATOM     30  C   UNL     1      -4.314  -2.368  24.219  0.00  0.00    +0.113 A 
ENDBRANCH  21  22
ENDBRANCH   9  14
BRANCH   4  13
ATOM     13  C   UNL     1       2.316   2.055  22.933  0.00  0.00    +0.120 C 
BRANCH  13  19
ATOM     19  C   UNL     1       1.186   2.621  23.752  0.00  0.00    -0.033 A 
ATOM     23  C   UNL     1       0.509   3.759  23.314  0.00  0.00    +0.006 A 
ATOM     24  C   UNL     1       0.817   2.009  24.950  0.00  0.00    +0.006 A 
ATOM     27  C   UNL     1      -0.537   4.284  24.073  0.00  0.00    +0.015 A 
ATOM     28  C   UNL     1      -0.229   2.533  25.709  0.00  0.00    +0.015 A 
ATOM     29  C   UNL     1      -0.906   3.671  25.270  0.00  0.00    +0.059 A 
BRANCH  29  31
ATOM      3  O   UNL     1      -2.505   3.679  27.050  0.00  0.00    -0.245 OA
ATOM     31  C   UNL     1      -1.998   4.218  26.061  0.00  0.00    +0.337 C 
BRANCH  31   2
ATOM      2  O   UNL     1      -2.426   5.422  25.594  0.00  0.00    -0.477 OA
ATOM     32  H   UNL     1      -1.820   6.150  25.848  0.00  0.00    +0.295 HD
ENDBRANCH  31   2
ENDBRANCH  29  31
ENDBRANCH  13  19
ENDBRANCH   4  13
TORSDOF 6
ENDMDL
MODEL 3
REMARK VINA RESULT:       5.5      1.896      4.324
REMARK  Name = 56773973
REMARK  6 active torsions:
REMARK  status: ('A' for Active; 'I' for Inactive)
REMARK    1  A    between atoms: O_2  and  C_31
REMARK    2  A    between atoms: N_4  and  C_13
REMARK    3  A    between atoms: C_9  and  C_14
REMARK    4  A    between atoms: C_13  and  C_19
REMARK    5  A    between atoms: C_21  and  C_22
REMARK    6  A    between atoms: C_29  and  C_31
REMARK                            x       y       z     vdW  Elec       q    Type
REMARK                         _______ _______ _______ _____ _____    ______ ____
ROOT
ATOM      4  N   UNL     1      -4.303  -0.948  24.156  0.00  0.00    -0.287 NA
ATOM      9  C   UNL     1      -3.253  -1.477  25.048  0.00  0.00    +0.146 C 
ATOM     10  C   UNL     1      -3.317  -3.005  24.863  0.00  0.00    +0.030 C 
ATOM     11  C   UNL     1      -4.471  -3.241  23.899  0.00  0.00    +0.017 C 
ATOM     12  C   UNL     1      -5.320  -1.994  24.047  0.00  0.00    +0.085 C 
ENDROOT
BRANCH   9  14
ATOM      1  O   UNL     1      -1.355  -0.065  25.663  0.00  0.00    -0.336 OA
ATOM      6  N   UNL     1      -1.118  -1.111  23.696  0.00  0.00    -0.190 NA
ATOM      7  N   UNL     1      -0.107   0.326  25.163  0.00  0.00    -0.056 NA
ATOM     14  C   UNL     1      -1.883  -0.909  24.739  0.00  0.00    +0.245 A 
ATOM     21  C   UNL     1      -0.039  -0.333  24.001  0.00  0.00    +0.202 A 
BRANCH  21  22
ATOM      5  N   UNL     1       4.714  -0.227  23.281  0.00  0.00    -0.315 N 
ATOM      8  N   UNL     1       3.297  -0.052  21.415  0.00  0.00    -0.240 NA
ATOM     15  C   UNL     1       6.503  -0.667  24.741  0.00  0.00    +0.020 C 
ATOM     16  C   UNL     1       7.034   0.070  23.524  0.00  0.00    +0.020 C 
ATOM     17  C   UNL     1       5.007  -0.366  24.705  0.00  0.00    +0.106 C 
ATOM     18  C   UNL     1       5.935  -0.142  22.484  0.00  0.00    +0.106 C 
ATOM     20  C   UNL     1       3.441  -0.184  22.753  0.00  0.00    +0.122 A 
ATOM     22  C   UNL     1       1.092  -0.236  23.124  0.00  0.00    +0.027 A 
ATOM     25  C   UNL     1       2.383  -0.280  23.642  0.00  0.00    +0.055 A 
ATOM     26  C   UNL     1       0.903  -0.101  21.753  0.00  0.00    +0.031 A 
ATOM     30  C   UNL     1       2.028  -0.014  20.949  0.00  0.00    +0.113 A 
ENDBRANCH  21  22
ENDBRANCH   9  14
BRANCH   4  13
ATOM     13  C   UNL     1      -4.864   0.316  24.618  0.00  0.00    +0.120 C 
BRANCH  13  19
ATOM     19  C   UNL     1      -3.848   1.427  24.582  0.00  0.00    -0.033 A 
ATOM     23  C   UNL     1      -3.643   2.221  25.709  0.00  0.00    +0.006 A 
ATOM     24  C   UNL     1      -3.113   1.663  23.420  0.00  0.00    +0.006 A 
ATOM     27  C   UNL     1      -2.702   3.251  25.676  0.00  0.00    +0.015 A 
ATOM     28  C   UNL     1      -2.173   2.691  23.386  0.00  0.00    +0.015 A 
ATOM     29  C   UNL     1      -1.967   3.486  24.514  0.00  0.00    +0.059 A 
BRANCH  29  31
ATOM      3  O   UNL     1      -1.138   5.685  24.962  0.00  0.00    -0.245 OA
ATOM     31  C   UNL     1      -0.985   4.559  24.479  0.00  0.00    +0.337 C 
BRANCH  31   2
ATOM      2  O   UNL     1       0.160   4.195  23.840  0.00  0.00    -0.477 OA
ATOM     32  H   UNL     1       0.773   4.952  23.729  0.00  0.00    +0.295 HD
ENDBRANCH  31   2
ENDBRANCH  29  31
ENDBRANCH  13  19
ENDBRANCH   4  13
TORSDOF 6
ENDMDL
