MODEL 1
REMARK VINA RESULT:      -4.3      0.000      0.000
REMARK  Name = 40780450
REMARK  7 active torsions:
REMARK  status: ('A' for Active; 'I' for Inactive)
REMARK    1  A    between atoms: N_3  and  C_9
REMARK    2  A    between atoms: N_4  and  C_17
REMARK    3  A    between atoms: N_6  and  C_24
REMARK    4  A    between atoms: C_7  and  C_10
REMARK    5  A    between atoms: C_13  and  C_15
REMARK    6  A    between atoms: C_14  and  C_16
REMARK    7  A    between atoms: C_23  and  C_25
REMARK                            x       y       z     vdW  Elec       q    Type
REMARK                         _______ _______ _______ _____ _____    ______ ____
ROOT
ATOM      7  C   UNL     1      16.167  -8.489  28.686  0.00  0.00    +0.047 C 
ATOM      8  C   UNL     1      16.269 -10.028  28.795  0.00  0.00    +0.039 C 
ATOM      9  C   UNL     1      16.626 -10.327  30.254  0.00  0.00    +0.098 C 
ATOM     11  C   UNL     1      17.083  -8.071  29.810  0.00  0.00    -0.021 C 
ATOM     12  C   UNL     1      17.315  -9.071  30.667  0.00  0.00    -0.009 C 
ENDROOT
BRANCH   7  10
ATOM      4  N   UNL     1      16.835  -6.517  25.663  0.00  0.00    -0.236 N 
ATOM      5  N   UNL     1      17.045  -7.729  25.120  0.00  0.00    -0.171 NA
ATOM     10  C   UNL     1      16.483  -7.886  27.329  0.00  0.00    +0.003 A 
ATOM     13  C   UNL     1      16.495  -6.557  26.984  0.00  0.00    +0.046 A 
ATOM     14  C   UNL     1      16.828  -8.561  26.144  0.00  0.00    +0.064 A 
ATOM     15  C   UNL     1      16.219  -5.347  27.787  0.00  0.00    +0.066 C 
ATOM     16  C   UNL     1      16.967 -10.013  25.936  0.00  0.00    +0.068 C 
BRANCH   4  17
ATOM      1 CL   UNL     1      16.759  -1.421  25.402  0.00  0.00    -0.083 Cl
ATOM     17  C   UNL     1      16.972  -5.373  24.877  0.00  0.00    +0.067 A 
ATOM     19  C   UNL     1      16.817  -4.110  25.448  0.00  0.00    +0.048 A 
ATOM     20  C   UNL     1      17.265  -5.494  23.518  0.00  0.00    +0.028 A 
ATOM     21  C   UNL     1      16.955  -2.967  24.661  0.00  0.00    +0.046 A 
ATOM     22  C   UNL     1      17.403  -4.350  22.731  0.00  0.00    +0.007 A 
ATOM     23  C   UNL     1      17.248  -3.087  23.302  0.00  0.00    -0.032 A 
ATOM     25  C   UNL     1      17.405  -1.887  22.425  0.00  0.00    +0.045 C 
ENDBRANCH   4  17
ENDBRANCH   7  10
BRANCH   9   3
ATOM      2  O   UNL     1      14.065  -9.081  29.955  0.00  0.00    -0.252 OA
ATOM      3  N   UNL     1      15.468 -10.536  31.079  0.00  0.00    -0.293 N 
ATOM      6  N   UNL     1      13.304 -10.285  31.821  0.00  0.00    -0.269 N 
ATOM     18  C   UNL     1      14.244  -9.885  30.867  0.00  0.00    +0.304 C 
ATOM     31  H   UNL     1      15.515 -11.219  31.829  0.00  0.00    +0.151 HD
ATOM     32  H   UNL     1      13.616 -10.961  32.513  0.00  0.00    +0.156 HD
BRANCH   6  24
ATOM     24  C   UNL     1      11.962  -9.860  31.948  0.00  0.00    +0.035 A 
ATOM     26  C   UNL     1      10.922 -10.771  31.762  0.00  0.00    +0.023 A 
ATOM     27  C   UNL     1      11.676  -8.531  32.262  0.00  0.00    +0.023 A 
ATOM     28  C   UNL     1       9.597 -10.353  31.887  0.00  0.00    +0.002 A 
ATOM     29  C   UNL     1      10.351  -8.113  32.387  0.00  0.00    +0.002 A 
ATOM     30  C   UNL     1       9.311  -9.025  32.199  0.00  0.00    +0.000 A 
ENDBRANCH   6  24
ENDBRANCH   9   3
TORSDOF 4
ENDMDL
