MODEL 1
REMARK VINA RESULT:      -6.4      0.000      0.000
REMARK  Name = 75536543
REMARK  8 active torsions:
REMARK  status: ('A' for Active; 'I' for Inactive)
REMARK    1  A    between atoms: O_2  and  C_11
REMARK    2  A    between atoms: O_4  and  C_18
REMARK    3  A    between atoms: N_5  and  C_13
REMARK    4  A    between atoms: N_6  and  C_12
REMARK    5  A    between atoms: N_6  and  C_16
REMARK    6  A    between atoms: C_7  and  C_15
REMARK    7  A    between atoms: C_10  and  C_13
REMARK    8  A    between atoms: C_16  and  C_17
REMARK                            x       y       z     vdW  Elec       q    Type
REMARK                         _______ _______ _______ _____ _____    ______ ____
ROOT
ATOM      1  O   UNL     1       0.343   2.436  23.479  0.00  0.00    -0.371 OA
ATOM     10  C   UNL     1       0.316   1.444  24.520  0.00  0.00    +0.165 C 
ATOM     11  C   UNL     1      -0.741   1.905  25.514  0.00  0.00    +0.164 C 
ATOM     12  C   UNL     1      -0.571   3.411  25.443  0.00  0.00    +0.111 C 
ATOM     14  C   UNL     1      -0.325   3.617  23.957  0.00  0.00    +0.181 C 
ENDROOT
BRANCH  11   2
ATOM      2  O   UNL     1      -0.505   1.390  26.810  0.00  0.00    -0.388 OA
ATOM     25  H   UNL     1      -0.698   0.436  26.800  0.00  0.00    +0.210 HD
ENDBRANCH  11   2
BRANCH  12   6
ATOM      6  N   UNL     1      -1.722   4.152  25.935  0.00  0.00    -0.305 NA
ATOM     24  H   UNL     1      -1.413   5.065  26.267  0.00  0.00    +0.123 HD
BRANCH   6  16
ATOM     16  C   UNL     1      -2.712   4.342  24.883  0.00  0.00    +0.120 C 
BRANCH  16  17
ATOM     17  C   UNL     1      -3.869   3.388  25.022  0.00  0.00    +0.008 A 
ATOM     18  C   UNL     1      -3.998   2.294  24.165  0.00  0.00    +0.121 A 
ATOM     19  C   UNL     1      -4.818   3.607  26.020  0.00  0.00    +0.008 A 
ATOM     20  C   UNL     1      -5.076   1.420  24.308  0.00  0.00    +0.046 A 
ATOM     21  C   UNL     1      -5.895   2.732  26.163  0.00  0.00    +0.001 A 
ATOM     22  C   UNL     1      -6.024   1.639  25.307  0.00  0.00    +0.004 A 
BRANCH  18   4
ATOM      4  O   UNL     1      -3.081   2.065  23.185  0.00  0.00    -0.506 OA
ATOM     26  H   UNL     1      -3.250   1.193  22.788  0.00  0.00    +0.292 HD
ENDBRANCH  18   4
ENDBRANCH  16  17
ENDBRANCH   6  16
ENDBRANCH  12   6
BRANCH  10  13
ATOM     13  C   UNL     1       0.022   0.080  23.920  0.00  0.00    +0.138 C 
BRANCH  13   5
ATOM      3  O   UNL     1      -0.859  -2.360  25.235  0.00  0.00    -0.276 OA
ATOM      5  N   UNL     1      -1.326  -0.330  24.191  0.00  0.00    -0.313 N 
ATOM     15  C   UNL     1      -1.652  -1.519  24.827  0.00  0.00    +0.216 C 
ATOM     23  H   UNL     1      -2.074   0.297  23.910  0.00  0.00    +0.149 HD
BRANCH  15   7
ATOM      7  C   UNL     1      -3.117  -1.740  25.007  0.00  0.00    +0.075 C 
ATOM      8  C   UNL     1      -3.719  -2.994  24.465  0.00  0.00    +0.013 C 
ATOM      9  C   UNL     1      -3.999  -1.677  23.804  0.00  0.00    +0.013 C 
ENDBRANCH  15   7
ENDBRANCH  13   5
ENDBRANCH  10  13
TORSDOF 8
ENDMDL
MODEL 2
REMARK VINA RESULT:      -6.4      1.661      4.197
REMARK  Name = 75536543
REMARK  8 active torsions:
REMARK  status: ('A' for Active; 'I' for Inactive)
REMARK    1  A    between atoms: O_2  and  C_11
REMARK    2  A    between atoms: O_4  and  C_18
REMARK    3  A    between atoms: N_5  and  C_13
REMARK    4  A    between atoms: N_6  and  C_12
REMARK    5  A    between atoms: N_6  and  C_16
REMARK    6  A    between atoms: C_7  and  C_15
REMARK    7  A    between atoms: C_10  and  C_13
REMARK    8  A    between atoms: C_16  and  C_17
REMARK                            x       y       z     vdW  Elec       q    Type
REMARK                         _______ _______ _______ _____ _____    ______ ____
ROOT
ATOM      1  O   UNL     1      -4.369   3.692  26.175  0.00  0.00    -0.371 OA
ATOM     10  C   UNL     1      -4.545   3.034  24.909  0.00  0.00    +0.165 C 
ATOM     11  C   UNL     1      -3.145   2.761  24.378  0.00  0.00    +0.164 C 
ATOM     12  C   UNL     1      -2.398   3.982  24.880  0.00  0.00    +0.111 C 
ATOM     14  C   UNL     1      -3.012   4.164  26.259  0.00  0.00    +0.181 C 
ENDROOT
BRANCH  11   2
ATOM      2  O   UNL     1      -3.128   2.654  22.968  0.00  0.00    -0.388 OA
ATOM     25  H   UNL     1      -3.985   2.297  22.678  0.00  0.00    +0.210 HD
ENDBRANCH  11   2
BRANCH  12   6
ATOM      6  N   UNL     1      -0.955   3.808  24.921  0.00  0.00    -0.305 NA
ATOM     24  H   UNL     1      -0.520   4.696  25.169  0.00  0.00    +0.123 HD
BRANCH   6  16
ATOM     16  C   UNL     1      -0.576   2.804  25.908  0.00  0.00    +0.120 C 
BRANCH  16  17
ATOM     17  C   UNL     1      -0.363   1.452  25.279  0.00  0.00    +0.008 A 
ATOM     18  C   UNL     1       0.350   1.325  24.086  0.00  0.00    +0.121 A 
ATOM     19  C   UNL     1      -0.887   0.320  25.902  0.00  0.00    +0.008 A 
ATOM     20  C   UNL     1       0.539   0.065  23.518  0.00  0.00    +0.046 A 
ATOM     21  C   UNL     1      -0.698  -0.940  25.333  0.00  0.00    +0.001 A 
ATOM     22  C   UNL     1       0.014  -1.067  24.141  0.00  0.00    +0.004 A 
BRANCH  18   4
ATOM      4  O   UNL     1       0.869   2.420  23.465  0.00  0.00    -0.506 OA
ATOM     26  H   UNL     1       0.870   2.269  22.503  0.00  0.00    +0.292 HD
ENDBRANCH  18   4
ENDBRANCH  16  17
ENDBRANCH   6  16
ENDBRANCH  12   6
BRANCH  10  13
ATOM     13  C   UNL     1      -5.372   1.774  25.097  0.00  0.00    +0.138 C 
BRANCH  13   5
ATOM      3  O   UNL     1      -4.098  -0.632  26.118  0.00  0.00    -0.276 OA
ATOM      5  N   UNL     1      -4.836   0.680  24.340  0.00  0.00    -0.313 N 
ATOM     15  C   UNL     1      -4.243  -0.433  24.917  0.00  0.00    +0.216 C 
ATOM     23  H   UNL     1      -4.913   0.725  23.328  0.00  0.00    +0.149 HD
BRANCH  15   7
ATOM      7  C   UNL     1      -3.758  -1.450  23.939  0.00  0.00    +0.075 C 
ATOM      8  C   UNL     1      -4.641  -2.611  23.621  0.00  0.00    +0.013 C 
ATOM      9  C   UNL     1      -3.401  -2.809  24.441  0.00  0.00    +0.013 C 
ENDBRANCH  15   7
ENDBRANCH  13   5
ENDBRANCH  10  13
TORSDOF 8
ENDMDL
MODEL 3
REMARK VINA RESULT:      -5.7      1.170      1.590
REMARK  Name = 75536543
REMARK  8 active torsions:
REMARK  status: ('A' for Active; 'I' for Inactive)
REMARK    1  A    between atoms: O_2  and  C_11
REMARK    2  A    between atoms: O_4  and  C_18
REMARK    3  A    between atoms: N_5  and  C_13
REMARK    4  A    between atoms: N_6  and  C_12
REMARK    5  A    between atoms: N_6  and  C_16
REMARK    6  A    between atoms: C_7  and  C_15
REMARK    7  A    between atoms: C_10  and  C_13
REMARK    8  A    between atoms: C_16  and  C_17
REMARK                            x       y       z     vdW  Elec       q    Type
REMARK                         _______ _______ _______ _____ _____    ______ ____
ROOT
ATOM      1  O   UNL     1       0.179   2.966  23.538  0.00  0.00    -0.371 OA
ATOM     10  C   UNL     1       0.430   1.968  24.541  0.00  0.00    +0.165 C 
ATOM     11  C   UNL     1      -0.683   2.115  25.570  0.00  0.00    +0.164 C 
ATOM     12  C   UNL     1      -0.901   3.616  25.551  0.00  0.00    +0.111 C 
ATOM     14  C   UNL     1      -0.754   3.924  24.070  0.00  0.00    +0.181 C 
ENDROOT
BRANCH  11   2
ATOM      2  O   UNL     1      -0.291   1.637  26.842  0.00  0.00    -0.388 OA
ATOM     25  H   UNL     1      -0.987   1.865  27.482  0.00  0.00    +0.210 HD
ENDBRANCH  11   2
BRANCH  12   6
ATOM      6  N   UNL     1      -2.189   4.025  26.089  0.00  0.00    -0.305 NA
ATOM     24  H   UNL     1      -2.079   4.914  26.576  0.00  0.00    +0.123 HD
BRANCH   6  16
ATOM     16  C   UNL     1      -3.174   4.187  25.027  0.00  0.00    +0.120 C 
BRANCH  16  17
ATOM     17  C   UNL     1      -4.182   3.068  25.021  0.00  0.00    +0.008 A 
ATOM     18  C   UNL     1      -5.482   3.277  25.485  0.00  0.00    +0.121 A 
ATOM     19  C   UNL     1      -3.805   1.812  24.546  0.00  0.00    +0.008 A 
ATOM     20  C   UNL     1      -6.403   2.230  25.471  0.00  0.00    +0.046 A 
ATOM     21  C   UNL     1      -4.728   0.765  24.534  0.00  0.00    +0.001 A 
ATOM     22  C   UNL     1      -6.026   0.975  24.996  0.00  0.00    +0.004 A 
BRANCH  18   4
ATOM      4  O   UNL     1      -5.867   4.497  25.952  0.00  0.00    -0.506 OA
ATOM     26  H   UNL     1      -5.371   5.189  25.480  0.00  0.00    +0.292 HD
ENDBRANCH  18   4
ENDBRANCH  16  17
ENDBRANCH   6  16
ENDBRANCH  12   6
BRANCH  10  13
ATOM     13  C   UNL     1       0.476   0.593  23.898  0.00  0.00    +0.138 C 
BRANCH  13   5
ATOM      3  O   UNL     1      -0.403  -1.744  25.388  0.00  0.00    -0.276 OA
ATOM      5  N   UNL     1      -0.822  -0.018  23.880  0.00  0.00    -0.313 N 
ATOM     15  C   UNL     1      -1.152  -1.138  24.629  0.00  0.00    +0.216 C 
ATOM     23  H   UNL     1      -1.536   0.408  23.295  0.00  0.00    +0.149 HD
BRANCH  15   7
ATOM      7  C   UNL     1      -2.559  -1.602  24.457  0.00  0.00    +0.075 C 
ATOM      8  C   UNL     1      -3.294  -2.107  25.655  0.00  0.00    +0.013 C 
ATOM      9  C   UNL     1      -2.850  -3.060  24.586  0.00  0.00    +0.013 C 
ENDBRANCH  15   7
ENDBRANCH  13   5
ENDBRANCH  10  13
TORSDOF 8
ENDMDL
MODEL 4
REMARK VINA RESULT:      -5.4      1.615      2.303
REMARK  Name = 75536543
REMARK  8 active torsions:
REMARK  status: ('A' for Active; 'I' for Inactive)
REMARK    1  A    between atoms: O_2  and  C_11
REMARK    2  A    between atoms: O_4  and  C_18
REMARK    3  A    between atoms: N_5  and  C_13
REMARK    4  A    between atoms: N_6  and  C_12
REMARK    5  A    between atoms: N_6  and  C_16
REMARK    6  A    between atoms: C_7  and  C_15
REMARK    7  A    between atoms: C_10  and  C_13
REMARK    8  A    between atoms: C_16  and  C_17
REMARK                            x       y       z     vdW  Elec       q    Type
REMARK                         _______ _______ _______ _____ _____    ______ ____
ROOT
ATOM      1  O   UNL     1      -0.235   4.190  23.890  0.00  0.00    -0.371 OA
ATOM     10  C   UNL     1       0.152   3.213  24.872  0.00  0.00    +0.165 C 
ATOM     11  C   UNL     1      -1.079   2.971  25.733  0.00  0.00    +0.164 C 
ATOM     12  C   UNL     1      -1.699   4.355  25.754  0.00  0.00    +0.111 C 
ATOM     14  C   UNL     1      -1.455   4.816  24.326  0.00  0.00    +0.181 C 
ENDROOT
BRANCH  11   2
ATOM      2  O   UNL     1      -0.736   2.508  27.025  0.00  0.00    -0.388 OA
ATOM     25  H   UNL     1      -0.429   1.587  26.949  0.00  0.00    +0.210 HD
ENDBRANCH  11   2
BRANCH  12   6
ATOM      6  N   UNL     1      -3.107   4.359  26.118  0.00  0.00    -0.305 NA
ATOM     24  H   UNL     1      -3.345   5.267  26.516  0.00  0.00    +0.123 HD
BRANCH   6  16
ATOM     16  C   UNL     1      -3.950   4.118  24.954  0.00  0.00    +0.120 C 
BRANCH  16  17
ATOM     17  C   UNL     1      -4.221   2.650  24.751  0.00  0.00    +0.008 A 
ATOM     18  C   UNL     1      -5.219   2.003  25.480  0.00  0.00    +0.121 A 
ATOM     19  C   UNL     1      -3.461   1.938  23.824  0.00  0.00    +0.008 A 
ATOM     20  C   UNL     1      -5.457   0.643  25.279  0.00  0.00    +0.046 A 
ATOM     21  C   UNL     1      -3.699   0.578  23.624  0.00  0.00    +0.001 A 
ATOM     22  C   UNL     1      -4.697  -0.069  24.351  0.00  0.00    +0.004 A 
BRANCH  18   4
ATOM      4  O   UNL     1      -5.971   2.683  26.389  0.00  0.00    -0.506 OA
ATOM     26  H   UNL     1      -6.448   3.399  25.935  0.00  0.00    +0.292 HD
ENDBRANCH  18   4
ENDBRANCH  16  17
ENDBRANCH   6  16
ENDBRANCH  12   6
BRANCH  10  13
ATOM     13  C   UNL     1       0.656   1.960  24.178  0.00  0.00    +0.138 C 
BRANCH  13   5
ATOM      3  O   UNL     1       0.384  -0.697  23.027  0.00  0.00    -0.276 OA
ATOM      5  N   UNL     1       0.167   0.775  24.821  0.00  0.00    -0.313 N 
ATOM     15  C   UNL     1       0.073  -0.457  24.188  0.00  0.00    +0.216 C 
ATOM     23  H   UNL     1      -0.109   0.847  25.796  0.00  0.00    +0.149 HD
BRANCH  15   7
ATOM      7  C   UNL     1      -0.461  -1.552  25.049  0.00  0.00    +0.075 C 
ATOM      8  C   UNL     1      -1.747  -2.202  24.658  0.00  0.00    +0.013 C 
ATOM      9  C   UNL     1      -1.694  -1.292  25.849  0.00  0.00    +0.013 C 
ENDBRANCH  15   7
ENDBRANCH  13   5
ENDBRANCH  10  13
TORSDOF 8
ENDMDL
MODEL 5
REMARK VINA RESULT:      -5.3      1.583      2.136
REMARK  Name = 75536543
REMARK  8 active torsions:
REMARK  status: ('A' for Active; 'I' for Inactive)
REMARK    1  A    between atoms: O_2  and  C_11
REMARK    2  A    between atoms: O_4  and  C_18
REMARK    3  A    between atoms: N_5  and  C_13
REMARK    4  A    between atoms: N_6  and  C_12
REMARK    5  A    between atoms: N_6  and  C_16
REMARK    6  A    between atoms: C_7  and  C_15
REMARK    7  A    between atoms: C_10  and  C_13
REMARK    8  A    between atoms: C_16  and  C_17
REMARK                            x       y       z     vdW  Elec       q    Type
REMARK                         _______ _______ _______ _____ _____    ______ ____
ROOT
ATOM      1  O   UNL     1       0.213  -0.579  23.439  0.00  0.00    -0.371 OA
ATOM     10  C   UNL     1       0.163  -0.472  24.872  0.00  0.00    +0.165 C 
ATOM     11  C   UNL     1      -0.581   0.821  25.172  0.00  0.00    +0.164 C 
ATOM     12  C   UNL     1      -0.117   1.699  24.026  0.00  0.00    +0.111 C 
ATOM     14  C   UNL     1      -0.100   0.707  22.874  0.00  0.00    +0.181 C 
ENDROOT
BRANCH  11   2
ATOM      2  O   UNL     1      -0.234   1.348  26.438  0.00  0.00    -0.388 OA
ATOM     25  H   UNL     1       0.675   1.690  26.388  0.00  0.00    +0.210 HD
ENDBRANCH  11   2
BRANCH  12   6
ATOM      6  N   UNL     1      -0.983   2.841  23.776  0.00  0.00    -0.305 NA
ATOM     24  H   UNL     1      -0.514   3.481  23.136  0.00  0.00    +0.123 HD
BRANCH   6  16
ATOM     16  C   UNL     1      -2.247   2.421  23.184  0.00  0.00    +0.120 C 
BRANCH  16  17
ATOM     17  C   UNL     1      -3.395   2.567  24.147  0.00  0.00    +0.008 A 
ATOM     18  C   UNL     1      -3.467   3.662  25.009  0.00  0.00    +0.121 A 
ATOM     19  C   UNL     1      -4.393   1.593  24.172  0.00  0.00    +0.008 A 
ATOM     20  C   UNL     1      -4.538   3.783  25.895  0.00  0.00    +0.046 A 
ATOM     21  C   UNL     1      -5.463   1.715  25.058  0.00  0.00    +0.001 A 
ATOM     22  C   UNL     1      -5.536   2.809  25.920  0.00  0.00    +0.004 A 
BRANCH  18   4
ATOM      4  O   UNL     1      -2.501   4.622  24.998  0.00  0.00    -0.506 OA
ATOM     26  H   UNL     1      -1.690   4.254  24.606  0.00  0.00    +0.292 HD
ENDBRANCH  18   4
ENDBRANCH  16  17
ENDBRANCH   6  16
ENDBRANCH  12   6
BRANCH  10  13
ATOM     13  C   UNL     1      -0.509  -1.702  25.455  0.00  0.00    +0.138 C 
BRANCH  13   5
ATOM      3  O   UNL     1      -3.103  -1.144  26.646  0.00  0.00    -0.276 OA
ATOM      5  N   UNL     1      -1.803  -1.915  24.873  0.00  0.00    -0.313 N 
ATOM     15  C   UNL     1      -2.993  -1.617  25.520  0.00  0.00    +0.216 C 
ATOM     23  H   UNL     1      -1.839  -2.292  23.930  0.00  0.00    +0.149 HD
BRANCH  15   7
ATOM      7  C   UNL     1      -4.219  -1.918  24.725  0.00  0.00    +0.075 C 
ATOM      8  C   UNL     1      -4.181  -3.058  23.762  0.00  0.00    +0.013 C 
ATOM      9  C   UNL     1      -4.201  -1.646  23.258  0.00  0.00    +0.013 C 
ENDBRANCH  15   7
ENDBRANCH  13   5
ENDBRANCH  10  13
TORSDOF 8
ENDMDL
MODEL 6
REMARK VINA RESULT:      -4.8      2.466      4.120
REMARK  Name = 75536543
REMARK  8 active torsions:
REMARK  status: ('A' for Active; 'I' for Inactive)
REMARK    1  A    between atoms: O_2  and  C_11
REMARK    2  A    between atoms: O_4  and  C_18
REMARK    3  A    between atoms: N_5  and  C_13
REMARK    4  A    between atoms: N_6  and  C_12
REMARK    5  A    between atoms: N_6  and  C_16
REMARK    6  A    between atoms: C_7  and  C_15
REMARK    7  A    between atoms: C_10  and  C_13
REMARK    8  A    between atoms: C_16  and  C_17
REMARK                            x       y       z     vdW  Elec       q    Type
REMARK                         _______ _______ _______ _____ _____    ______ ____
ROOT
ATOM      1  O   UNL     1       0.208   3.617  23.923  0.00  0.00    -0.371 OA
ATOM     10  C   UNL     1       0.470   2.374  24.596  0.00  0.00    +0.165 C 
ATOM     11  C   UNL     1      -0.813   2.017  25.334  0.00  0.00    +0.164 C 
ATOM     12  C   UNL     1      -1.313   3.392  25.733  0.00  0.00    +0.111 C 
ATOM     14  C   UNL     1      -0.972   4.208  24.496  0.00  0.00    +0.181 C 
ENDROOT
BRANCH  11   2
ATOM      2  O   UNL     1      -0.565   1.183  26.449  0.00  0.00    -0.388 OA
ATOM     25  H   UNL     1      -0.859   1.647  27.251  0.00  0.00    +0.210 HD
ENDBRANCH  11   2
BRANCH  12   6
ATOM      6  N   UNL     1      -2.730   3.426  26.060  0.00  0.00    -0.305 NA
ATOM     24  H   UNL     1      -2.959   4.339  26.452  0.00  0.00    +0.123 HD
BRANCH   6  16
ATOM     16  C   UNL     1      -3.548   3.201  24.875  0.00  0.00    +0.120 C 
BRANCH  16  17
ATOM     17  C   UNL     1      -3.698   1.735  24.567  0.00  0.00    +0.008 A 
ATOM     18  C   UNL     1      -3.251   1.212  23.353  0.00  0.00    +0.121 A 
ATOM     19  C   UNL     1      -4.293   0.898  25.510  0.00  0.00    +0.008 A 
ATOM     20  C   UNL     1      -3.397  -0.149  23.084  0.00  0.00    +0.046 A 
ATOM     21  C   UNL     1      -4.440  -0.464  25.240  0.00  0.00    +0.001 A 
ATOM     22  C   UNL     1      -3.992  -0.986  24.027  0.00  0.00    +0.004 A 
BRANCH  18   4
ATOM      4  O   UNL     1      -2.667   2.015  22.421  0.00  0.00    -0.506 OA
ATOM     26  H   UNL     1      -1.711   1.835  22.399  0.00  0.00    +0.292 HD
ENDBRANCH  18   4
ENDBRANCH  16  17
ENDBRANCH   6  16
ENDBRANCH  12   6
BRANCH  10  13
ATOM     13  C   UNL     1       0.894   1.323  23.586  0.00  0.00    +0.138 C 
BRANCH  13   5
ATOM      3  O   UNL     1       2.471  -0.161  21.644  0.00  0.00    -0.276 OA
ATOM      5  N   UNL     1       2.322   1.199  23.531  0.00  0.00    -0.313 N 
ATOM     15  C   UNL     1       2.991   0.465  22.561  0.00  0.00    +0.216 C 
ATOM     23  H   UNL     1       2.866   1.689  24.235  0.00  0.00    +0.149 HD
BRANCH  15   7
ATOM      7  C   UNL     1       4.476   0.476  22.695  0.00  0.00    +0.075 C 
ATOM      8  C   UNL     1       5.131  -0.634  23.449  0.00  0.00    +0.013 C 
ATOM      9  C   UNL     1       5.068   0.743  24.039  0.00  0.00    +0.013 C 
ENDBRANCH  15   7
ENDBRANCH  13   5
ENDBRANCH  10  13
TORSDOF 8
ENDMDL
MODEL 7
REMARK VINA RESULT:      -3.9      1.771      4.093
REMARK  Name = 75536543
REMARK  8 active torsions:
REMARK  status: ('A' for Active; 'I' for Inactive)
REMARK    1  A    between atoms: O_2  and  C_11
REMARK    2  A    between atoms: O_4  and  C_18
REMARK    3  A    between atoms: N_5  and  C_13
REMARK    4  A    between atoms: N_6  and  C_12
REMARK    5  A    between atoms: N_6  and  C_16
REMARK    6  A    between atoms: C_7  and  C_15
REMARK    7  A    between atoms: C_10  and  C_13
REMARK    8  A    between atoms: C_16  and  C_17
REMARK                            x       y       z     vdW  Elec       q    Type
REMARK                         _______ _______ _______ _____ _____    ______ ____
ROOT
ATOM      1  O   UNL     1      -5.713   1.550  25.888  0.00  0.00    -0.371 OA
ATOM     10  C   UNL     1      -4.979   0.623  25.069  0.00  0.00    +0.165 C 
ATOM     11  C   UNL     1      -3.915   1.444  24.354  0.00  0.00    +0.164 C 
ATOM     12  C   UNL     1      -4.652   2.751  24.133  0.00  0.00    +0.111 C 
ATOM     14  C   UNL     1      -5.423   2.886  25.437  0.00  0.00    +0.181 C 
ENDROOT
BRANCH  11   2
ATOM      2  O   UNL     1      -3.506   0.837  23.144  0.00  0.00    -0.388 OA
ATOM     25  H   UNL     1      -3.970  -0.013  23.055  0.00  0.00    +0.210 HD
ENDBRANCH  11   2
BRANCH  12   6
ATOM      6  N   UNL     1      -3.773   3.881  23.877  0.00  0.00    -0.305 NA
ATOM     24  H   UNL     1      -4.335   4.679  23.582  0.00  0.00    +0.123 HD
BRANCH   6  16
ATOM     16  C   UNL     1      -3.024   4.246  25.073  0.00  0.00    +0.120 C 
BRANCH  16  17
ATOM     17  C   UNL     1      -1.746   3.460  25.196  0.00  0.00    +0.008 A 
ATOM     18  C   UNL     1      -1.071   3.013  24.060  0.00  0.00    +0.121 A 
ATOM     19  C   UNL     1      -1.237   3.180  26.464  0.00  0.00    +0.008 A 
ATOM     20  C   UNL     1       0.113   2.287  24.192  0.00  0.00    +0.046 A 
ATOM     21  C   UNL     1      -0.053   2.453  26.596  0.00  0.00    +0.001 A 
ATOM     22  C   UNL     1       0.621   2.007  25.460  0.00  0.00    +0.004 A 
BRANCH  18   4
ATOM      4  O   UNL     1      -1.553   3.278  22.814  0.00  0.00    -0.506 OA
ATOM     26  H   UNL     1      -1.389   4.213  22.601  0.00  0.00    +0.292 HD
ENDBRANCH  18   4
ENDBRANCH  16  17
ENDBRANCH   6  16
ENDBRANCH  12   6
BRANCH  10  13
ATOM     13  C   UNL     1      -4.404  -0.483  25.936  0.00  0.00    +0.138 C 
BRANCH  13   5
ATOM      3  O   UNL     1      -3.671  -2.956  24.592  0.00  0.00    -0.276 OA
ATOM      5  N   UNL     1      -3.102  -0.878  25.481  0.00  0.00    -0.313 N 
ATOM     15  C   UNL     1      -2.846  -2.086  24.846  0.00  0.00    +0.216 C 
ATOM     23  H   UNL     1      -2.335  -0.227  25.623  0.00  0.00    +0.149 HD
BRANCH  15   7
ATOM      7  C   UNL     1      -1.420  -2.287  24.457  0.00  0.00    +0.075 C 
ATOM      8  C   UNL     1      -0.355  -1.770  25.367  0.00  0.00    +0.013 C 
ATOM      9  C   UNL     1      -0.617  -1.095  24.054  0.00  0.00    +0.013 C 
ENDBRANCH  15   7
ENDBRANCH  13   5
ENDBRANCH  10  13
TORSDOF 8
ENDMDL
MODEL 8
REMARK VINA RESULT:      -3.5     15.242     17.652
REMARK  Name = 75536543
REMARK  8 active torsions:
REMARK  status: ('A' for Active; 'I' for Inactive)
REMARK    1  A    between atoms: O_2  and  C_11
REMARK    2  A    between atoms: O_4  and  C_18
REMARK    3  A    between atoms: N_5  and  C_13
REMARK    4  A    between atoms: N_6  and  C_12
REMARK    5  A    between atoms: N_6  and  C_16
REMARK    6  A    between atoms: C_7  and  C_15
REMARK    7  A    between atoms: C_10  and  C_13
REMARK    8  A    between atoms: C_16  and  C_17
REMARK                            x       y       z     vdW  Elec       q    Type
REMARK                         _______ _______ _______ _____ _____    ______ ____
ROOT
ATOM      1  O   UNL     1      -2.939  -9.729  11.186  0.00  0.00    -0.371 OA
ATOM     10  C   UNL     1      -3.991  -9.548  12.149  0.00  0.00    +0.165 C 
ATOM     11  C   UNL     1      -5.254  -9.270  11.346  0.00  0.00    +0.164 C 
ATOM     12  C   UNL     1      -4.691  -8.479  10.180  0.00  0.00    +0.111 C 
ATOM     14  C   UNL     1      -3.387  -9.215   9.919  0.00  0.00    +0.181 C 
ENDROOT
BRANCH  11   2
ATOM      2  O   UNL     1      -6.204  -8.537  12.095  0.00  0.00    -0.388 OA
ATOM     25  H   UNL     1      -6.491  -9.086  12.845  0.00  0.00    +0.210 HD
ENDBRANCH  11   2
BRANCH  12   6
ATOM      6  N   UNL     1      -5.566  -8.448   9.019  0.00  0.00    -0.305 NA
ATOM     24  H   UNL     1      -5.082  -8.869   8.227  0.00  0.00    +0.123 HD
BRANCH   6  16
ATOM     16  C   UNL     1      -6.796  -9.189   9.269  0.00  0.00    +0.120 C 
BRANCH  16  17
ATOM     17  C   UNL     1      -8.015  -8.316   9.129  0.00  0.00    +0.008 A 
ATOM     18  C   UNL     1      -9.244  -8.718   9.654  0.00  0.00    +0.121 A 
ATOM     19  C   UNL     1      -7.907  -7.094   8.467  0.00  0.00    +0.008 A 
ATOM     20  C   UNL     1     -10.363  -7.897   9.516  0.00  0.00    +0.046 A 
ATOM     21  C   UNL     1      -9.027  -6.273   8.329  0.00  0.00    +0.001 A 
ATOM     22  C   UNL     1     -10.255  -6.675   8.853  0.00  0.00    +0.004 A 
BRANCH  18   4
ATOM      4  O   UNL     1      -9.368  -9.909  10.304  0.00  0.00    -0.506 OA
ATOM     26  H   UNL     1      -8.810 -10.572   9.862  0.00  0.00    +0.292 HD
ENDBRANCH  18   4
ENDBRANCH  16  17
ENDBRANCH   6  16
ENDBRANCH  12   6
BRANCH  10  13
ATOM     13  C   UNL     1      -4.098 -10.781  13.029  0.00  0.00    +0.138 C 
BRANCH  13   5
ATOM      3  O   UNL     1      -4.196 -10.478  15.920  0.00  0.00    -0.276 OA
ATOM      5  N   UNL     1      -5.263 -10.727  13.863  0.00  0.00    -0.313 N 
ATOM     15  C   UNL     1      -5.213 -10.580  15.243  0.00  0.00    +0.216 C 
ATOM     23  H   UNL     1      -6.171 -10.787  13.410  0.00  0.00    +0.149 HD
BRANCH  15   7
ATOM      7  C   UNL     1      -6.547 -10.546  15.908  0.00  0.00    +0.075 C 
ATOM      8  C   UNL     1      -6.881  -9.378  16.776  0.00  0.00    +0.013 C 
ATOM      9  C   UNL     1      -6.610 -10.720  17.389  0.00  0.00    +0.013 C 
ENDBRANCH  15   7
ENDBRANCH  13   5
ENDBRANCH  10  13
TORSDOF 8
ENDMDL
MODEL 9
REMARK VINA RESULT:      -3.4     15.762     18.021
REMARK  Name = 75536543
REMARK  8 active torsions:
REMARK  status: ('A' for Active; 'I' for Inactive)
REMARK    1  A    between atoms: O_2  and  C_11
REMARK    2  A    between atoms: O_4  and  C_18
REMARK    3  A    between atoms: N_5  and  C_13
REMARK    4  A    between atoms: N_6  and  C_12
REMARK    5  A    between atoms: N_6  and  C_16
REMARK    6  A    between atoms: C_7  and  C_15
REMARK    7  A    between atoms: C_10  and  C_13
REMARK    8  A    between atoms: C_16  and  C_17
REMARK                            x       y       z     vdW  Elec       q    Type
REMARK                         _______ _______ _______ _____ _____    ______ ____
ROOT
ATOM      1  O   UNL     1      -3.809  -8.817  10.510  0.00  0.00    -0.371 OA
ATOM     10  C   UNL     1      -4.887  -9.423  11.243  0.00  0.00    +0.165 C 
ATOM     11  C   UNL     1      -6.062  -9.498  10.277  0.00  0.00    +0.164 C 
ATOM     12  C   UNL     1      -5.864  -8.226   9.476  0.00  0.00    +0.111 C 
ATOM     14  C   UNL     1      -4.351  -8.192   9.333  0.00  0.00    +0.181 C 
ENDROOT
BRANCH  11   2
ATOM      2  O   UNL     1      -7.302  -9.527  10.958  0.00  0.00    -0.388 OA
ATOM     25  H   UNL     1      -7.657 -10.431  10.909  0.00  0.00    +0.210 HD
ENDBRANCH  11   2
BRANCH  12   6
ATOM      6  N   UNL     1      -6.554  -8.229   8.196  0.00  0.00    -0.305 NA
ATOM     24  H   UNL     1      -6.163  -8.965   7.609  0.00  0.00    +0.123 HD
BRANCH   6  16
ATOM     16  C   UNL     1      -7.981  -8.470   8.369  0.00  0.00    +0.120 C 
BRANCH  16  17
ATOM     17  C   UNL     1      -8.743  -7.191   8.597  0.00  0.00    +0.008 A 
ATOM     18  C   UNL     1     -10.027  -7.214   9.143  0.00  0.00    +0.121 A 
ATOM     19  C   UNL     1      -8.151  -5.975   8.258  0.00  0.00    +0.008 A 
ATOM     20  C   UNL     1     -10.718  -6.020   9.349  0.00  0.00    +0.046 A 
ATOM     21  C   UNL     1      -8.843  -4.781   8.464  0.00  0.00    +0.001 A 
ATOM     22  C   UNL     1     -10.126  -4.804   9.009  0.00  0.00    +0.004 A 
BRANCH  18   4
ATOM      4  O   UNL     1     -10.619  -8.393   9.480  0.00  0.00    -0.506 OA
ATOM     26  H   UNL     1     -11.290  -8.227  10.165  0.00  0.00    +0.292 HD
ENDBRANCH  18   4
ENDBRANCH  16  17
ENDBRANCH   6  16
ENDBRANCH  12   6
BRANCH  10  13
ATOM     13  C   UNL     1      -4.453 -10.780  11.767  0.00  0.00    +0.138 C 
BRANCH  13   5
ATOM      3  O   UNL     1      -3.887 -10.544  14.610  0.00  0.00    -0.276 OA
ATOM      5  N   UNL     1      -3.168 -10.708  12.399  0.00  0.00    -0.313 N 
ATOM     15  C   UNL     1      -2.994 -10.596  13.772  0.00  0.00    +0.216 C 
ATOM     23  H   UNL     1      -2.346 -10.758  11.804  0.00  0.00    +0.149 HD
BRANCH  15   7
ATOM      7  C   UNL     1      -1.569 -10.540  14.210  0.00  0.00    +0.075 C 
ATOM      8  C   UNL     1      -1.257 -10.781  15.650  0.00  0.00    +0.013 C 
ATOM      9  C   UNL     1      -1.133  -9.403  15.073  0.00  0.00    +0.013 C 
ENDBRANCH  15   7
ENDBRANCH  13   5
ENDBRANCH  10  13
TORSDOF 8
ENDMDL
MODEL 10
REMARK VINA RESULT:      -2.7      1.695      2.771
REMARK  Name = 75536543
REMARK  8 active torsions:
REMARK  status: ('A' for Active; 'I' for Inactive)
REMARK    1  A    between atoms: O_2  and  C_11
REMARK    2  A    between atoms: O_4  and  C_18
REMARK    3  A    between atoms: N_5  and  C_13
REMARK    4  A    between atoms: N_6  and  C_12
REMARK    5  A    between atoms: N_6  and  C_16
REMARK    6  A    between atoms: C_7  and  C_15
REMARK    7  A    between atoms: C_10  and  C_13
REMARK    8  A    between atoms: C_16  and  C_17
REMARK                            x       y       z     vdW  Elec       q    Type
REMARK                         _______ _______ _______ _____ _____    ______ ____
ROOT
ATOM      1  O   UNL     1      -0.349   3.747  24.606  0.00  0.00    -0.371 OA
ATOM     10  C   UNL     1      -0.705   3.484  25.974  0.00  0.00    +0.165 C 
ATOM     11  C   UNL     1      -2.226   3.539  26.031  0.00  0.00    +0.164 C 
ATOM     12  C   UNL     1      -2.517   4.628  25.015  0.00  0.00    +0.111 C 
ATOM     14  C   UNL     1      -1.488   4.318  23.939  0.00  0.00    +0.181 C 
ENDROOT
BRANCH  11   2
ATOM      2  O   UNL     1      -2.693   3.863  27.326  0.00  0.00    -0.388 OA
ATOM     25  H   UNL     1      -2.430   3.150  27.933  0.00  0.00    +0.210 HD
ENDBRANCH  11   2
BRANCH  12   6
ATOM      6  N   UNL     1      -3.882   4.609  24.515  0.00  0.00    -0.305 NA
ATOM     24  H   UNL     1      -4.136   5.547  24.207  0.00  0.00    +0.123 HD
BRANCH   6  16
ATOM     16  C   UNL     1      -4.017   3.690  23.392  0.00  0.00    +0.120 C 
BRANCH  16  17
ATOM     17  C   UNL     1      -4.154   2.262  23.848  0.00  0.00    +0.008 A 
ATOM     18  C   UNL     1      -3.401   1.248  23.254  0.00  0.00    +0.121 A 
ATOM     19  C   UNL     1      -5.044   1.957  24.878  0.00  0.00    +0.008 A 
ATOM     20  C   UNL     1      -3.539  -0.069  23.690  0.00  0.00    +0.046 A 
ATOM     21  C   UNL     1      -5.181   0.638  25.313  0.00  0.00    +0.001 A 
ATOM     22  C   UNL     1      -4.429  -0.374  24.719  0.00  0.00    +0.004 A 
BRANCH  18   4
ATOM      4  O   UNL     1      -2.527   1.529  22.248  0.00  0.00    -0.506 OA
ATOM     26  H   UNL     1      -1.972   0.747  22.081  0.00  0.00    +0.292 HD
ENDBRANCH  18   4
ENDBRANCH  16  17
ENDBRANCH   6  16
ENDBRANCH  12   6
BRANCH  10  13
ATOM     13  C   UNL     1      -0.137   2.143  26.403  0.00  0.00    +0.138 C 
BRANCH  13   5
ATOM      3  O   UNL     1      -1.105  -0.546  25.864  0.00  0.00    -0.276 OA
ATOM      5  N   UNL     1       0.164   1.316  25.270  0.00  0.00    -0.313 N 
ATOM     15  C   UNL     1      -0.347   0.038  25.097  0.00  0.00    +0.216 C 
ATOM     23  H   UNL     1       0.774   1.701  24.555  0.00  0.00    +0.149 HD
BRANCH  15   7
ATOM      7  C   UNL     1       0.098  -0.639  23.844  0.00  0.00    +0.075 C 
ATOM      8  C   UNL     1       1.445  -0.305  23.295  0.00  0.00    +0.013 C 
ATOM      9  C   UNL     1       0.208   0.173  22.597  0.00  0.00    +0.013 C 
ENDBRANCH  15   7
ENDBRANCH  13   5
ENDBRANCH  10  13
TORSDOF 8
ENDMDL
