MODEL 1
REMARK VINA RESULT:      -2.1      0.000      0.000
REMARK  Name = 71693262
REMARK  7 active torsions:
REMARK  status: ('A' for Active; 'I' for Inactive)
REMARK    1  A    between atoms: O_2  and  C_9
REMARK    2  A    between atoms: N_5  and  C_11
REMARK    3  A    between atoms: N_6  and  C_19
REMARK    4  A    between atoms: C_7  and  C_9
REMARK    5  A    between atoms: C_8  and  C_10
REMARK    6  A    between atoms: C_11  and  C_14
REMARK    7  A    between atoms: C_25  and  C_26
REMARK                            x       y       z     vdW  Elec       q    Type
REMARK                         _______ _______ _______ _____ _____    ______ ____
ROOT
ATOM      1  O   UNL     1      -3.112   3.330  23.322  0.00  0.00    -0.361 OA
ATOM      3  O   UNL     1      -6.219   2.021  23.908  0.00  0.00    -0.273 OA
ATOM      5  N   UNL     1      -4.326   1.891  25.267  0.00  0.00    -0.287 N 
ATOM      7  C   UNL     1      -3.100   2.568  25.703  0.00  0.00    +0.135 C 
ATOM      8  C   UNL     1      -2.324   3.181  24.509  0.00  0.00    +0.171 C 
ATOM     12  C   UNL     1      -5.110   2.428  24.249  0.00  0.00    +0.242 C 
ATOM     13  C   UNL     1      -4.471   3.619  23.575  0.00  0.00    +0.256 C 
ENDROOT
BRANCH   8  10
ATOM     10  C   UNL     1      -1.122   2.332  24.141  0.00  0.00    -0.017 A 
ATOM     15  C   UNL     1       0.161   2.877  24.196  0.00  0.00    +0.008 A 
ATOM     16  C   UNL     1      -1.299   1.004  23.750  0.00  0.00    +0.008 A 
ATOM     17  C   UNL     1       1.266   2.096  23.858  0.00  0.00    +0.023 A 
ATOM     18  C   UNL     1      -0.195   0.223  23.413  0.00  0.00    +0.023 A 
ATOM     19  C   UNL     1       1.089   0.768  23.467  0.00  0.00    +0.033 A 
BRANCH  19   6
ATOM      4  O   UNL     1       3.970   1.535  23.052  0.00  0.00    -0.276 OA
ATOM      6  N   UNL     1       2.195  -0.013  23.130  0.00  0.00    -0.286 N 
ATOM     25  C   UNL     1       3.521   0.398  22.946  0.00  0.00    +0.214 C 
ATOM     26  C   UNL     1       4.421  -0.757  22.587  0.00  0.00    +0.109 C 
ATOM     28  H   UNL     1       2.002  -1.005  23.003  0.00  0.00    +0.155 HD
ENDBRANCH  19   6
ENDBRANCH   8  10
BRANCH   7   9
ATOM      9  C   UNL     1      -3.416   3.632  26.764  0.00  0.00    +0.181 C 
BRANCH   9   2
ATOM      2  O   UNL     1      -2.826   4.849  26.356  0.00  0.00    -0.393 OA
ATOM     27  H   UNL     1      -1.897   4.660  26.139  0.00  0.00    +0.209 HD
ENDBRANCH   9   2
ENDBRANCH   7   9
BRANCH   5  11
ATOM     11  C   UNL     1      -4.768   0.724  26.017  0.00  0.00    +0.143 C 
BRANCH  11  14
ATOM     14  C   UNL     1      -4.205  -0.549  25.455  0.00  0.00    -0.030 A 
ATOM     20  C   UNL     1      -4.646  -1.021  24.219  0.00  0.00    +0.005 A 
ATOM     21  C   UNL     1      -3.242  -1.260  26.170  0.00  0.00    +0.005 A 
ATOM     22  C   UNL     1      -4.122  -2.204  23.697  0.00  0.00    +0.000 A 
ATOM     23  C   UNL     1      -2.719  -2.443  25.648  0.00  0.00    +0.000 A 
ATOM     24  C   UNL     1      -3.159  -2.916  24.412  0.00  0.00    +0.000 A 
ENDBRANCH  11  14
ENDBRANCH   5  11
TORSDOF 6
ENDMDL
MODEL 2
REMARK VINA RESULT:      -1.3      1.847      4.178
REMARK  Name = 71693262
REMARK  7 active torsions:
REMARK  status: ('A' for Active; 'I' for Inactive)
REMARK    1  A    between atoms: O_2  and  C_9
REMARK    2  A    between atoms: N_5  and  C_11
REMARK    3  A    between atoms: N_6  and  C_19
REMARK    4  A    between atoms: C_7  and  C_9
REMARK    5  A    between atoms: C_8  and  C_10
REMARK    6  A    between atoms: C_11  and  C_14
REMARK    7  A    between atoms: C_25  and  C_26
REMARK                            x       y       z     vdW  Elec       q    Type
REMARK                         _______ _______ _______ _____ _____    ______ ____
ROOT
ATOM      1  O   UNL     1      -4.648   0.158  24.615  0.00  0.00    -0.361 OA
ATOM      3  O   UNL     1      -6.048   2.189  26.987  0.00  0.00    -0.273 OA
ATOM      5  N   UNL     1      -4.437   2.743  25.392  0.00  0.00    -0.287 N 
ATOM      7  C   UNL     1      -3.934   2.483  24.039  0.00  0.00    +0.135 C 
ATOM      8  C   UNL     1      -3.862   0.965  23.732  0.00  0.00    +0.171 C 
ATOM     12  C   UNL     1      -5.463   1.969  25.929  0.00  0.00    +0.242 C 
ATOM     13  C   UNL     1      -5.831   0.789  25.061  0.00  0.00    +0.256 C 
ENDROOT
BRANCH   8  10
ATOM     10  C   UNL     1      -2.436   0.455  23.813  0.00  0.00    -0.017 A 
ATOM     15  C   UNL     1      -2.171  -0.794  24.376  0.00  0.00    +0.008 A 
ATOM     16  C   UNL     1      -1.387   1.235  23.323  0.00  0.00    +0.008 A 
ATOM     17  C   UNL     1      -0.860  -1.262  24.451  0.00  0.00    +0.023 A 
ATOM     18  C   UNL     1      -0.076   0.767  23.397  0.00  0.00    +0.023 A 
ATOM     19  C   UNL     1       0.189  -0.482  23.961  0.00  0.00    +0.033 A 
BRANCH  19   6
ATOM      4  O   UNL     1       2.612   0.222  22.319  0.00  0.00    -0.276 OA
ATOM      6  N   UNL     1       1.500  -0.951  24.036  0.00  0.00    -0.286 N 
ATOM     25  C   UNL     1       2.595  -0.589  23.240  0.00  0.00    +0.214 C 
ATOM     26  C   UNL     1       3.847  -1.327  23.642  0.00  0.00    +0.109 C 
ATOM     28  H   UNL     1       1.673  -1.643  24.762  0.00  0.00    +0.155 HD
ENDBRANCH  19   6
ENDBRANCH   8  10
BRANCH   7   9
ATOM      9  C   UNL     1      -4.783   3.220  22.994  0.00  0.00    +0.181 C 
BRANCH   9   2
ATOM      2  O   UNL     1      -3.967   3.489  21.872  0.00  0.00    -0.393 OA
ATOM     27  H   UNL     1      -3.156   2.962  21.974  0.00  0.00    +0.209 HD
ENDBRANCH   9   2
ENDBRANCH   7   9
BRANCH   5  11
ATOM     11  C   UNL     1      -3.931   3.910  26.098  0.00  0.00    +0.143 C 
BRANCH  11  14
ATOM     14  C   UNL     1      -2.511   4.221  25.723  0.00  0.00    -0.030 A 
ATOM     20  C   UNL     1      -1.498   3.305  26.007  0.00  0.00    +0.005 A 
ATOM     21  C   UNL     1      -2.205   5.427  25.093  0.00  0.00    +0.005 A 
ATOM     22  C   UNL     1      -0.178   3.594  25.658  0.00  0.00    +0.000 A 
ATOM     23  C   UNL     1      -0.885   5.715  24.744  0.00  0.00    +0.000 A 
ATOM     24  C   UNL     1       0.128   4.799  25.027  0.00  0.00    +0.000 A 
ENDBRANCH  11  14
ENDBRANCH   5  11
TORSDOF 6
ENDMDL
MODEL 3
REMARK VINA RESULT:      -0.2      2.133      4.391
REMARK  Name = 71693262
REMARK  7 active torsions:
REMARK  status: ('A' for Active; 'I' for Inactive)
REMARK    1  A    between atoms: O_2  and  C_9
REMARK    2  A    between atoms: N_5  and  C_11
REMARK    3  A    between atoms: N_6  and  C_19
REMARK    4  A    between atoms: C_7  and  C_9
REMARK    5  A    between atoms: C_8  and  C_10
REMARK    6  A    between atoms: C_11  and  C_14
REMARK    7  A    between atoms: C_25  and  C_26
REMARK                            x       y       z     vdW  Elec       q    Type
REMARK                         _______ _______ _______ _____ _____    ______ ____
ROOT
ATOM      1  O   UNL     1      -1.678  -1.302  23.523  0.00  0.00    -0.361 OA
ATOM      3  O   UNL     1      -3.604  -0.965  26.331  0.00  0.00    -0.273 OA
ATOM      5  N   UNL     1      -2.539   0.714  25.111  0.00  0.00    -0.287 N 
ATOM      7  C   UNL     1      -2.094   1.149  23.783  0.00  0.00    +0.135 C 
ATOM      8  C   UNL     1      -1.400   0.003  23.003  0.00  0.00    +0.171 C 
ATOM     12  C   UNL     1      -3.077  -0.556  25.299  0.00  0.00    +0.242 C 
ATOM     13  C   UNL     1      -2.973  -1.430  24.072  0.00  0.00    +0.256 C 
ENDROOT
BRANCH   8  10
ATOM     10  C   UNL     1       0.108   0.171  23.007  0.00  0.00    -0.017 A 
ATOM     15  C   UNL     1       0.706   1.096  23.862  0.00  0.00    +0.008 A 
ATOM     16  C   UNL     1       0.898  -0.602  22.154  0.00  0.00    +0.008 A 
ATOM     17  C   UNL     1       2.092   1.251  23.865  0.00  0.00    +0.023 A 
ATOM     18  C   UNL     1       2.284  -0.448  22.157  0.00  0.00    +0.023 A 
ATOM     19  C   UNL     1       2.882   0.478  23.012  0.00  0.00    +0.033 A 
BRANCH  19   6
ATOM      4  O   UNL     1       5.042  -1.298  24.125  0.00  0.00    -0.276 OA
ATOM      6  N   UNL     1       4.268   0.632  23.016  0.00  0.00    -0.286 N 
ATOM     25  C   UNL     1       5.233  -0.230  23.553  0.00  0.00    +0.214 C 
ATOM     26  C   UNL     1       6.631   0.299  23.350  0.00  0.00    +0.109 C 
ATOM     28  H   UNL     1       4.611   1.481  22.570  0.00  0.00    +0.155 HD
ENDBRANCH  19   6
ENDBRANCH   8  10
BRANCH   7   9
ATOM      9  C   UNL     1      -3.267   1.733  22.983  0.00  0.00    +0.181 C 
BRANCH   9   2
ATOM      2  O   UNL     1      -2.748   2.327  21.810  0.00  0.00    -0.393 OA
ATOM     27  H   UNL     1      -2.847   1.679  21.091  0.00  0.00    +0.209 HD
ENDBRANCH   9   2
ENDBRANCH   7   9
BRANCH   5  11
ATOM     11  C   UNL     1      -2.527   1.690  26.191  0.00  0.00    +0.143 C 
BRANCH  11  14
ATOM     14  C   UNL     1      -2.055   3.037  25.725  0.00  0.00    -0.030 A 
ATOM     20  C   UNL     1      -0.718   3.225  25.377  0.00  0.00    +0.005 A 
ATOM     21  C   UNL     1      -2.955   4.100  25.643  0.00  0.00    +0.005 A 
ATOM     22  C   UNL     1      -0.280   4.477  24.943  0.00  0.00    +0.000 A 
ATOM     23  C   UNL     1      -2.516   5.351  25.210  0.00  0.00    +0.000 A 
ATOM     24  C   UNL     1      -1.179   5.540  24.861  0.00  0.00    +0.000 A 
ENDBRANCH  11  14
ENDBRANCH   5  11
TORSDOF 6
ENDMDL
MODEL 4
REMARK VINA RESULT:      -0.2      2.596      5.062
REMARK  Name = 71693262
REMARK  7 active torsions:
REMARK  status: ('A' for Active; 'I' for Inactive)
REMARK    1  A    between atoms: O_2  and  C_9
REMARK    2  A    between atoms: N_5  and  C_11
REMARK    3  A    between atoms: N_6  and  C_19
REMARK    4  A    between atoms: C_7  and  C_9
REMARK    5  A    between atoms: C_8  and  C_10
REMARK    6  A    between atoms: C_11  and  C_14
REMARK    7  A    between atoms: C_25  and  C_26
REMARK                            x       y       z     vdW  Elec       q    Type
REMARK                         _______ _______ _______ _____ _____    ______ ____
ROOT
ATOM      1  O   UNL     1       0.283   2.648  24.066  0.00  0.00    -0.361 OA
ATOM      3  O   UNL     1      -1.385   5.632  24.225  0.00  0.00    -0.273 OA
ATOM      5  N   UNL     1      -1.461   3.862  25.744  0.00  0.00    -0.287 N 
ATOM      7  C   UNL     1      -0.712   2.759  26.356  0.00  0.00    +0.135 C 
ATOM      8  C   UNL     1       0.094   1.955  25.304  0.00  0.00    +0.171 C 
ATOM     12  C   UNL     1      -0.905   4.609  24.708  0.00  0.00    +0.242 C 
ATOM     13  C   UNL     1       0.406   4.047  24.211  0.00  0.00    +0.256 C 
ENDROOT
BRANCH   8  10
ATOM     10  C   UNL     1      -0.588   0.639  24.979  0.00  0.00    -0.017 A 
ATOM     15  C   UNL     1      -1.647   0.187  25.768  0.00  0.00    +0.008 A 
ATOM     16  C   UNL     1      -0.158  -0.119  23.889  0.00  0.00    +0.008 A 
ATOM     17  C   UNL     1      -2.273  -1.022  25.468  0.00  0.00    +0.023 A 
ATOM     18  C   UNL     1      -0.785  -1.327  23.589  0.00  0.00    +0.023 A 
ATOM     19  C   UNL     1      -1.843  -1.780  24.379  0.00  0.00    +0.033 A 
BRANCH  19   6
ATOM      4  O   UNL     1      -4.708  -2.370  23.668  0.00  0.00    -0.276 OA
ATOM      6  N   UNL     1      -2.471  -2.989  24.079  0.00  0.00    -0.286 N 
ATOM     25  C   UNL     1      -3.816  -3.209  23.755  0.00  0.00    +0.214 C 
ATOM     26  C   UNL     1      -4.099  -4.667  23.498  0.00  0.00    +0.109 C 
ATOM     28  H   UNL     1      -1.867  -3.808  24.101  0.00  0.00    +0.155 HD
ENDBRANCH  19   6
ENDBRANCH   8  10
BRANCH   7   9
ATOM      9  C   UNL     1       0.202   3.281  27.475  0.00  0.00    +0.181 C 
BRANCH   9   2
ATOM      2  O   UNL     1       1.418   2.564  27.420  0.00  0.00    -0.393 OA
ATOM     27  H   UNL     1       1.199   1.618  27.479  0.00  0.00    +0.209 HD
ENDBRANCH   9   2
ENDBRANCH   7   9
BRANCH   5  11
ATOM     11  C   UNL     1      -2.736   4.236  26.336  0.00  0.00    +0.143 C 
BRANCH  11  14
ATOM     14  C   UNL     1      -3.868   3.407  25.803  0.00  0.00    -0.030 A 
ATOM     20  C   UNL     1      -5.067   3.325  26.510  0.00  0.00    +0.005 A 
ATOM     21  C   UNL     1      -3.719   2.717  24.599  0.00  0.00    +0.005 A 
ATOM     22  C   UNL     1      -6.119   2.555  26.013  0.00  0.00    +0.000 A 
ATOM     23  C   UNL     1      -4.771   1.947  24.103  0.00  0.00    +0.000 A 
ATOM     24  C   UNL     1      -5.970   1.865  24.810  0.00  0.00    +0.000 A 
ENDBRANCH  11  14
ENDBRANCH   5  11
TORSDOF 6
ENDMDL
MODEL 5
REMARK VINA RESULT:       0.6      2.022      4.334
REMARK  Name = 71693262
REMARK  7 active torsions:
REMARK  status: ('A' for Active; 'I' for Inactive)
REMARK    1  A    between atoms: O_2  and  C_9
REMARK    2  A    between atoms: N_5  and  C_11
REMARK    3  A    between atoms: N_6  and  C_19
REMARK    4  A    between atoms: C_7  and  C_9
REMARK    5  A    between atoms: C_8  and  C_10
REMARK    6  A    between atoms: C_11  and  C_14
REMARK    7  A    between atoms: C_25  and  C_26
REMARK                            x       y       z     vdW  Elec       q    Type
REMARK                         _______ _______ _______ _____ _____    ______ ____
ROOT
ATOM      1  O   UNL     1      -2.440  -1.208  25.774  0.00  0.00    -0.361 OA
ATOM      3  O   UNL     1      -5.062   0.753  26.769  0.00  0.00    -0.273 OA
ATOM      5  N   UNL     1      -4.094   0.618  24.650  0.00  0.00    -0.287 N 
ATOM      7  C   UNL     1      -3.418  -0.251  23.681  0.00  0.00    +0.135 C 
ATOM      8  C   UNL     1      -2.317  -1.115  24.350  0.00  0.00    +0.171 C 
ATOM     12  C   UNL     1      -4.381   0.162  25.934  0.00  0.00    +0.242 C 
ATOM     13  C   UNL     1      -3.777  -1.190  26.231  0.00  0.00    +0.256 C 
ENDROOT
BRANCH   8  10
ATOM     10  C   UNL     1      -0.934  -0.565  24.058  0.00  0.00    -0.017 A 
ATOM     15  C   UNL     1      -0.502   0.607  24.680  0.00  0.00    +0.008 A 
ATOM     16  C   UNL     1      -0.092  -1.231  23.167  0.00  0.00    +0.008 A 
ATOM     17  C   UNL     1       0.769   1.112  24.411  0.00  0.00    +0.023 A 
ATOM     18  C   UNL     1       1.179  -0.727  22.898  0.00  0.00    +0.023 A 
ATOM     19  C   UNL     1       1.611   0.446  23.520  0.00  0.00    +0.033 A 
BRANCH  19   6
ATOM      4  O   UNL     1       4.304  -0.897  23.599  0.00  0.00    -0.276 OA
ATOM      6  N   UNL     1       2.883   0.951  23.252  0.00  0.00    -0.286 N 
ATOM     25  C   UNL     1       4.111   0.279  23.306  0.00  0.00    +0.214 C 
ATOM     26  C   UNL     1       5.261   1.183  22.942  0.00  0.00    +0.109 C 
ATOM     28  H   UNL     1       2.912   1.933  22.984  0.00  0.00    +0.155 HD
ENDBRANCH  19   6
ENDBRANCH   8  10
BRANCH   7   9
ATOM      9  C   UNL     1      -4.436  -1.129  22.938  0.00  0.00    +0.181 C 
BRANCH   9   2
ATOM      2  O   UNL     1      -4.359  -2.437  23.467  0.00  0.00    -0.393 OA
ATOM     27  H   UNL     1      -3.914  -2.990  22.802  0.00  0.00    +0.209 HD
ENDBRANCH   9   2
ENDBRANCH   7   9
BRANCH   5  11
ATOM     11  C   UNL     1      -4.572   1.913  24.191  0.00  0.00    +0.143 C 
BRANCH  11  14
ATOM     14  C   UNL     1      -3.644   3.026  24.582  0.00  0.00    -0.030 A 
ATOM     20  C   UNL     1      -2.470   3.241  23.860  0.00  0.00    +0.005 A 
ATOM     21  C   UNL     1      -3.954   3.843  25.669  0.00  0.00    +0.005 A 
ATOM     22  C   UNL     1      -1.607   4.276  24.223  0.00  0.00    +0.000 A 
ATOM     23  C   UNL     1      -3.091   4.877  26.032  0.00  0.00    +0.000 A 
ATOM     24  C   UNL     1      -1.918   5.093  25.310  0.00  0.00    +0.000 A 
ENDBRANCH  11  14
ENDBRANCH   5  11
TORSDOF 6
ENDMDL
