MODEL 1
REMARK VINA RESULT:      -3.4      0.000      0.000
REMARK  Name = 26742911
REMARK  7 active torsions:
REMARK  status: ('A' for Active; 'I' for Inactive)
REMARK    1  A    between atoms: N_5  and  C_18
REMARK    2  A    between atoms: C_7  and  C_13
REMARK    3  A    between atoms: C_8  and  C_12
REMARK    4  A    between atoms: C_12  and  C_14
REMARK    5  A    between atoms: C_13  and  C_15
REMARK    6  A    between atoms: C_17  and  C_19
REMARK    7  A    between atoms: C_18  and  C_20
REMARK                            x       y       z     vdW  Elec       q    Type
REMARK                         _______ _______ _______ _____ _____    ______ ____
ROOT
ATOM      4  N   UNL     1      -0.630   5.324  24.622  0.00  0.00    -0.316 NA
ATOM      7  C   UNL     1      -2.835   3.609  25.574  0.00  0.00    +0.004 C 
ATOM      8  C   UNL     1      -1.590   3.045  24.850  0.00  0.00    +0.012 C 
ATOM      9  C   UNL     1      -2.469   4.952  26.229  0.00  0.00    +0.019 C 
ATOM     10  C   UNL     1      -0.957   4.087  23.912  0.00  0.00    +0.085 C 
ATOM     11  C   UNL     1      -1.810   5.919  25.247  0.00  0.00    +0.081 C 
ATOM     31  H   UNL     1      -0.222   5.990  23.967  0.00  0.00    +0.122 HD
ENDROOT
BRANCH   8  12
ATOM     12  C   UNL     1      -1.874   1.745  24.096  0.00  0.00    +0.064 C 
BRANCH  12  14
ATOM      3  O   UNL     1       0.662  -0.663  23.237  0.00  0.00    -0.354 OA
ATOM      6  N   UNL     1      -0.663  -0.282  23.413  0.00  0.00    -0.083 NA
ATOM     14  C   UNL     1      -0.606   0.993  23.807  0.00  0.00    +0.085 A 
ATOM     16  C   UNL     1       0.715   1.466  23.898  0.00  0.00    +0.076 A 
ATOM     17  C   UNL     1       1.473   0.386  23.530  0.00  0.00    +0.167 A 
BRANCH  17  19
ATOM      1  F   UNL     1       6.928  -0.563  22.997  0.00  0.00    -0.205 F 
ATOM     19  C   UNL     1       2.879   0.141  23.393  0.00  0.00    +0.020 A 
ATOM     21  C   UNL     1       3.706   1.119  22.839  0.00  0.00    +0.014 A 
ATOM     22  C   UNL     1       3.420  -1.073  23.814  0.00  0.00    +0.014 A 
ATOM     25  C   UNL     1       5.074   0.881  22.705  0.00  0.00    +0.039 A 
ATOM     26  C   UNL     1       4.787  -1.311  23.680  0.00  0.00    +0.039 A 
ATOM     29  C   UNL     1       5.614  -0.335  23.126  0.00  0.00    +0.123 A 
ENDBRANCH  17  19
ENDBRANCH  12  14
ENDBRANCH   8  12
BRANCH   7  13
ATOM     13  C   UNL     1      -4.067   3.760  24.672  0.00  0.00    +0.099 C 
BRANCH  13  15
ATOM      2  O   UNL     1      -6.174   2.800  25.369  0.00  0.00    -0.276 OA
ATOM      5  N   UNL     1      -4.553   1.429  24.424  0.00  0.00    -0.311 N 
ATOM     15  C   UNL     1      -5.064   2.638  24.872  0.00  0.00    +0.214 C 
ATOM     32  H   UNL     1      -3.611   1.397  24.044  0.00  0.00    +0.149 HD
BRANCH   5  18
ATOM     18  C   UNL     1      -5.289   0.187  24.494  0.00  0.00    +0.139 C 
BRANCH  18  20
ATOM     20  C   UNL     1      -4.379  -0.999  24.627  0.00  0.00    -0.030 A 
ATOM     23  C   UNL     1      -3.474  -1.069  25.686  0.00  0.00    +0.005 A 
ATOM     24  C   UNL     1      -4.437  -2.032  23.691  0.00  0.00    +0.005 A 
ATOM     27  C   UNL     1      -2.629  -2.172  25.810  0.00  0.00    +0.000 A 
ATOM     28  C   UNL     1      -3.592  -3.134  23.814  0.00  0.00    +0.000 A 
ATOM     30  C   UNL     1      -2.688  -3.204  24.874  0.00  0.00    +0.000 A 
ENDBRANCH  18  20
ENDBRANCH   5  18
ENDBRANCH  13  15
ENDBRANCH   7  13
TORSDOF 7
ENDMDL
MODEL 2
REMARK VINA RESULT:      -2.4     18.685     19.904
REMARK  Name = 26742911
REMARK  7 active torsions:
REMARK  status: ('A' for Active; 'I' for Inactive)
REMARK    1  A    between atoms: N_5  and  C_18
REMARK    2  A    between atoms: C_7  and  C_13
REMARK    3  A    between atoms: C_8  and  C_12
REMARK    4  A    between atoms: C_12  and  C_14
REMARK    5  A    between atoms: C_13  and  C_15
REMARK    6  A    between atoms: C_17  and  C_19
REMARK    7  A    between atoms: C_18  and  C_20
REMARK                            x       y       z     vdW  Elec       q    Type
REMARK                         _______ _______ _______ _____ _____    ______ ____
ROOT
ATOM      4  N   UNL     1      17.136  -5.533  25.690  0.00  0.00    -0.316 NA
ATOM      7  C   UNL     1      15.570  -7.993  26.141  0.00  0.00    +0.004 C 
ATOM      8  C   UNL     1      15.531  -6.788  27.110  0.00  0.00    +0.012 C 
ATOM      9  C   UNL     1      15.980  -7.500  24.743  0.00  0.00    +0.019 C 
ATOM     10  C   UNL     1      16.833  -5.970  27.053  0.00  0.00    +0.085 C 
ATOM     11  C   UNL     1      17.259  -6.663  24.772  0.00  0.00    +0.081 C 
ATOM     31  H   UNL     1      18.008  -5.004  25.692  0.00  0.00    +0.122 HD
ENDROOT
BRANCH   8  12
ATOM     12  C   UNL     1      15.210  -7.187  28.551  0.00  0.00    +0.064 C 
BRANCH  12  14
ATOM      3  O   UNL     1      16.432  -5.304  31.367  0.00  0.00    -0.354 OA
ATOM      6  N   UNL     1      16.090  -6.496  30.739  0.00  0.00    -0.083 NA
ATOM     14  C   UNL     1      15.668  -6.138  29.524  0.00  0.00    +0.085 A 
ATOM     16  C   UNL     1      15.721  -4.747  29.328  0.00  0.00    +0.076 A 
ATOM     17  C   UNL     1      16.207  -4.270  30.517  0.00  0.00    +0.167 A 
BRANCH  17  19
ATOM      1  F   UNL     1      17.405   0.787  32.500  0.00  0.00    -0.205 F 
ATOM     19  C   UNL     1      16.516  -2.967  31.028  0.00  0.00    +0.020 A 
ATOM     21  C   UNL     1      16.269  -2.666  32.368  0.00  0.00    +0.014 A 
ATOM     22  C   UNL     1      17.065  -1.999  30.186  0.00  0.00    +0.014 A 
ATOM     25  C   UNL     1      16.570  -1.398  32.865  0.00  0.00    +0.039 A 
ATOM     26  C   UNL     1      17.365  -0.731  30.683  0.00  0.00    +0.039 A 
ATOM     29  C   UNL     1      17.117  -0.430  32.022  0.00  0.00    +0.123 A 
ENDBRANCH  17  19
ENDBRANCH  12  14
ENDBRANCH   8  12
BRANCH   7  13
ATOM     13  C   UNL     1      16.480  -9.137  26.605  0.00  0.00    +0.099 C 
BRANCH  13  15
ATOM      2  O   UNL     1      14.799 -10.710  27.346  0.00  0.00    -0.276 OA
ATOM      5  N   UNL     1      16.442 -10.013  28.833  0.00  0.00    -0.311 N 
ATOM     15  C   UNL     1      15.796 -10.043  27.606  0.00  0.00    +0.214 C 
ATOM     32  H   UNL     1      17.253  -9.411  28.953  0.00  0.00    +0.149 HD
BRANCH   5  18
ATOM     18  C   UNL     1      16.004 -10.781  29.975  0.00  0.00    +0.139 C 
BRANCH  18  20
ATOM     20  C   UNL     1      14.968 -10.051  30.780  0.00  0.00    -0.030 A 
ATOM     23  C   UNL     1      13.671  -9.913  30.286  0.00  0.00    +0.005 A 
ATOM     24  C   UNL     1      15.302  -9.512  32.022  0.00  0.00    +0.005 A 
ATOM     27  C   UNL     1      12.708  -9.235  31.034  0.00  0.00    +0.000 A 
ATOM     28  C   UNL     1      14.340  -8.833  32.770  0.00  0.00    +0.000 A 
ATOM     30  C   UNL     1      13.043  -8.695  32.276  0.00  0.00    +0.000 A 
ENDBRANCH  18  20
ENDBRANCH   5  18
ENDBRANCH  13  15
ENDBRANCH   7  13
TORSDOF 7
ENDMDL
MODEL 3
REMARK VINA RESULT:      -2.0      1.388      4.752
REMARK  Name = 26742911
REMARK  7 active torsions:
REMARK  status: ('A' for Active; 'I' for Inactive)
REMARK    1  A    between atoms: N_5  and  C_18
REMARK    2  A    between atoms: C_7  and  C_13
REMARK    3  A    between atoms: C_8  and  C_12
REMARK    4  A    between atoms: C_12  and  C_14
REMARK    5  A    between atoms: C_13  and  C_15
REMARK    6  A    between atoms: C_17  and  C_19
REMARK    7  A    between atoms: C_18  and  C_20
REMARK                            x       y       z     vdW  Elec       q    Type
REMARK                         _______ _______ _______ _____ _____    ______ ____
ROOT
ATOM      4  N   UNL     1      -2.144  -2.898  24.944  0.00  0.00    -0.316 NA
ATOM      7  C   UNL     1      -3.990  -0.946  23.723  0.00  0.00    +0.004 C 
ATOM      8  C   UNL     1      -2.460  -0.725  23.783  0.00  0.00    +0.012 C 
ATOM      9  C   UNL     1      -4.283  -2.454  23.789  0.00  0.00    +0.019 C 
ATOM     10  C   UNL     1      -1.824  -1.470  24.969  0.00  0.00    +0.085 C 
ATOM     11  C   UNL     1      -3.587  -3.132  24.969  0.00  0.00    +0.081 C 
ATOM     31  H   UNL     1      -1.714  -3.354  25.748  0.00  0.00    +0.122 HD
ENDROOT
BRANCH   8  12
ATOM     12  C   UNL     1      -2.067   0.753  23.804  0.00  0.00    +0.064 C 
BRANCH  12  14
ATOM      3  O   UNL     1       1.337   1.924  23.876  0.00  0.00    -0.354 OA
ATOM      6  N   UNL     1      -0.033   2.117  24.006  0.00  0.00    -0.083 NA
ATOM     14  C   UNL     1      -0.576   0.923  23.754  0.00  0.00    +0.085 A 
ATOM     16  C   UNL     1       0.392  -0.053  23.462  0.00  0.00    +0.076 A 
ATOM     17  C   UNL     1       1.578   0.628  23.551  0.00  0.00    +0.167 A 
BRANCH  17  19
ATOM      1  F   UNL     1       6.930  -0.740  22.901  0.00  0.00    -0.205 F 
ATOM     19  C   UNL     1       2.957   0.275  23.383  0.00  0.00    +0.020 A 
ATOM     21  C   UNL     1       3.402  -0.996  23.748  0.00  0.00    +0.014 A 
ATOM     22  C   UNL     1       3.855   1.203  22.854  0.00  0.00    +0.014 A 
ATOM     25  C   UNL     1       4.744  -1.339  23.586  0.00  0.00    +0.039 A 
ATOM     26  C   UNL     1       5.196   0.860  22.691  0.00  0.00    +0.039 A 
ATOM     29  C   UNL     1       5.641  -0.410  23.057  0.00  0.00    +0.123 A 
ENDBRANCH  17  19
ENDBRANCH  12  14
ENDBRANCH   8  12
BRANCH   7  13
ATOM     13  C   UNL     1      -4.772  -0.190  24.805  0.00  0.00    +0.099 C 
BRANCH  13  15
ATOM      2  O   UNL     1      -4.649   1.837  23.490  0.00  0.00    -0.276 OA
ATOM      5  N   UNL     1      -4.816   1.986  25.803  0.00  0.00    -0.311 N 
ATOM     15  C   UNL     1      -4.737   1.309  24.595  0.00  0.00    +0.214 C 
ATOM     32  H   UNL     1      -4.867   1.455  26.668  0.00  0.00    +0.149 HD
BRANCH   5  18
ATOM     18  C   UNL     1      -4.803   3.427  25.902  0.00  0.00    +0.139 C 
BRANCH  18  20
ATOM     20  C   UNL     1      -3.452   4.000  25.584  0.00  0.00    -0.030 A 
ATOM     23  C   UNL     1      -3.330   5.011  24.630  0.00  0.00    +0.005 A 
ATOM     24  C   UNL     1      -2.319   3.522  26.242  0.00  0.00    +0.005 A 
ATOM     27  C   UNL     1      -2.075   5.544  24.335  0.00  0.00    +0.000 A 
ATOM     28  C   UNL     1      -1.064   4.055  25.946  0.00  0.00    +0.000 A 
ATOM     30  C   UNL     1      -0.942   5.065  24.993  0.00  0.00    +0.000 A 
ENDBRANCH  18  20
ENDBRANCH   5  18
ENDBRANCH  13  15
ENDBRANCH   7  13
TORSDOF 7
ENDMDL
MODEL 4
REMARK VINA RESULT:      -1.3      2.027      3.367
REMARK  Name = 26742911
REMARK  7 active torsions:
REMARK  status: ('A' for Active; 'I' for Inactive)
REMARK    1  A    between atoms: N_5  and  C_18
REMARK    2  A    between atoms: C_7  and  C_13
REMARK    3  A    between atoms: C_8  and  C_12
REMARK    4  A    between atoms: C_12  and  C_14
REMARK    5  A    between atoms: C_13  and  C_15
REMARK    6  A    between atoms: C_17  and  C_19
REMARK    7  A    between atoms: C_18  and  C_20
REMARK                            x       y       z     vdW  Elec       q    Type
REMARK                         _______ _______ _______ _____ _____    ______ ____
ROOT
ATOM      4  N   UNL     1      -6.337   4.722  26.031  0.00  0.00    -0.316 NA
ATOM      7  C   UNL     1      -4.161   2.842  25.369  0.00  0.00    +0.004 C 
ATOM      8  C   UNL     1      -3.898   4.284  25.864  0.00  0.00    +0.012 C 
ATOM      9  C   UNL     1      -5.547   2.388  25.858  0.00  0.00    +0.019 C 
ATOM     10  C   UNL     1      -5.064   5.226  25.516  0.00  0.00    +0.085 C 
ATOM     11  C   UNL     1      -6.646   3.392  25.510  0.00  0.00    +0.081 C 
ATOM     31  H   UNL     1      -7.084   5.367  25.774  0.00  0.00    +0.122 HD
ENDROOT
BRANCH   8  12
ATOM     12  C   UNL     1      -2.574   4.859  25.360  0.00  0.00    +0.064 C 
BRANCH  12  14
ATOM      3  O   UNL     1      -0.224   2.155  25.728  0.00  0.00    -0.354 OA
ATOM      6  N   UNL     1      -1.176   3.035  26.231  0.00  0.00    -0.083 NA
ATOM     14  C   UNL     1      -1.542   3.782  25.186  0.00  0.00    +0.085 A 
ATOM     16  C   UNL     1      -0.861   3.424  24.009  0.00  0.00    +0.076 A 
ATOM     17  C   UNL     1      -0.045   2.397  24.404  0.00  0.00    +0.167 A 
BRANCH  17  19
ATOM      1  F   UNL     1       3.677  -0.847  21.843  0.00  0.00    -0.205 F 
ATOM     19  C   UNL     1       0.914   1.561  23.744  0.00  0.00    +0.020 A 
ATOM     21  C   UNL     1       0.522   0.328  23.222  0.00  0.00    +0.014 A 
ATOM     22  C   UNL     1       2.238   1.981  23.622  0.00  0.00    +0.014 A 
ATOM     25  C   UNL     1       1.456  -0.486  22.579  0.00  0.00    +0.039 A 
ATOM     26  C   UNL     1       3.172   1.167  22.980  0.00  0.00    +0.039 A 
ATOM     29  C   UNL     1       2.781  -0.066  22.459  0.00  0.00    +0.123 A 
ENDBRANCH  17  19
ENDBRANCH  12  14
ENDBRANCH   8  12
BRANCH   7  13
ATOM     13  C   UNL     1      -4.037   2.672  23.849  0.00  0.00    +0.099 C 
BRANCH  13  15
ATOM      2  O   UNL     1      -2.824   1.024  22.559  0.00  0.00    -0.276 OA
ATOM      5  N   UNL     1      -4.246   0.322  24.258  0.00  0.00    -0.311 N 
ATOM     15  C   UNL     1      -3.618   1.269  23.463  0.00  0.00    +0.214 C 
ATOM     32  H   UNL     1      -4.904   0.628  24.970  0.00  0.00    +0.149 HD
BRANCH   5  18
ATOM     18  C   UNL     1      -4.034  -1.099  24.109  0.00  0.00    +0.139 C 
BRANCH  18  20
ATOM     20  C   UNL     1      -2.692  -1.525  24.630  0.00  0.00    -0.030 A 
ATOM     23  C   UNL     1      -2.073  -2.664  24.115  0.00  0.00    +0.005 A 
ATOM     24  C   UNL     1      -2.062  -0.781  25.628  0.00  0.00    +0.005 A 
ATOM     27  C   UNL     1      -0.826  -3.060  24.598  0.00  0.00    +0.000 A 
ATOM     28  C   UNL     1      -0.815  -1.176  26.111  0.00  0.00    +0.000 A 
ATOM     30  C   UNL     1      -0.196  -2.316  25.596  0.00  0.00    +0.000 A 
ENDBRANCH  18  20
ENDBRANCH   5  18
ENDBRANCH  13  15
ENDBRANCH   7  13
TORSDOF 7
ENDMDL
MODEL 5
REMARK VINA RESULT:       0.3      3.067      5.098
REMARK  Name = 26742911
REMARK  7 active torsions:
REMARK  status: ('A' for Active; 'I' for Inactive)
REMARK    1  A    between atoms: N_5  and  C_18
REMARK    2  A    between atoms: C_7  and  C_13
REMARK    3  A    between atoms: C_8  and  C_12
REMARK    4  A    between atoms: C_12  and  C_14
REMARK    5  A    between atoms: C_13  and  C_15
REMARK    6  A    between atoms: C_17  and  C_19
REMARK    7  A    between atoms: C_18  and  C_20
REMARK                            x       y       z     vdW  Elec       q    Type
REMARK                         _______ _______ _______ _____ _____    ______ ____
ROOT
ATOM      4  N   UNL     1      -6.696   2.838  24.959  0.00  0.00    -0.316 NA
ATOM      7  C   UNL     1      -3.778   2.462  24.743  0.00  0.00    +0.004 C 
ATOM      8  C   UNL     1      -4.778   1.283  24.688  0.00  0.00    +0.012 C 
ATOM      9  C   UNL     1      -4.495   3.751  24.308  0.00  0.00    +0.019 C 
ATOM     10  C   UNL     1      -6.077   1.605  25.447  0.00  0.00    +0.085 C 
ATOM     11  C   UNL     1      -5.795   3.982  25.078  0.00  0.00    +0.081 C 
ATOM     31  H   UNL     1      -7.547   3.021  25.491  0.00  0.00    +0.122 HD
ENDROOT
BRANCH   8  12
ATOM     12  C   UNL     1      -4.180  -0.035  25.181  0.00  0.00    +0.064 C 
BRANCH  12  14
ATOM      3  O   UNL     1      -0.608  -0.445  25.370  0.00  0.00    -0.354 OA
ATOM      6  N   UNL     1      -1.886  -0.534  25.908  0.00  0.00    -0.083 NA
ATOM     14  C   UNL     1      -2.698  -0.084  24.947  0.00  0.00    +0.085 A 
ATOM     16  C   UNL     1      -1.995   0.299  23.792  0.00  0.00    +0.076 A 
ATOM     17  C   UNL     1      -0.686   0.053  24.110  0.00  0.00    +0.167 A 
BRANCH  17  19
ATOM      1  F   UNL     1       4.161   0.631  21.442  0.00  0.00    -0.205 F 
ATOM     19  C   UNL     1       0.563   0.202  23.422  0.00  0.00    +0.020 A 
ATOM     21  C   UNL     1       0.835  -0.573  22.295  0.00  0.00    +0.014 A 
ATOM     22  C   UNL     1       1.505   1.123  23.879  0.00  0.00    +0.014 A 
ATOM     25  C   UNL     1       2.051  -0.428  21.625  0.00  0.00    +0.039 A 
ATOM     26  C   UNL     1       2.721   1.268  23.211  0.00  0.00    +0.039 A 
ATOM     29  C   UNL     1       2.994   0.492  22.084  0.00  0.00    +0.123 A 
ENDBRANCH  17  19
ENDBRANCH  12  14
ENDBRANCH   8  12
BRANCH   7  13
ATOM     13  C   UNL     1      -3.105   2.646  26.110  0.00  0.00    +0.099 C 
BRANCH  13  15
ATOM      2  O   UNL     1      -1.592   4.452  25.562  0.00  0.00    -0.276 OA
ATOM      5  N   UNL     1      -0.740   2.479  26.445  0.00  0.00    -0.311 N 
ATOM     15  C   UNL     1      -1.752   3.315  25.996  0.00  0.00    +0.214 C 
ATOM     32  H   UNL     1      -0.976   1.545  26.770  0.00  0.00    +0.149 HD
BRANCH   5  18
ATOM     18  C   UNL     1       0.654   2.858  26.450  0.00  0.00    +0.139 C 
BRANCH  18  20
ATOM     20  C   UNL     1       1.272   2.710  27.810  0.00  0.00    -0.030 A 
ATOM     23  C   UNL     1       0.483   2.338  28.898  0.00  0.00    +0.005 A 
ATOM     24  C   UNL     1       2.635   2.945  27.985  0.00  0.00    +0.005 A 
ATOM     27  C   UNL     1       1.057   2.201  30.162  0.00  0.00    +0.000 A 
ATOM     28  C   UNL     1       3.210   2.808  29.249  0.00  0.00    +0.000 A 
ATOM     30  C   UNL     1       2.421   2.435  30.337  0.00  0.00    +0.000 A 
ENDBRANCH  18  20
ENDBRANCH   5  18
ENDBRANCH  13  15
ENDBRANCH   7  13
TORSDOF 7
ENDMDL
