MODEL 1
REMARK VINA RESULT:       1.6      0.000      0.000
REMARK  Name = 28962806
REMARK  12 active torsions:
REMARK  status: ('A' for Active; 'I' for Inactive)
REMARK    1  A    between atoms: O_2  and  C_10
REMARK    2  A    between atoms: N_5  and  C_14
REMARK    3  A    between atoms: N_6  and  C_24
REMARK    4  A    between atoms: N_6  and  C_25
REMARK    5  A    between atoms: C_7  and  C_17
REMARK    6  A    between atoms: C_9  and  C_19
REMARK    7  A    between atoms: C_12  and  C_18
REMARK    8  A    between atoms: C_18  and  C_20
REMARK    9  A    between atoms: C_18  and  C_21
REMARK   10  A    between atoms: C_22  and  C_23
REMARK   11  A    between atoms: C_24  and  C_26
REMARK   12  A    between atoms: C_25  and  C_27
REMARK                            x       y       z     vdW  Elec       q    Type
REMARK                         _______ _______ _______ _____ _____    ______ ____
ROOT
ATOM      7  C   UNL     1      -2.688  -1.021  24.957  0.00  0.00    -0.027 C 
ATOM      8  C   UNL     1      -2.157   0.263  24.235  0.00  0.00    +0.028 C 
ATOM      9  C   UNL     1      -0.592   0.358  24.344  0.00  0.00    +0.012 C 
ATOM     10  C   UNL     1      -2.936   1.530  24.691  0.00  0.00    +0.122 C 
ATOM     11  C   UNL     1      -4.213  -1.143  24.734  0.00  0.00    +0.007 C 
ATOM     12  C   UNL     1      -4.469   1.362  24.563  0.00  0.00    +0.029 C 
ATOM     13  C   UNL     1      -2.019  -2.265  24.328  0.00  0.00    +0.009 C 
ATOM     14  C   UNL     1       0.066  -0.932  23.778  0.00  0.00    +0.076 C 
ATOM     15  C   UNL     1      -4.985   0.079  25.214  0.00  0.00    +0.007 C 
ATOM     16  C   UNL     1      -0.498  -2.217  24.381  0.00  0.00    +0.023 C 
ATOM     17  C   UNL     1      -2.407  -1.005  26.480  0.00  0.00    +0.011 C 
ATOM     19  C   UNL     1       0.002   1.584  23.630  0.00  0.00    +0.010 C 
ENDROOT
BRANCH  14   5
ATOM      4  O   UNL     1       2.040   0.011  21.918  0.00  0.00    -0.270 OA
ATOM      5  N   UNL     1       1.501  -0.928  23.968  0.00  0.00    -0.308 N 
ATOM     22  C   UNL     1       2.375  -0.450  23.006  0.00  0.00    +0.244 C 
ATOM     33  H   UNL     1       1.856  -1.400  24.794  0.00  0.00    +0.149 HD
BRANCH  22  23
ATOM      1  F   UNL     1       6.709   1.634  23.729  0.00  0.00    -0.205 F 
ATOM     23  C   UNL     1       3.819  -0.541  23.343  0.00  0.00    +0.039 A 
ATOM     28  C   UNL     1       4.602   0.612  23.378  0.00  0.00    +0.051 A 
ATOM     29  C   UNL     1       4.392  -1.782  23.623  0.00  0.00    +0.013 A 
ATOM     30  C   UNL     1       5.957   0.527  23.694  0.00  0.00    +0.124 A 
ATOM     31  C   UNL     1       5.748  -1.868  23.939  0.00  0.00    +0.004 A 
ATOM     32  C   UNL     1       6.531  -0.714  23.975  0.00  0.00    +0.038 A 
ENDBRANCH  22  23
ENDBRANCH  14   5
BRANCH  10   2
ATOM      2  O   UNL     1      -2.576   2.636  23.862  0.00  0.00    -0.391 OA
ATOM     34  H   UNL     1      -3.028   3.427  24.202  0.00  0.00    +0.210 HD
ENDBRANCH  10   2
BRANCH  12  18
ATOM     18  C   UNL     1      -5.222   2.568  25.139  0.00  0.00    +0.078 C 
ATOM     20  C   UNL     1      -6.654   2.580  24.601  0.00  0.00    +0.017 C 
BRANCH  18  21
ATOM      3  O   UNL     1      -4.705   4.395  23.679  0.00  0.00    -0.275 OA
ATOM      6  N   UNL     1      -3.572   4.375  25.698  0.00  0.00    -0.302 N 
ATOM     21  C   UNL     1      -4.487   3.861  24.773  0.00  0.00    +0.219 C 
BRANCH   6  24
ATOM     24  C   UNL     1      -2.839   5.594  25.371  0.00  0.00    +0.104 C 
ATOM     26  C   UNL     1      -1.395   5.295  25.023  0.00  0.00    +0.024 C 
ENDBRANCH   6  24
BRANCH   6  25
ATOM     25  C   UNL     1      -3.283   3.826  27.021  0.00  0.00    +0.104 C 
ATOM     27  C   UNL     1      -1.887   3.244  27.087  0.00  0.00    +0.024 C 
ENDBRANCH   6  25
ENDBRANCH  18  21
ENDBRANCH  12  18
TORSDOF 7
ENDMDL
MODEL 2
REMARK VINA RESULT:       3.6      0.858      1.283
REMARK  Name = 28962806
REMARK  12 active torsions:
REMARK  status: ('A' for Active; 'I' for Inactive)
REMARK    1  A    between atoms: O_2  and  C_10
REMARK    2  A    between atoms: N_5  and  C_14
REMARK    3  A    between atoms: N_6  and  C_24
REMARK    4  A    between atoms: N_6  and  C_25
REMARK    5  A    between atoms: C_7  and  C_17
REMARK    6  A    between atoms: C_9  and  C_19
REMARK    7  A    between atoms: C_12  and  C_18
REMARK    8  A    between atoms: C_18  and  C_20
REMARK    9  A    between atoms: C_18  and  C_21
REMARK   10  A    between atoms: C_22  and  C_23
REMARK   11  A    between atoms: C_24  and  C_26
REMARK   12  A    between atoms: C_25  and  C_27
REMARK                            x       y       z     vdW  Elec       q    Type
REMARK                         _______ _______ _______ _____ _____    ______ ____
ROOT
ATOM      7  C   UNL     1      -2.847  -0.868  24.785  0.00  0.00    -0.027 C 
ATOM      8  C   UNL     1      -2.303   0.319  23.922  0.00  0.00    +0.028 C 
ATOM      9  C   UNL     1      -0.744   0.451  24.071  0.00  0.00    +0.012 C 
ATOM     10  C   UNL     1      -3.111   1.622  24.181  0.00  0.00    +0.122 C 
ATOM     11  C   UNL     1      -4.362  -1.041  24.528  0.00  0.00    +0.007 C 
ATOM     12  C   UNL     1      -4.636   1.418  24.024  0.00  0.00    +0.029 C 
ATOM     13  C   UNL     1      -2.143  -2.174  24.347  0.00  0.00    +0.009 C 
ATOM     14  C   UNL     1      -0.053  -0.892  23.700  0.00  0.00    +0.076 C 
ATOM     15  C   UNL     1      -5.162   0.222  24.818  0.00  0.00    +0.007 C 
ATOM     16  C   UNL     1      -0.626  -2.097  24.445  0.00  0.00    +0.023 C 
ATOM     17  C   UNL     1      -2.620  -0.651  26.302  0.00  0.00    +0.011 C 
ATOM     19  C   UNL     1      -0.138   1.582  23.224  0.00  0.00    +0.010 C 
ENDROOT
BRANCH  14   5
ATOM      4  O   UNL     1       1.982  -0.236  21.783  0.00  0.00    -0.270 OA
ATOM      5  N   UNL     1       1.374  -0.843  23.937  0.00  0.00    -0.308 N 
ATOM     22  C   UNL     1       2.279  -0.515  22.942  0.00  0.00    +0.244 C 
ATOM     33  H   UNL     1       1.701  -1.174  24.840  0.00  0.00    +0.149 HD
BRANCH  22  23
ATOM      1  F   UNL     1       6.489   1.771  23.785  0.00  0.00    -0.205 F 
ATOM     23  C   UNL     1       3.711  -0.536  23.340  0.00  0.00    +0.039 A 
ATOM     28  C   UNL     1       4.443   0.651  23.376  0.00  0.00    +0.051 A 
ATOM     29  C   UNL     1       4.323  -1.743  23.675  0.00  0.00    +0.013 A 
ATOM     30  C   UNL     1       5.786   0.632  23.749  0.00  0.00    +0.124 A 
ATOM     31  C   UNL     1       5.668  -1.763  24.048  0.00  0.00    +0.004 A 
ATOM     32  C   UNL     1       6.399  -0.576  24.086  0.00  0.00    +0.038 A 
ENDBRANCH  22  23
ENDBRANCH  14   5
BRANCH  10   2
ATOM      2  O   UNL     1      -2.733   2.617  23.229  0.00  0.00    -0.391 OA
ATOM     34  H   UNL     1      -2.891   2.259  22.339  0.00  0.00    +0.210 HD
ENDBRANCH  10   2
BRANCH  12  18
ATOM     18  C   UNL     1      -5.422   2.676  24.412  0.00  0.00    +0.078 C 
ATOM     20  C   UNL     1      -5.153   3.781  23.389  0.00  0.00    +0.017 C 
BRANCH  18  21
ATOM      3  O   UNL     1      -5.638   2.682  26.797  0.00  0.00    -0.275 OA
ATOM      6  N   UNL     1      -3.971   4.040  25.940  0.00  0.00    -0.302 N 
ATOM     21  C   UNL     1      -5.021   3.123  25.821  0.00  0.00    +0.219 C 
BRANCH   6  24
ATOM     24  C   UNL     1      -3.579   4.503  27.267  0.00  0.00    +0.104 C 
ATOM     26  C   UNL     1      -2.487   3.634  27.857  0.00  0.00    +0.024 C 
ENDBRANCH   6  24
BRANCH   6  25
ATOM     25  C   UNL     1      -3.171   4.581  24.844  0.00  0.00    +0.104 C 
ATOM     27  C   UNL     1      -1.765   4.917  25.296  0.00  0.00    +0.024 C 
ENDBRANCH   6  25
ENDBRANCH  18  21
ENDBRANCH  12  18
TORSDOF 7
ENDMDL
MODEL 3
REMARK VINA RESULT:       5.4      1.191      1.560
REMARK  Name = 28962806
REMARK  12 active torsions:
REMARK  status: ('A' for Active; 'I' for Inactive)
REMARK    1  A    between atoms: O_2  and  C_10
REMARK    2  A    between atoms: N_5  and  C_14
REMARK    3  A    between atoms: N_6  and  C_24
REMARK    4  A    between atoms: N_6  and  C_25
REMARK    5  A    between atoms: C_7  and  C_17
REMARK    6  A    between atoms: C_9  and  C_19
REMARK    7  A    between atoms: C_12  and  C_18
REMARK    8  A    between atoms: C_18  and  C_20
REMARK    9  A    between atoms: C_18  and  C_21
REMARK   10  A    between atoms: C_22  and  C_23
REMARK   11  A    between atoms: C_24  and  C_26
REMARK   12  A    between atoms: C_25  and  C_27
REMARK                            x       y       z     vdW  Elec       q    Type
REMARK                         _______ _______ _______ _____ _____    ______ ____
ROOT
ATOM      7  C   UNL     1      -2.744  -1.271  24.998  0.00  0.00    -0.027 C 
ATOM      8  C   UNL     1      -2.325   0.163  24.529  0.00  0.00    +0.028 C 
ATOM      9  C   UNL     1      -0.765   0.339  24.594  0.00  0.00    +0.012 C 
ATOM     10  C   UNL     1      -3.151   1.260  25.261  0.00  0.00    +0.122 C 
ATOM     11  C   UNL     1      -4.269  -1.448  24.815  0.00  0.00    +0.007 C 
ATOM     12  C   UNL     1      -4.676   1.019  25.163  0.00  0.00    +0.029 C 
ATOM     13  C   UNL     1      -2.038  -2.319  24.106  0.00  0.00    +0.009 C 
ATOM     14  C   UNL     1      -0.064  -0.767  23.754  0.00  0.00    +0.076 C 
ATOM     15  C   UNL     1      -5.083  -0.399  25.562  0.00  0.00    +0.007 C 
ATOM     16  C   UNL     1      -0.522  -2.180  24.107  0.00  0.00    +0.023 C 
ATOM     17  C   UNL     1      -2.385  -1.539  26.481  0.00  0.00    +0.011 C 
ATOM     19  C   UNL     1      -0.281   1.719  24.118  0.00  0.00    +0.010 C 
ENDROOT
BRANCH  14   5
ATOM      4  O   UNL     1       1.809   0.025  21.726  0.00  0.00    -0.270 OA
ATOM      5  N   UNL     1       1.376  -0.705  23.884  0.00  0.00    -0.308 N 
ATOM     22  C   UNL     1       2.198  -0.309  22.842  0.00  0.00    +0.244 C 
ATOM     33  H   UNL     1       1.776  -1.078  24.740  0.00  0.00    +0.149 HD
BRANCH  22  23
ATOM      1  F   UNL     1       6.202  -2.609  24.369  0.00  0.00    -0.205 F 
ATOM     23  C   UNL     1       3.655  -0.326  23.128  0.00  0.00    +0.039 A 
ATOM     28  C   UNL     1       4.256  -1.482  23.624  0.00  0.00    +0.051 A 
ATOM     29  C   UNL     1       4.424   0.816  22.900  0.00  0.00    +0.013 A 
ATOM     30  C   UNL     1       5.624  -1.499  23.893  0.00  0.00    +0.124 A 
ATOM     31  C   UNL     1       5.793   0.800  23.169  0.00  0.00    +0.004 A 
ATOM     32  C   UNL     1       6.393  -0.357  23.664  0.00  0.00    +0.038 A 
ENDBRANCH  22  23
ENDBRANCH  14   5
BRANCH  10   2
ATOM      2  O   UNL     1      -2.899   2.529  24.658  0.00  0.00    -0.391 OA
ATOM     34  H   UNL     1      -2.298   2.393  23.905  0.00  0.00    +0.210 HD
ENDBRANCH  10   2
BRANCH  12  18
ATOM     18  C   UNL     1      -5.466   2.034  25.999  0.00  0.00    +0.078 C 
ATOM     20  C   UNL     1      -6.837   1.451  26.346  0.00  0.00    +0.017 C 
BRANCH  18  21
ATOM      3  O   UNL     1      -6.528   3.474  24.407  0.00  0.00    -0.275 OA
ATOM      6  N   UNL     1      -4.661   4.349  25.458  0.00  0.00    -0.302 N 
ATOM     21  C   UNL     1      -5.608   3.346  25.222  0.00  0.00    +0.219 C 
BRANCH   6  24
ATOM     24  C   UNL     1      -4.754   5.604  24.719  0.00  0.00    +0.104 C 
ATOM     26  C   UNL     1      -4.005   5.529  23.404  0.00  0.00    +0.024 C 
ENDBRANCH   6  24
BRANCH   6  25
ATOM     25  C   UNL     1      -3.568   4.290  26.427  0.00  0.00    +0.104 C 
ATOM     27  C   UNL     1      -2.274   4.808  25.834  0.00  0.00    +0.024 C 
ENDBRANCH   6  25
ENDBRANCH  18  21
ENDBRANCH  12  18
TORSDOF 7
ENDMDL
