MODEL 1
REMARK VINA RESULT:       0.1      0.000      0.000
REMARK  Name = 45361508
REMARK  14 active torsions:
REMARK  status: ('A' for Active; 'I' for Inactive)
REMARK    1  A    between atoms: O_1  and  C_11
REMARK    2  A    between atoms: O_4  and  C_24
REMARK    3  A    between atoms: O_4  and  C_27
REMARK    4  A    between atoms: O_5  and  C_32
REMARK    5  A    between atoms: O_5  and  C_33
REMARK    6  A    between atoms: N_6  and  C_15
REMARK    7  A    between atoms: N_7  and  C_25
REMARK    8  A    between atoms: C_8  and  C_18
REMARK    9  A    between atoms: C_10  and  C_20
REMARK   10  A    between atoms: C_14  and  C_19
REMARK   11  A    between atoms: C_19  and  C_21
REMARK   12  A    between atoms: C_19  and  C_22
REMARK   13  A    between atoms: C_23  and  C_24
REMARK   14  A    between atoms: C_25  and  C_26
REMARK                            x       y       z     vdW  Elec       q    Type
REMARK                         _______ _______ _______ _____ _____    ______ ____
ROOT
ATOM      8  C   UNL     1      -2.212  -0.978  25.207  0.00  0.00    -0.027 C 
ATOM      9  C   UNL     1      -2.295   0.182  24.160  0.00  0.00    +0.028 C 
ATOM     10  C   UNL     1      -0.878   0.810  23.906  0.00  0.00    +0.012 C 
ATOM     11  C   UNL     1      -3.419   1.193  24.528  0.00  0.00    +0.122 C 
ATOM     12  C   UNL     1      -3.599  -1.647  25.349  0.00  0.00    +0.007 C 
ATOM     13  C   UNL     1      -1.223  -2.050  24.694  0.00  0.00    +0.009 C 
ATOM     14  C   UNL     1      -4.783   0.506  24.771  0.00  0.00    +0.029 C 
ATOM     15  C   UNL     1       0.126  -0.291  23.463  0.00  0.00    +0.076 C 
ATOM     16  C   UNL     1      -4.694  -0.666  25.748  0.00  0.00    +0.007 C 
ATOM     17  C   UNL     1       0.164  -1.494  24.405  0.00  0.00    +0.023 C 
ATOM     18  C   UNL     1      -1.752  -0.486  26.603  0.00  0.00    +0.011 C 
ATOM     20  C   UNL     1      -0.884   1.940  22.863  0.00  0.00    +0.010 C 
ENDROOT
BRANCH  15   6
ATOM      3  O   UNL     1       1.852  -0.467  21.148  0.00  0.00    -0.273 OA
ATOM      6  N   UNL     1       1.471   0.231  23.333  0.00  0.00    -0.310 N 
ATOM     23  C   UNL     1       2.219   0.095  22.177  0.00  0.00    +0.239 C 
ATOM     34  H   UNL     1       1.897   0.660  24.150  0.00  0.00    +0.149 HD
BRANCH  23  24
ATOM     24  C   UNL     1       3.584   0.734  22.318  0.00  0.00    +0.255 C 
BRANCH  24   4
ATOM      4  O   UNL     1       4.109   0.509  23.608  0.00  0.00    -0.374 OA
ATOM     27  C   UNL     1       5.427  -0.030  23.558  0.00  0.00    +0.194 C 
ENDBRANCH  24   4
ENDBRANCH  23  24
ENDBRANCH  15   6
BRANCH  11   1
ATOM      1  O   UNL     1      -3.609   2.108  23.449  0.00  0.00    -0.391 OA
ATOM     35  H   UNL     1      -4.483   2.524  23.554  0.00  0.00    +0.210 HD
ENDBRANCH  11   1
BRANCH  14  19
ATOM     19  C   UNL     1      -5.843   1.501  25.259  0.00  0.00    +0.077 C 
ATOM     21  C   UNL     1      -6.977   1.597  24.244  0.00  0.00    +0.017 C 
BRANCH  19  22
ATOM      2  O   UNL     1      -5.427   3.843  24.800  0.00  0.00    -0.276 OA
ATOM      7  N   UNL     1      -4.353   2.858  26.604  0.00  0.00    -0.311 N 
ATOM     22  C   UNL     1      -5.202   2.863  25.508  0.00  0.00    +0.216 C 
ATOM     36  H   UNL     1      -4.261   2.021  27.170  0.00  0.00    +0.149 HD
BRANCH   7  25
ATOM     25  C   UNL     1      -3.630   4.031  27.038  0.00  0.00    +0.139 C 
BRANCH  25  26
ATOM     26  C   UNL     1      -2.449   4.321  26.156  0.00  0.00    -0.030 A 
ATOM     28  C   UNL     1      -1.348   3.465  26.159  0.00  0.00    +0.009 A 
ATOM     29  C   UNL     1      -2.455   5.446  25.331  0.00  0.00    +0.009 A 
ATOM     30  C   UNL     1      -0.252   3.735  25.340  0.00  0.00    +0.046 A 
ATOM     31  C   UNL     1      -1.360   5.717  24.512  0.00  0.00    +0.046 A 
ATOM     32  C   UNL     1      -0.258   4.861  24.516  0.00  0.00    +0.120 A 
BRANCH  32   5
ATOM      5  O   UNL     1       0.811   5.123  23.715  0.00  0.00    -0.495 OA
ATOM     33  C   UNL     1       0.541   5.411  22.344  0.00  0.00    +0.277 C 
ENDBRANCH  32   5
ENDBRANCH  25  26
ENDBRANCH   7  25
ENDBRANCH  19  22
ENDBRANCH  14  19
TORSDOF 9
ENDMDL
MODEL 2
REMARK VINA RESULT:       0.7      1.171      1.735
REMARK  Name = 45361508
REMARK  14 active torsions:
REMARK  status: ('A' for Active; 'I' for Inactive)
REMARK    1  A    between atoms: O_1  and  C_11
REMARK    2  A    between atoms: O_4  and  C_24
REMARK    3  A    between atoms: O_4  and  C_27
REMARK    4  A    between atoms: O_5  and  C_32
REMARK    5  A    between atoms: O_5  and  C_33
REMARK    6  A    between atoms: N_6  and  C_15
REMARK    7  A    between atoms: N_7  and  C_25
REMARK    8  A    between atoms: C_8  and  C_18
REMARK    9  A    between atoms: C_10  and  C_20
REMARK   10  A    between atoms: C_14  and  C_19
REMARK   11  A    between atoms: C_19  and  C_21
REMARK   12  A    between atoms: C_19  and  C_22
REMARK   13  A    between atoms: C_23  and  C_24
REMARK   14  A    between atoms: C_25  and  C_26
REMARK                            x       y       z     vdW  Elec       q    Type
REMARK                         _______ _______ _______ _____ _____    ______ ____
ROOT
ATOM      8  C   UNL     1      -2.472  -1.205  24.999  0.00  0.00    -0.027 C 
ATOM      9  C   UNL     1      -2.496   0.011  24.015  0.00  0.00    +0.028 C 
ATOM     10  C   UNL     1      -1.068   0.650  23.879  0.00  0.00    +0.012 C 
ATOM     11  C   UNL     1      -3.641   1.002  24.372  0.00  0.00    +0.122 C 
ATOM     12  C   UNL     1      -3.864  -1.878  25.023  0.00  0.00    +0.007 C 
ATOM     13  C   UNL     1      -1.453  -2.249  24.487  0.00  0.00    +0.009 C 
ATOM     14  C   UNL     1      -5.015   0.305  24.496  0.00  0.00    +0.029 C 
ATOM     15  C   UNL     1      -0.037  -0.426  23.436  0.00  0.00    +0.076 C 
ATOM     16  C   UNL     1      -4.982  -0.919  25.410  0.00  0.00    +0.007 C 
ATOM     17  C   UNL     1      -0.053  -1.680  24.310  0.00  0.00    +0.023 C 
ATOM     18  C   UNL     1      -2.096  -0.791  26.445  0.00  0.00    +0.011 C 
ATOM     20  C   UNL     1      -1.014   1.836  22.902  0.00  0.00    +0.010 C 
ENDROOT
BRANCH  15   6
ATOM      3  O   UNL     1       1.798  -0.416  21.199  0.00  0.00    -0.273 OA
ATOM      6  N   UNL     1       1.312   0.100  23.414  0.00  0.00    -0.310 N 
ATOM     23  C   UNL     1       2.115   0.058  22.287  0.00  0.00    +0.239 C 
ATOM     34  H   UNL     1       1.699   0.458  24.283  0.00  0.00    +0.149 HD
BRANCH  23  24
ATOM     24  C   UNL     1       3.471   0.678  22.545  0.00  0.00    +0.255 C 
BRANCH  24   4
ATOM      4  O   UNL     1       4.350  -0.266  23.117  0.00  0.00    -0.374 OA
ATOM     27  C   UNL     1       5.430   0.362  23.804  0.00  0.00    +0.194 C 
ENDBRANCH  24   4
ENDBRANCH  23  24
ENDBRANCH  15   6
BRANCH  11   1
ATOM      1  O   UNL     1      -3.769   1.976  23.335  0.00  0.00    -0.391 OA
ATOM     35  H   UNL     1      -3.861   2.851  23.752  0.00  0.00    +0.210 HD
ENDBRANCH  11   1
BRANCH  14  19
ATOM     19  C   UNL     1      -6.104   1.273  24.975  0.00  0.00    +0.077 C 
ATOM     21  C   UNL     1      -6.961   1.723  23.797  0.00  0.00    +0.017 C 
BRANCH  19  22
ATOM      2  O   UNL     1      -5.669   2.719  26.869  0.00  0.00    -0.276 OA
ATOM      7  N   UNL     1      -4.649   3.207  24.845  0.00  0.00    -0.311 N 
ATOM     22  C   UNL     1      -5.466   2.464  25.685  0.00  0.00    +0.216 C 
ATOM     36  H   UNL     1      -4.491   2.901  23.890  0.00  0.00    +0.149 HD
BRANCH   7  25
ATOM     25  C   UNL     1      -3.937   4.383  25.287  0.00  0.00    +0.139 C 
BRANCH  25  26
ATOM     26  C   UNL     1      -2.511   4.074  25.646  0.00  0.00    -0.030 A 
ATOM     28  C   UNL     1      -1.472   4.797  25.063  0.00  0.00    +0.009 A 
ATOM     29  C   UNL     1      -2.228   3.064  26.566  0.00  0.00    +0.009 A 
ATOM     30  C   UNL     1      -0.148   4.510  25.397  0.00  0.00    +0.046 A 
ATOM     31  C   UNL     1      -0.906   2.775  26.900  0.00  0.00    +0.046 A 
ATOM     32  C   UNL     1       0.135   3.499  26.316  0.00  0.00    +0.120 A 
BRANCH  32   5
ATOM      5  O   UNL     1       1.426   3.220  26.643  0.00  0.00    -0.495 OA
ATOM     33  C   UNL     1       1.680   2.798  27.983  0.00  0.00    +0.277 C 
ENDBRANCH  32   5
ENDBRANCH  25  26
ENDBRANCH   7  25
ENDBRANCH  19  22
ENDBRANCH  14  19
TORSDOF 9
ENDMDL
MODEL 3
REMARK VINA RESULT:       3.3      1.930      4.436
REMARK  Name = 45361508
REMARK  14 active torsions:
REMARK  status: ('A' for Active; 'I' for Inactive)
REMARK    1  A    between atoms: O_1  and  C_11
REMARK    2  A    between atoms: O_4  and  C_24
REMARK    3  A    between atoms: O_4  and  C_27
REMARK    4  A    between atoms: O_5  and  C_32
REMARK    5  A    between atoms: O_5  and  C_33
REMARK    6  A    between atoms: N_6  and  C_15
REMARK    7  A    between atoms: N_7  and  C_25
REMARK    8  A    between atoms: C_8  and  C_18
REMARK    9  A    between atoms: C_10  and  C_20
REMARK   10  A    between atoms: C_14  and  C_19
REMARK   11  A    between atoms: C_19  and  C_21
REMARK   12  A    between atoms: C_19  and  C_22
REMARK   13  A    between atoms: C_23  and  C_24
REMARK   14  A    between atoms: C_25  and  C_26
REMARK                            x       y       z     vdW  Elec       q    Type
REMARK                         _______ _______ _______ _____ _____    ______ ____
ROOT
ATOM      8  C   UNL     1      -2.207   1.821  22.567  0.00  0.00    -0.027 C 
ATOM      9  C   UNL     1      -1.550   2.420  23.855  0.00  0.00    +0.028 C 
ATOM     10  C   UNL     1      -0.416   1.478  24.394  0.00  0.00    +0.012 C 
ATOM     11  C   UNL     1      -2.628   2.835  24.898  0.00  0.00    +0.122 C 
ATOM     12  C   UNL     1      -3.239   2.824  22.000  0.00  0.00    +0.007 C 
ATOM     13  C   UNL     1      -1.115   1.611  21.494  0.00  0.00    +0.009 C 
ATOM     14  C   UNL     1      -3.715   3.755  24.297  0.00  0.00    +0.029 C 
ATOM     15  C   UNL     1       0.638   1.213  23.283  0.00  0.00    +0.076 C 
ATOM     16  C   UNL     1      -4.318   3.202  23.006  0.00  0.00    +0.007 C 
ATOM     17  C   UNL     1       0.027   0.725  21.970  0.00  0.00    +0.023 C 
ATOM     18  C   UNL     1      -2.923   0.473  22.839  0.00  0.00    +0.011 C 
ATOM     20  C   UNL     1       0.294   2.022  25.645  0.00  0.00    +0.010 C 
ENDROOT
BRANCH  15   6
ATOM      3  O   UNL     1       3.087   0.516  21.909  0.00  0.00    -0.273 OA
ATOM      6  N   UNL     1       1.637   0.254  23.708  0.00  0.00    -0.310 N 
ATOM     23  C   UNL     1       2.782  -0.010  22.976  0.00  0.00    +0.239 C 
ATOM     34  H   UNL     1       1.452  -0.287  24.548  0.00  0.00    +0.149 HD
BRANCH  23  24
ATOM     24  C   UNL     1       3.648  -1.051  23.652  0.00  0.00    +0.255 C 
BRANCH  24   4
ATOM      4  O   UNL     1       5.016  -0.775  23.440  0.00  0.00    -0.374 OA
ATOM     27  C   UNL     1       5.466   0.322  24.231  0.00  0.00    +0.194 C 
ENDBRANCH  24   4
ENDBRANCH  23  24
ENDBRANCH  15   6
BRANCH  11   1
ATOM      1  O   UNL     1      -2.010   3.569  25.956  0.00  0.00    -0.391 OA
ATOM     35  H   UNL     1      -2.683   3.741  26.637  0.00  0.00    +0.210 HD
ENDBRANCH  11   1
BRANCH  14  19
ATOM     19  C   UNL     1      -4.836   4.045  25.303  0.00  0.00    +0.077 C 
ATOM     21  C   UNL     1      -4.332   4.986  26.392  0.00  0.00    +0.017 C 
BRANCH  19  22
ATOM      2  O   UNL     1      -6.069   2.698  26.894  0.00  0.00    -0.276 OA
ATOM      7  N   UNL     1      -4.928   1.626  25.183  0.00  0.00    -0.311 N 
ATOM     22  C   UNL     1      -5.355   2.738  25.895  0.00  0.00    +0.216 C 
ATOM     36  H   UNL     1      -4.382   1.746  24.336  0.00  0.00    +0.149 HD
BRANCH   7  25
ATOM     25  C   UNL     1      -5.288   0.277  25.551  0.00  0.00    +0.139 C 
BRANCH  25  26
ATOM     26  C   UNL     1      -4.132  -0.671  25.412  0.00  0.00    -0.030 A 
ATOM     28  C   UNL     1      -4.240  -1.787  24.583  0.00  0.00    +0.009 A 
ATOM     29  C   UNL     1      -2.948  -0.433  26.110  0.00  0.00    +0.009 A 
ATOM     30  C   UNL     1      -3.166  -2.667  24.454  0.00  0.00    +0.046 A 
ATOM     31  C   UNL     1      -1.874  -1.313  25.982  0.00  0.00    +0.046 A 
ATOM     32  C   UNL     1      -1.982  -2.430  25.154  0.00  0.00    +0.120 A 
BRANCH  32   5
ATOM      5  O   UNL     1      -0.934  -3.288  25.026  0.00  0.00    -0.495 OA
ATOM     33  C   UNL     1       0.355  -2.799  25.395  0.00  0.00    +0.277 C 
ENDBRANCH  32   5
ENDBRANCH  25  26
ENDBRANCH   7  25
ENDBRANCH  19  22
ENDBRANCH  14  19
TORSDOF 9
ENDMDL
