MODEL 1
REMARK VINA RESULT:       1.8      0.000      0.000
REMARK  Name = 75536385
REMARK  9 active torsions:
REMARK  status: ('A' for Active; 'I' for Inactive)
REMARK    1  A    between atoms: O_2  and  C_10
REMARK    2  A    between atoms: O_5  and  C_29
REMARK    3  A    between atoms: O_5  and  C_31
REMARK    4  A    between atoms: N_6  and  C_14
REMARK    5  A    between atoms: C_8  and  C_13
REMARK    6  A    between atoms: C_9  and  C_14
REMARK    7  A    between atoms: C_13  and  C_15
REMARK    8  A    between atoms: C_17  and  C_19
REMARK    9  A    between atoms: C_18  and  C_20
REMARK                            x       y       z     vdW  Elec       q    Type
REMARK                         _______ _______ _______ _____ _____    ______ ____
ROOT
ATOM      1  O   UNL     1      -4.119   3.037  26.303  0.00  0.00    -0.369 OA
ATOM      8  C   UNL     1      -3.386   3.144  25.081  0.00  0.00    +0.125 C 
ATOM      9  C   UNL     1      -5.512   2.733  26.156  0.00  0.00    +0.164 C 
ATOM     10  C   UNL     1      -6.211   3.751  25.245  0.00  0.00    +0.145 C 
ATOM     11  C   UNL     1      -3.980   4.233  24.189  0.00  0.00    +0.034 C 
ATOM     12  C   UNL     1      -5.462   3.969  23.934  0.00  0.00    +0.036 C 
ENDROOT
BRANCH  10   2
ATOM      2  O   UNL     1      -6.279   5.008  25.924  0.00  0.00    -0.389 OA
ATOM     32  H   UNL     1      -6.502   4.827  26.853  0.00  0.00    +0.210 HD
ENDBRANCH  10   2
BRANCH   8  13
ATOM     13  C   UNL     1      -1.940   3.465  25.439  0.00  0.00    +0.090 C 
BRANCH  13  15
ATOM      3  O   UNL     1      -0.276   1.183  23.199  0.00  0.00    -0.354 OA
ATOM      7  N   UNL     1      -1.407   1.840  23.670  0.00  0.00    -0.083 NA
ATOM     15  C   UNL     1      -0.972   2.600  24.679  0.00  0.00    +0.087 A 
ATOM     16  C   UNL     1       0.411   2.466  24.889  0.00  0.00    +0.076 A 
ATOM     18  C   UNL     1       0.801   1.566  23.933  0.00  0.00    +0.167 A 
BRANCH  18  20
ATOM     20  C   UNL     1       2.050   0.969  23.561  0.00  0.00    +0.020 A 
ATOM     21  C   UNL     1       2.203  -0.417  23.611  0.00  0.00    +0.015 A 
ATOM     22  C   UNL     1       3.113   1.774  23.150  0.00  0.00    +0.015 A 
ATOM     25  C   UNL     1       3.420  -0.996  23.249  0.00  0.00    +0.046 A 
ATOM     26  C   UNL     1       4.328   1.193  22.788  0.00  0.00    +0.046 A 
ATOM     29  C   UNL     1       4.482  -0.192  22.837  0.00  0.00    +0.120 A 
BRANCH  29   5
ATOM      5  O   UNL     1       5.669  -0.759  22.487  0.00  0.00    -0.495 OA
ATOM     31  C   UNL     1       6.828  -0.331  23.199  0.00  0.00    +0.277 C 
ENDBRANCH  29   5
ENDBRANCH  18  20
ENDBRANCH  13  15
ENDBRANCH   8  13
BRANCH   9  14
ATOM     14  C   UNL     1      -5.715   1.289  25.702  0.00  0.00    +0.138 C 
BRANCH  14   6
ATOM      4  O   UNL     1      -5.061  -0.962  24.044  0.00  0.00    -0.270 OA
ATOM      6  N   UNL     1      -4.472   0.580  25.676  0.00  0.00    -0.309 N 
ATOM     17  C   UNL     1      -4.239  -0.507  24.834  0.00  0.00    +0.244 C 
ATOM     33  H   UNL     1      -3.779   0.849  26.366  0.00  0.00    +0.149 HD
BRANCH  17  19
ATOM     19  C   UNL     1      -2.905  -1.151  24.946  0.00  0.00    +0.037 A 
ATOM     23  C   UNL     1      -2.611  -2.284  24.188  0.00  0.00    +0.013 A 
ATOM     24  C   UNL     1      -1.945  -0.621  25.808  0.00  0.00    +0.013 A 
ATOM     27  C   UNL     1      -1.358  -2.889  24.293  0.00  0.00    +0.001 A 
ATOM     28  C   UNL     1      -0.692  -1.225  25.913  0.00  0.00    +0.001 A 
ATOM     30  C   UNL     1      -0.399  -2.359  25.154  0.00  0.00    +0.000 A 
ENDBRANCH  17  19
ENDBRANCH  14   6
ENDBRANCH   9  14
TORSDOF 8
ENDMDL
MODEL 2
REMARK VINA RESULT:       2.9      1.754      4.506
REMARK  Name = 75536385
REMARK  9 active torsions:
REMARK  status: ('A' for Active; 'I' for Inactive)
REMARK    1  A    between atoms: O_2  and  C_10
REMARK    2  A    between atoms: O_5  and  C_29
REMARK    3  A    between atoms: O_5  and  C_31
REMARK    4  A    between atoms: N_6  and  C_14
REMARK    5  A    between atoms: C_8  and  C_13
REMARK    6  A    between atoms: C_9  and  C_14
REMARK    7  A    between atoms: C_13  and  C_15
REMARK    8  A    between atoms: C_17  and  C_19
REMARK    9  A    between atoms: C_18  and  C_20
REMARK                            x       y       z     vdW  Elec       q    Type
REMARK                         _______ _______ _______ _____ _____    ______ ____
ROOT
ATOM      1  O   UNL     1      -3.614  -0.396  23.501  0.00  0.00    -0.369 OA
ATOM      8  C   UNL     1      -2.252  -0.065  23.783  0.00  0.00    +0.125 C 
ATOM      9  C   UNL     1      -4.349  -0.946  24.600  0.00  0.00    +0.164 C 
ATOM     10  C   UNL     1      -3.648  -2.184  25.176  0.00  0.00    +0.145 C 
ATOM     11  C   UNL     1      -1.483  -1.301  24.249  0.00  0.00    +0.034 C 
ATOM     12  C   UNL     1      -2.168  -1.936  25.456  0.00  0.00    +0.036 C 
ENDROOT
BRANCH  10   2
ATOM      2  O   UNL     1      -3.740  -3.250  24.227  0.00  0.00    -0.389 OA
ATOM     32  H   UNL     1      -3.839  -4.078  24.725  0.00  0.00    +0.210 HD
ENDBRANCH  10   2
BRANCH   8  13
ATOM     13  C   UNL     1      -1.644   0.503  22.507  0.00  0.00    +0.090 C 
BRANCH  13  15
ATOM      3  O   UNL     1       1.645  -0.602  21.528  0.00  0.00    -0.354 OA
ATOM      7  N   UNL     1       0.279  -0.460  21.310  0.00  0.00    -0.083 NA
ATOM     15  C   UNL     1      -0.180   0.175  22.393  0.00  0.00    +0.087 A 
ATOM     16  C   UNL     1       0.840   0.457  23.318  0.00  0.00    +0.076 A 
ATOM     18  C   UNL     1       1.966  -0.051  22.727  0.00  0.00    +0.167 A 
BRANCH  18  20
ATOM     20  C   UNL     1       3.351  -0.120  23.091  0.00  0.00    +0.020 A 
ATOM     21  C   UNL     1       4.168   1.002  22.943  0.00  0.00    +0.015 A 
ATOM     22  C   UNL     1       3.882  -1.308  23.594  0.00  0.00    +0.015 A 
ATOM     25  C   UNL     1       5.515   0.934  23.298  0.00  0.00    +0.046 A 
ATOM     26  C   UNL     1       5.230  -1.375  23.948  0.00  0.00    +0.046 A 
ATOM     29  C   UNL     1       6.046  -0.254  23.800  0.00  0.00    +0.120 A 
BRANCH  29   5
ATOM      5  O   UNL     1       7.362  -0.320  24.144  0.00  0.00    -0.495 OA
ATOM     31  C   UNL     1       8.310  -0.338  23.079  0.00  0.00    +0.277 C 
ENDBRANCH  29   5
ENDBRANCH  18  20
ENDBRANCH  13  15
ENDBRANCH   8  13
BRANCH   9  14
ATOM     14  C   UNL     1      -4.641   0.118  25.656  0.00  0.00    +0.138 C 
BRANCH  14   6
ATOM      4  O   UNL     1      -5.026   2.758  24.594  0.00  0.00    -0.270 OA
ATOM      6  N   UNL     1      -3.671   1.169  25.607  0.00  0.00    -0.309 N 
ATOM     17  C   UNL     1      -3.944   2.427  25.072  0.00  0.00    +0.244 C 
ATOM     33  H   UNL     1      -2.731   0.934  25.906  0.00  0.00    +0.149 HD
BRANCH  17  19
ATOM     19  C   UNL     1      -2.822   3.400  25.073  0.00  0.00    +0.037 A 
ATOM     23  C   UNL     1      -1.504   2.944  25.073  0.00  0.00    +0.013 A 
ATOM     24  C   UNL     1      -3.086   4.769  25.073  0.00  0.00    +0.013 A 
ATOM     27  C   UNL     1      -0.450   3.858  25.073  0.00  0.00    +0.001 A 
ATOM     28  C   UNL     1      -2.033   5.684  25.073  0.00  0.00    +0.001 A 
ATOM     30  C   UNL     1      -0.714   5.227  25.073  0.00  0.00    +0.000 A 
ENDBRANCH  17  19
ENDBRANCH  14   6
ENDBRANCH   9  14
TORSDOF 8
ENDMDL
MODEL 3
REMARK VINA RESULT:       3.3     14.429     17.881
REMARK  Name = 75536385
REMARK  9 active torsions:
REMARK  status: ('A' for Active; 'I' for Inactive)
REMARK    1  A    between atoms: O_2  and  C_10
REMARK    2  A    between atoms: O_5  and  C_29
REMARK    3  A    between atoms: O_5  and  C_31
REMARK    4  A    between atoms: N_6  and  C_14
REMARK    5  A    between atoms: C_8  and  C_13
REMARK    6  A    between atoms: C_9  and  C_14
REMARK    7  A    between atoms: C_13  and  C_15
REMARK    8  A    between atoms: C_17  and  C_19
REMARK    9  A    between atoms: C_18  and  C_20
REMARK                            x       y       z     vdW  Elec       q    Type
REMARK                         _______ _______ _______ _____ _____    ______ ____
ROOT
ATOM      1  O   UNL     1      -1.909  -8.154  11.176  0.00  0.00    -0.369 OA
ATOM      8  C   UNL     1      -2.584  -9.265  10.583  0.00  0.00    +0.125 C 
ATOM      9  C   UNL     1      -0.646  -8.458  11.782  0.00  0.00    +0.164 C 
ATOM     10  C   UNL     1      -0.784  -9.571  12.829  0.00  0.00    +0.145 C 
ATOM     11  C   UNL     1      -2.847 -10.353  11.623  0.00  0.00    +0.034 C 
ATOM     12  C   UNL     1      -1.545 -10.781  12.295  0.00  0.00    +0.036 C 
ENDROOT
BRANCH  10   2
ATOM      2  O   UNL     1      -1.507  -9.060  13.952  0.00  0.00    -0.389 OA
ATOM     32  H   UNL     1      -1.652  -9.798  14.568  0.00  0.00    +0.210 HD
ENDBRANCH  10   2
BRANCH   8  13
ATOM     13  C   UNL     1      -3.891  -8.748   9.995  0.00  0.00    +0.090 C 
BRANCH  13  15
ATOM      3  O   UNL     1      -6.833 -10.528  11.076  0.00  0.00    -0.354 OA
ATOM      7  N   UNL     1      -5.832 -10.253  10.152  0.00  0.00    -0.083 NA
ATOM     15  C   UNL     1      -5.086  -9.301  10.721  0.00  0.00    +0.087 A 
ATOM     16  C   UNL     1      -5.564  -8.940  11.993  0.00  0.00    +0.076 A 
ATOM     18  C   UNL     1      -6.662  -9.739  12.168  0.00  0.00    +0.167 A 
BRANCH  18  20
ATOM     20  C   UNL     1      -7.626  -9.912  13.216  0.00  0.00    +0.020 A 
ATOM     21  C   UNL     1      -8.987  -9.773  12.942  0.00  0.00    +0.015 A 
ATOM     22  C   UNL     1      -7.203 -10.218  14.510  0.00  0.00    +0.015 A 
ATOM     25  C   UNL     1      -9.923  -9.941  13.962  0.00  0.00    +0.046 A 
ATOM     26  C   UNL     1      -8.140 -10.386  15.529  0.00  0.00    +0.046 A 
ATOM     29  C   UNL     1      -9.500 -10.247  15.255  0.00  0.00    +0.120 A 
BRANCH  29   5
ATOM      5  O   UNL     1     -10.415 -10.408  16.250  0.00  0.00    -0.495 OA
ATOM     31  C   UNL     1     -10.438  -9.419  17.278  0.00  0.00    +0.277 C 
ENDBRANCH  29   5
ENDBRANCH  18  20
ENDBRANCH  13  15
ENDBRANCH   8  13
BRANCH   9  14
ATOM     14  C   UNL     1       0.412  -8.763  10.724  0.00  0.00    +0.138 C 
BRANCH  14   6
ATOM      4  O   UNL     1       0.997  -6.434  12.299  0.00  0.00    -0.270 OA
ATOM      6  N   UNL     1       1.706  -8.322  11.150  0.00  0.00    -0.309 N 
ATOM     17  C   UNL     1       1.899  -7.174  11.917  0.00  0.00    +0.244 C 
ATOM     33  H   UNL     1       2.503  -8.840  10.796  0.00  0.00    +0.149 HD
BRANCH  17  19
ATOM     19  C   UNL     1       3.306  -6.839  12.256  0.00  0.00    +0.037 A 
ATOM     23  C   UNL     1       3.629  -5.559  12.707  0.00  0.00    +0.013 A 
ATOM     24  C   UNL     1       4.304  -7.804  12.123  0.00  0.00    +0.013 A 
ATOM     27  C   UNL     1       4.950  -5.244  13.025  0.00  0.00    +0.001 A 
ATOM     28  C   UNL     1       5.626  -7.490  12.441  0.00  0.00    +0.001 A 
ATOM     30  C   UNL     1       5.948  -6.209  12.893  0.00  0.00    +0.000 A 
ENDBRANCH  17  19
ENDBRANCH  14   6
ENDBRANCH   9  14
TORSDOF 8
ENDMDL
MODEL 4
REMARK VINA RESULT:       3.5      1.851      2.396
REMARK  Name = 75536385
REMARK  9 active torsions:
REMARK  status: ('A' for Active; 'I' for Inactive)
REMARK    1  A    between atoms: O_2  and  C_10
REMARK    2  A    between atoms: O_5  and  C_29
REMARK    3  A    between atoms: O_5  and  C_31
REMARK    4  A    between atoms: N_6  and  C_14
REMARK    5  A    between atoms: C_8  and  C_13
REMARK    6  A    between atoms: C_9  and  C_14
REMARK    7  A    between atoms: C_13  and  C_15
REMARK    8  A    between atoms: C_17  and  C_19
REMARK    9  A    between atoms: C_18  and  C_20
REMARK                            x       y       z     vdW  Elec       q    Type
REMARK                         _______ _______ _______ _____ _____    ______ ____
ROOT
ATOM      1  O   UNL     1      -1.704   2.885  24.132  0.00  0.00    -0.369 OA
ATOM      8  C   UNL     1      -2.739   2.310  23.330  0.00  0.00    +0.125 C 
ATOM      9  C   UNL     1      -2.156   3.680  25.235  0.00  0.00    +0.164 C 
ATOM     10  C   UNL     1      -3.100   4.797  24.767  0.00  0.00    +0.145 C 
ATOM     11  C   UNL     1      -3.636   3.400  22.746  0.00  0.00    +0.034 C 
ATOM     12  C   UNL     1      -4.208   4.278  23.856  0.00  0.00    +0.036 C 
ENDROOT
BRANCH  10   2
ATOM      2  O   UNL     1      -2.343   5.761  24.030  0.00  0.00    -0.389 OA
ATOM     32  H   UNL     1      -2.528   6.634  24.413  0.00  0.00    +0.210 HD
ENDBRANCH  10   2
BRANCH   8  13
ATOM     13  C   UNL     1      -2.069   1.506  22.222  0.00  0.00    +0.090 C 
BRANCH  13  15
ATOM      3  O   UNL     1       0.407  -0.630  23.739  0.00  0.00    -0.354 OA
ATOM      7  N   UNL     1      -0.909  -0.263  23.478  0.00  0.00    -0.083 NA
ATOM     15  C   UNL     1      -0.819   0.824  22.707  0.00  0.00    +0.087 A 
ATOM     16  C   UNL     1       0.514   1.186  22.449  0.00  0.00    +0.076 A 
ATOM     18  C   UNL     1       1.245   0.241  23.120  0.00  0.00    +0.167 A 
BRANCH  18  20
ATOM     20  C   UNL     1       2.645  -0.011  23.297  0.00  0.00    +0.020 A 
ATOM     21  C   UNL     1       3.080  -1.273  23.704  0.00  0.00    +0.015 A 
ATOM     22  C   UNL     1       3.572   1.005  23.064  0.00  0.00    +0.015 A 
ATOM     25  C   UNL     1       4.443  -1.517  23.876  0.00  0.00    +0.046 A 
ATOM     26  C   UNL     1       4.934   0.759  23.236  0.00  0.00    +0.046 A 
ATOM     29  C   UNL     1       5.369  -0.502  23.642  0.00  0.00    +0.120 A 
BRANCH  29   5
ATOM      5  O   UNL     1       6.699  -0.741  23.813  0.00  0.00    -0.495 OA
ATOM     31  C   UNL     1       7.519  -0.712  22.646  0.00  0.00    +0.277 C 
ENDBRANCH  29   5
ENDBRANCH  18  20
ENDBRANCH  13  15
ENDBRANCH   8  13
BRANCH   9  14
ATOM     14  C   UNL     1      -2.763   2.807  26.331  0.00  0.00    +0.138 C 
BRANCH  14   6
ATOM      4  O   UNL     1      -5.085   1.359  25.462  0.00  0.00    -0.270 OA
ATOM      6  N   UNL     1      -2.812   1.435  25.926  0.00  0.00    -0.309 N 
ATOM     17  C   UNL     1      -3.988   0.809  25.516  0.00  0.00    +0.244 C 
ATOM     33  H   UNL     1      -1.958   0.899  26.030  0.00  0.00    +0.149 HD
BRANCH  17  19
ATOM     19  C   UNL     1      -3.877  -0.627  25.152  0.00  0.00    +0.037 A 
ATOM     23  C   UNL     1      -4.417  -1.086  23.951  0.00  0.00    +0.013 A 
ATOM     24  C   UNL     1      -3.231  -1.515  26.010  0.00  0.00    +0.013 A 
ATOM     27  C   UNL     1      -4.312  -2.434  23.608  0.00  0.00    +0.001 A 
ATOM     28  C   UNL     1      -3.125  -2.864  25.669  0.00  0.00    +0.001 A 
ATOM     30  C   UNL     1      -3.666  -3.323  24.467  0.00  0.00    +0.000 A 
ENDBRANCH  17  19
ENDBRANCH  14   6
ENDBRANCH   9  14
TORSDOF 8
ENDMDL
MODEL 5
REMARK VINA RESULT:       3.9      2.030      2.811
REMARK  Name = 75536385
REMARK  9 active torsions:
REMARK  status: ('A' for Active; 'I' for Inactive)
REMARK    1  A    between atoms: O_2  and  C_10
REMARK    2  A    between atoms: O_5  and  C_29
REMARK    3  A    between atoms: O_5  and  C_31
REMARK    4  A    between atoms: N_6  and  C_14
REMARK    5  A    between atoms: C_8  and  C_13
REMARK    6  A    between atoms: C_9  and  C_14
REMARK    7  A    between atoms: C_13  and  C_15
REMARK    8  A    between atoms: C_17  and  C_19
REMARK    9  A    between atoms: C_18  and  C_20
REMARK                            x       y       z     vdW  Elec       q    Type
REMARK                         _______ _______ _______ _____ _____    ______ ____
ROOT
ATOM      1  O   UNL     1      -1.226   2.969  24.414  0.00  0.00    -0.369 OA
ATOM      8  C   UNL     1      -2.391   2.428  23.786  0.00  0.00    +0.125 C 
ATOM      9  C   UNL     1      -1.442   3.546  25.708  0.00  0.00    +0.164 C 
ATOM     10  C   UNL     1      -2.529   4.629  25.661  0.00  0.00    +0.145 C 
ATOM     11  C   UNL     1      -3.459   3.506  23.612  0.00  0.00    +0.034 C 
ATOM     12  C   UNL     1      -3.794   4.153  24.954  0.00  0.00    +0.036 C 
ENDROOT
BRANCH  10   2
ATOM      2  O   UNL     1      -2.024   5.757  24.942  0.00  0.00    -0.389 OA
ATOM     32  H   UNL     1      -1.246   5.461  24.441  0.00  0.00    +0.210 HD
ENDBRANCH  10   2
BRANCH   8  13
ATOM     13  C   UNL     1      -1.964   1.864  22.436  0.00  0.00    +0.090 C 
BRANCH  13  15
ATOM      3  O   UNL     1       0.617  -0.653  22.415  0.00  0.00    -0.354 OA
ATOM      7  N   UNL     1      -0.689  -0.228  22.198  0.00  0.00    -0.083 NA
ATOM     15  C   UNL     1      -0.695   1.064  22.542  0.00  0.00    +0.087 A 
ATOM     16  C   UNL     1       0.566   1.504  22.979  0.00  0.00    +0.076 A 
ATOM     18  C   UNL     1       1.355   0.388  22.880  0.00  0.00    +0.167 A 
BRANCH  18  20
ATOM     20  C   UNL     1       2.733   0.101  23.150  0.00  0.00    +0.020 A 
ATOM     21  C   UNL     1       3.696   1.099  22.995  0.00  0.00    +0.015 A 
ATOM     22  C   UNL     1       3.112  -1.174  23.567  0.00  0.00    +0.015 A 
ATOM     25  C   UNL     1       5.037   0.819  23.258  0.00  0.00    +0.046 A 
ATOM     26  C   UNL     1       4.453  -1.453  23.829  0.00  0.00    +0.046 A 
ATOM     29  C   UNL     1       5.416  -0.456  23.675  0.00  0.00    +0.120 A 
BRANCH  29   5
ATOM      5  O   UNL     1       6.725  -0.729  23.929  0.00  0.00    -0.495 OA
ATOM     31  C   UNL     1       7.637  -0.602  22.840  0.00  0.00    +0.277 C 
ENDBRANCH  29   5
ENDBRANCH  18  20
ENDBRANCH  13  15
ENDBRANCH   8  13
BRANCH   9  14
ATOM     14  C   UNL     1      -1.720   2.467  26.752  0.00  0.00    +0.138 C 
BRANCH  14   6
ATOM      4  O   UNL     1      -0.446   0.028  25.933  0.00  0.00    -0.270 OA
ATOM      6  N   UNL     1      -2.354   1.329  26.159  0.00  0.00    -0.309 N 
ATOM     17  C   UNL     1      -1.656   0.180  25.791  0.00  0.00    +0.244 C 
ATOM     33  H   UNL     1      -3.339   1.423  25.933  0.00  0.00    +0.149 HD
BRANCH  17  19
ATOM     19  C   UNL     1      -2.456  -0.903  25.164  0.00  0.00    +0.037 A 
ATOM     23  C   UNL     1      -3.713  -0.622  24.630  0.00  0.00    +0.013 A 
ATOM     24  C   UNL     1      -1.949  -2.201  25.107  0.00  0.00    +0.013 A 
ATOM     27  C   UNL     1      -4.465  -1.639  24.040  0.00  0.00    +0.001 A 
ATOM     28  C   UNL     1      -2.700  -3.218  24.517  0.00  0.00    +0.001 A 
ATOM     30  C   UNL     1      -3.958  -2.936  23.984  0.00  0.00    +0.000 A 
ENDBRANCH  17  19
ENDBRANCH  14   6
ENDBRANCH   9  14
TORSDOF 8
ENDMDL
MODEL 6
REMARK VINA RESULT:       4.6      1.398      2.030
REMARK  Name = 75536385
REMARK  9 active torsions:
REMARK  status: ('A' for Active; 'I' for Inactive)
REMARK    1  A    between atoms: O_2  and  C_10
REMARK    2  A    between atoms: O_5  and  C_29
REMARK    3  A    between atoms: O_5  and  C_31
REMARK    4  A    between atoms: N_6  and  C_14
REMARK    5  A    between atoms: C_8  and  C_13
REMARK    6  A    between atoms: C_9  and  C_14
REMARK    7  A    between atoms: C_13  and  C_15
REMARK    8  A    between atoms: C_17  and  C_19
REMARK    9  A    between atoms: C_18  and  C_20
REMARK                            x       y       z     vdW  Elec       q    Type
REMARK                         _______ _______ _______ _____ _____    ______ ____
ROOT
ATOM      1  O   UNL     1      -4.278   2.349  25.892  0.00  0.00    -0.369 OA
ATOM      8  C   UNL     1      -4.278   3.532  25.090  0.00  0.00    +0.125 C 
ATOM      9  C   UNL     1      -5.388   1.468  25.680  0.00  0.00    +0.164 C 
ATOM     10  C   UNL     1      -6.724   2.197  25.872  0.00  0.00    +0.145 C 
ATOM     11  C   UNL     1      -5.543   4.352  25.339  0.00  0.00    +0.034 C 
ATOM     12  C   UNL     1      -6.789   3.507  25.092  0.00  0.00    +0.036 C 
ENDROOT
BRANCH  10   2
ATOM      2  O   UNL     1      -6.885   2.507  27.259  0.00  0.00    -0.389 OA
ATOM     32  H   UNL     1      -7.149   3.440  27.323  0.00  0.00    +0.210 HD
ENDBRANCH  10   2
BRANCH   8  13
ATOM     13  C   UNL     1      -3.032   4.332  25.452  0.00  0.00    +0.090 C 
BRANCH  13  15
ATOM      3  O   UNL     1      -0.008   2.417  25.871  0.00  0.00    -0.354 OA
ATOM      7  N   UNL     1      -1.083   3.142  26.370  0.00  0.00    -0.083 NA
ATOM     15  C   UNL     1      -1.779   3.515  25.291  0.00  0.00    +0.087 A 
ATOM     16  C   UNL     1      -1.197   3.058  24.097  0.00  0.00    +0.076 A 
ATOM     18  C   UNL     1      -0.087   2.373  24.516  0.00  0.00    +0.167 A 
BRANCH  18  20
ATOM     20  C   UNL     1       0.961   1.652  23.855  0.00  0.00    +0.020 A 
ATOM     21  C   UNL     1       2.238   2.207  23.761  0.00  0.00    +0.015 A 
ATOM     22  C   UNL     1       0.704   0.396  23.305  0.00  0.00    +0.015 A 
ATOM     25  C   UNL     1       3.257   1.505  23.117  0.00  0.00    +0.046 A 
ATOM     26  C   UNL     1       1.724  -0.305  22.661  0.00  0.00    +0.046 A 
ATOM     29  C   UNL     1       3.000   0.249  22.568  0.00  0.00    +0.120 A 
BRANCH  29   5
ATOM      5  O   UNL     1       3.995  -0.434  21.938  0.00  0.00    -0.495 OA
ATOM     31  C   UNL     1       5.292  -0.383  22.528  0.00  0.00    +0.277 C 
ENDBRANCH  29   5
ENDBRANCH  18  20
ENDBRANCH  13  15
ENDBRANCH   8  13
BRANCH   9  14
ATOM     14  C   UNL     1      -5.282   0.764  24.328  0.00  0.00    +0.138 C 
BRANCH  14   6
ATOM      4  O   UNL     1      -4.139  -0.794  26.451  0.00  0.00    -0.270 OA
ATOM      6  N   UNL     1      -4.099  -0.037  24.258  0.00  0.00    -0.309 N 
ATOM     17  C   UNL     1      -3.613  -0.766  25.342  0.00  0.00    +0.244 C 
ATOM     33  H   UNL     1      -3.567   0.011  23.395  0.00  0.00    +0.149 HD
BRANCH  17  19
ATOM     19  C   UNL     1      -2.358  -1.528  25.114  0.00  0.00    +0.037 A 
ATOM     23  C   UNL     1      -1.204  -1.201  25.826  0.00  0.00    +0.013 A 
ATOM     24  C   UNL     1      -2.334  -2.570  24.188  0.00  0.00    +0.013 A 
ATOM     27  C   UNL     1      -0.026  -1.916  25.611  0.00  0.00    +0.001 A 
ATOM     28  C   UNL     1      -1.156  -3.286  23.973  0.00  0.00    +0.001 A 
ATOM     30  C   UNL     1      -0.002  -2.959  24.686  0.00  0.00    +0.000 A 
ENDBRANCH  17  19
ENDBRANCH  14   6
ENDBRANCH   9  14
TORSDOF 8
ENDMDL
MODEL 7
REMARK VINA RESULT:       4.9      1.839      8.084
REMARK  Name = 75536385
REMARK  9 active torsions:
REMARK  status: ('A' for Active; 'I' for Inactive)
REMARK    1  A    between atoms: O_2  and  C_10
REMARK    2  A    between atoms: O_5  and  C_29
REMARK    3  A    between atoms: O_5  and  C_31
REMARK    4  A    between atoms: N_6  and  C_14
REMARK    5  A    between atoms: C_8  and  C_13
REMARK    6  A    between atoms: C_9  and  C_14
REMARK    7  A    between atoms: C_13  and  C_15
REMARK    8  A    between atoms: C_17  and  C_19
REMARK    9  A    between atoms: C_18  and  C_20
REMARK                            x       y       z     vdW  Elec       q    Type
REMARK                         _______ _______ _______ _____ _____    ______ ____
ROOT
ATOM      1  O   UNL     1       1.557   0.063  23.917  0.00  0.00    -0.369 OA
ATOM      8  C   UNL     1       0.932  -0.495  22.759  0.00  0.00    +0.125 C 
ATOM      9  C   UNL     1       2.485   1.124  23.659  0.00  0.00    +0.164 C 
ATOM     10  C   UNL     1       3.574   0.684  22.670  0.00  0.00    +0.145 C 
ATOM     11  C   UNL     1       1.979  -1.054  21.798  0.00  0.00    +0.034 C 
ATOM     12  C   UNL     1       2.994   0.023  21.423  0.00  0.00    +0.036 C 
ENDROOT
BRANCH  10   2
ATOM      2  O   UNL     1       4.424  -0.269  23.315  0.00  0.00    -0.389 OA
ATOM     32  H   UNL     1       4.370  -0.110  24.272  0.00  0.00    +0.210 HD
ENDBRANCH  10   2
BRANCH   8  13
ATOM     13  C   UNL     1      -0.012  -1.594  23.232  0.00  0.00    +0.090 C 
BRANCH  13  15
ATOM      3  O   UNL     1      -3.290  -1.018  24.617  0.00  0.00    -0.354 OA
ATOM      7  N   UNL     1      -2.247  -1.852  24.229  0.00  0.00    -0.083 NA
ATOM     15  C   UNL     1      -1.307  -1.031  23.752  0.00  0.00    +0.087 A 
ATOM     16  C   UNL     1      -1.696   0.318  23.812  0.00  0.00    +0.076 A 
ATOM     18  C   UNL     1      -2.949   0.272  24.363  0.00  0.00    +0.167 A 
BRANCH  18  20
ATOM     20  C   UNL     1      -3.932   1.255  24.714  0.00  0.00    +0.020 A 
ATOM     21  C   UNL     1      -3.977   2.470  24.030  0.00  0.00    +0.015 A 
ATOM     22  C   UNL     1      -4.843   0.996  25.738  0.00  0.00    +0.015 A 
ATOM     25  C   UNL     1      -4.934   3.426  24.372  0.00  0.00    +0.046 A 
ATOM     26  C   UNL     1      -5.799   1.953  26.079  0.00  0.00    +0.046 A 
ATOM     29  C   UNL     1      -5.845   3.168  25.396  0.00  0.00    +0.120 A 
BRANCH  29   5
ATOM      5  O   UNL     1      -6.776   4.102  25.730  0.00  0.00    -0.495 OA
ATOM     31  C   UNL     1      -6.478   5.460  25.409  0.00  0.00    +0.277 C 
ENDBRANCH  29   5
ENDBRANCH  18  20
ENDBRANCH  13  15
ENDBRANCH   8  13
BRANCH   9  14
ATOM     14  C   UNL     1       1.761   2.394  23.221  0.00  0.00    +0.138 C 
BRANCH  14   6
ATOM      4  O   UNL     1       0.236   4.826  23.275  0.00  0.00    -0.270 OA
ATOM      6  N   UNL     1       0.699   2.717  24.124  0.00  0.00    -0.309 N 
ATOM     17  C   UNL     1       0.008   3.927  24.079  0.00  0.00    +0.244 C 
ATOM     33  H   UNL     1       0.518   2.053  24.869  0.00  0.00    +0.149 HD
BRANCH  17  19
ATOM     19  C   UNL     1      -1.051   4.119  25.103  0.00  0.00    +0.037 A 
ATOM     23  C   UNL     1      -1.255   3.150  26.085  0.00  0.00    +0.013 A 
ATOM     24  C   UNL     1      -1.840   5.268  25.082  0.00  0.00    +0.013 A 
ATOM     27  C   UNL     1      -2.249   3.331  27.047  0.00  0.00    +0.001 A 
ATOM     28  C   UNL     1      -2.835   5.449  26.044  0.00  0.00    +0.001 A 
ATOM     30  C   UNL     1      -3.038   4.480  27.027  0.00  0.00    +0.000 A 
ENDBRANCH  17  19
ENDBRANCH  14   6
ENDBRANCH   9  14
TORSDOF 8
ENDMDL
MODEL 8
REMARK VINA RESULT:       5.0      2.493      4.028
REMARK  Name = 75536385
REMARK  9 active torsions:
REMARK  status: ('A' for Active; 'I' for Inactive)
REMARK    1  A    between atoms: O_2  and  C_10
REMARK    2  A    between atoms: O_5  and  C_29
REMARK    3  A    between atoms: O_5  and  C_31
REMARK    4  A    between atoms: N_6  and  C_14
REMARK    5  A    between atoms: C_8  and  C_13
REMARK    6  A    between atoms: C_9  and  C_14
REMARK    7  A    between atoms: C_13  and  C_15
REMARK    8  A    between atoms: C_17  and  C_19
REMARK    9  A    between atoms: C_18  and  C_20
REMARK                            x       y       z     vdW  Elec       q    Type
REMARK                         _______ _______ _______ _____ _____    ______ ____
ROOT
ATOM      1  O   UNL     1      -2.731   1.608  25.049  0.00  0.00    -0.369 OA
ATOM      8  C   UNL     1      -3.852   0.860  25.523  0.00  0.00    +0.125 C 
ATOM      9  C   UNL     1      -2.968   3.009  24.861  0.00  0.00    +0.164 C 
ATOM     10  C   UNL     1      -4.159   3.253  23.924  0.00  0.00    +0.145 C 
ATOM     11  C   UNL     1      -5.029   0.979  24.556  0.00  0.00    +0.034 C 
ATOM     12  C   UNL     1      -5.389   2.444  24.327  0.00  0.00    +0.036 C 
ENDROOT
BRANCH  10   2
ATOM      2  O   UNL     1      -3.792   2.859  22.599  0.00  0.00    -0.389 OA
ATOM     32  H   UNL     1      -4.307   2.066  22.375  0.00  0.00    +0.210 HD
ENDBRANCH  10   2
BRANCH   8  13
ATOM     13  C   UNL     1      -3.409  -0.592  25.663  0.00  0.00    +0.090 C 
BRANCH  13  15
ATOM      3  O   UNL     1      -0.566  -1.882  23.861  0.00  0.00    -0.354 OA
ATOM      7  N   UNL     1      -1.864  -1.985  24.348  0.00  0.00    -0.083 NA
ATOM     15  C   UNL     1      -2.083  -0.837  24.995  0.00  0.00    +0.087 A 
ATOM     16  C   UNL     1      -0.971   0.021  24.950  0.00  0.00    +0.076 A 
ATOM     18  C   UNL     1      -0.045  -0.682  24.226  0.00  0.00    +0.167 A 
BRANCH  18  20
ATOM     20  C   UNL     1       1.298  -0.429  23.791  0.00  0.00    +0.020 A 
ATOM     21  C   UNL     1       2.256  -1.440  23.865  0.00  0.00    +0.015 A 
ATOM     22  C   UNL     1       1.645   0.827  23.295  0.00  0.00    +0.015 A 
ATOM     25  C   UNL     1       3.562  -1.193  23.442  0.00  0.00    +0.046 A 
ATOM     26  C   UNL     1       2.951   1.073  22.872  0.00  0.00    +0.046 A 
ATOM     29  C   UNL     1       3.910   0.063  22.945  0.00  0.00    +0.120 A 
BRANCH  29   5
ATOM      5  O   UNL     1       5.185   0.303  22.535  0.00  0.00    -0.495 OA
ATOM     31  C   UNL     1       6.233  -0.029  23.444  0.00  0.00    +0.277 C 
ENDBRANCH  29   5
ENDBRANCH  18  20
ENDBRANCH  13  15
ENDBRANCH   8  13
BRANCH   9  14
ATOM     14  C   UNL     1      -3.106   3.729  26.200  0.00  0.00    +0.138 C 
BRANCH  14   6
ATOM      4  O   UNL     1      -0.348   3.492  25.439  0.00  0.00    -0.270 OA
ATOM      6  N   UNL     1      -2.004   3.425  27.062  0.00  0.00    -0.309 N 
ATOM     17  C   UNL     1      -0.690   3.330  26.606  0.00  0.00    +0.244 C 
ATOM     33  H   UNL     1      -2.229   3.194  28.024  0.00  0.00    +0.149 HD
BRANCH  17  19
ATOM     19  C   UNL     1       0.335   2.982  27.623  0.00  0.00    +0.037 A 
ATOM     23  C   UNL     1       1.685   2.961  27.273  0.00  0.00    +0.013 A 
ATOM     24  C   UNL     1      -0.052   2.678  28.927  0.00  0.00    +0.013 A 
ATOM     27  C   UNL     1       2.648   2.635  28.228  0.00  0.00    +0.001 A 
ATOM     28  C   UNL     1       0.911   2.351  29.883  0.00  0.00    +0.001 A 
ATOM     30  C   UNL     1       2.261   2.330  29.533  0.00  0.00    +0.000 A 
ENDBRANCH  17  19
ENDBRANCH  14   6
ENDBRANCH   9  14
TORSDOF 8
ENDMDL
