MODEL 1
REMARK VINA RESULT:       1.5      0.000      0.000
REMARK  Name = 75536039
REMARK  8 active torsions:
REMARK  status: ('A' for Active; 'I' for Inactive)
REMARK    1  A    between atoms: O_5  and  C_21
REMARK    2  A    between atoms: O_5  and  C_24
REMARK    3  A    between atoms: O_6  and  C_30
REMARK    4  A    between atoms: O_6  and  C_31
REMARK    5  A    between atoms: C_13  and  C_18
REMARK    6  A    between atoms: C_19  and  C_21
REMARK    7  A    between atoms: C_22  and  C_23
REMARK    8  A    between atoms: C_24  and  C_30
REMARK                            x       y       z     vdW  Elec       q    Type
REMARK                         _______ _______ _______ _____ _____    ______ ____
ROOT
ATOM      4  O   UNL     1      -3.665  -1.292  22.392  0.00  0.00    -0.273 OA
ATOM      8  N   UNL     1      -3.614   0.454  23.936  0.00  0.00    -0.282 N 
ATOM      9  N   UNL     1      -4.773   3.190  26.192  0.00  0.00    -0.347 N 
ATOM     10  N   UNL     1      -4.520   4.486  24.390  0.00  0.00    -0.240 NA
ATOM     13  C   UNL     1      -2.853   1.359  23.009  0.00  0.00    +0.171 C 
ATOM     14  C   UNL     1      -3.578   2.728  22.829  0.00  0.00    +0.089 C 
ATOM     15  C   UNL     1      -3.920   0.958  25.304  0.00  0.00    +0.163 C 
ATOM     16  C   UNL     1      -4.113   3.210  24.120  0.00  0.00    +0.066 A 
ATOM     17  C   UNL     1      -4.262   2.391  25.213  0.00  0.00    +0.056 A 
ATOM     19  C   UNL     1      -3.909  -0.851  23.518  0.00  0.00    +0.242 C 
ATOM     20  C   UNL     1      -4.912   4.442  25.647  0.00  0.00    +0.197 A 
ATOM     32  H   UNL     1      -5.005   2.917  27.138  0.00  0.00    +0.167 HD
ENDROOT
BRANCH  13  18
ATOM      3  O   UNL     1      -1.069   2.181  24.484  0.00  0.00    -0.336 OA
ATOM     11  N   UNL     1      -0.346   0.835  22.846  0.00  0.00    -0.190 NA
ATOM     12  N   UNL     1       0.318   2.081  24.646  0.00  0.00    -0.056 NA
ATOM     18  C   UNL     1      -1.377   1.417  23.402  0.00  0.00    +0.249 A 
ATOM     22  C   UNL     1       0.671   1.272  23.643  0.00  0.00    +0.202 A 
BRANCH  22  23
ATOM      1 CL   UNL     1       4.287  -2.384  23.921  0.00  0.00    -0.081 Cl
ATOM      2  F   UNL     1       5.952  -0.234  22.741  0.00  0.00    -0.204 F 
ATOM     23  C   UNL     1       2.032   0.879  23.411  0.00  0.00    +0.024 A 
ATOM     25  C   UNL     1       2.452  -0.410  23.739  0.00  0.00    +0.034 A 
ATOM     26  C   UNL     1       2.935   1.788  22.858  0.00  0.00    +0.014 A 
ATOM     27  C   UNL     1       3.774  -0.791  23.515  0.00  0.00    +0.077 A 
ATOM     28  C   UNL     1       4.258   1.406  22.633  0.00  0.00    +0.040 A 
ATOM     29  C   UNL     1       4.677   0.117  22.961  0.00  0.00    +0.142 A 
ENDBRANCH  22  23
ENDBRANCH  13  18
BRANCH  19  21
ATOM     21  C   UNL     1      -4.570  -1.751  24.534  0.00  0.00    +0.256 C 
BRANCH  21   5
ATOM      5  O   UNL     1      -3.696  -2.834  24.739  0.00  0.00    -0.359 OA
BRANCH   5  24
ATOM     24  C   UNL     1      -2.608  -2.488  25.594  0.00  0.00    +0.280 C 
BRANCH  24  30
ATOM      7  O   UNL     1      -1.176  -2.946  23.691  0.00  0.00    -0.248 OA
ATOM     30  C   UNL     1      -1.352  -2.390  24.766  0.00  0.00    +0.333 C 
BRANCH  30   6
ATOM      6  O   UNL     1      -0.458  -1.585  25.412  0.00  0.00    -0.466 OA
ATOM     31  C   UNL     1      -1.019  -0.695  26.382  0.00  0.00    +0.280 C 
ENDBRANCH  30   6
ENDBRANCH  24  30
ENDBRANCH   5  24
ENDBRANCH  21   5
ENDBRANCH  19  21
TORSDOF 7
ENDMDL
MODEL 2
REMARK VINA RESULT:       2.0      2.152      4.477
REMARK  Name = 75536039
REMARK  8 active torsions:
REMARK  status: ('A' for Active; 'I' for Inactive)
REMARK    1  A    between atoms: O_5  and  C_21
REMARK    2  A    between atoms: O_5  and  C_24
REMARK    3  A    between atoms: O_6  and  C_30
REMARK    4  A    between atoms: O_6  and  C_31
REMARK    5  A    between atoms: C_13  and  C_18
REMARK    6  A    between atoms: C_19  and  C_21
REMARK    7  A    between atoms: C_22  and  C_23
REMARK    8  A    between atoms: C_24  and  C_30
REMARK                            x       y       z     vdW  Elec       q    Type
REMARK                         _______ _______ _______ _____ _____    ______ ____
ROOT
ATOM      4  O   UNL     1      -2.293   3.220  25.873  0.00  0.00    -0.273 OA
ATOM      8  N   UNL     1      -2.750   1.272  24.677  0.00  0.00    -0.282 N 
ATOM      9  N   UNL     1      -4.545  -1.751  23.430  0.00  0.00    -0.347 N 
ATOM     10  N   UNL     1      -3.556  -2.780  25.149  0.00  0.00    -0.240 NA
ATOM     13  C   UNL     1      -1.646   0.504  25.348  0.00  0.00    +0.171 C 
ATOM     14  C   UNL     1      -2.177  -0.822  25.976  0.00  0.00    +0.089 C 
ATOM     15  C   UNL     1      -3.531   0.580  23.614  0.00  0.00    +0.163 C 
ATOM     16  C   UNL     1      -3.141  -1.480  25.068  0.00  0.00    +0.066 A 
ATOM     17  C   UNL     1      -3.739  -0.824  24.020  0.00  0.00    +0.056 A 
ATOM     19  C   UNL     1      -2.928   2.624  24.999  0.00  0.00    +0.242 C 
ATOM     20  C   UNL     1      -4.401  -2.913  24.147  0.00  0.00    +0.197 A 
ATOM     32  H   UNL     1      -5.136  -1.615  22.621  0.00  0.00    +0.167 HD
ENDROOT
BRANCH  13  18
ATOM      3  O   UNL     1      -0.691   0.316  23.094  0.00  0.00    -0.336 OA
ATOM     11  N   UNL     1       0.838   0.332  24.731  0.00  0.00    -0.190 NA
ATOM     12  N   UNL     1       0.555   0.211  22.464  0.00  0.00    -0.056 NA
ATOM     18  C   UNL     1      -0.434   0.383  24.427  0.00  0.00    +0.249 A 
ATOM     22  C   UNL     1       1.405   0.226  23.494  0.00  0.00    +0.202 A 
BRANCH  22  23
ATOM      1 CL   UNL     1       5.729  -2.511  24.069  0.00  0.00    -0.081 Cl
ATOM      2  F   UNL     1       6.921  -0.098  22.827  0.00  0.00    -0.204 F 
ATOM     23  C   UNL     1       2.827   0.138  23.322  0.00  0.00    +0.024 A 
ATOM     25  C   UNL     1       3.509  -1.008  23.730  0.00  0.00    +0.034 A 
ATOM     26  C   UNL     1       3.527   1.200  22.749  0.00  0.00    +0.014 A 
ATOM     27  C   UNL     1       4.892  -1.093  23.565  0.00  0.00    +0.077 A 
ATOM     28  C   UNL     1       4.909   1.114  22.583  0.00  0.00    +0.040 A 
ATOM     29  C   UNL     1       5.591  -0.032  22.991  0.00  0.00    +0.142 A 
ENDBRANCH  22  23
ENDBRANCH  13  18
BRANCH  19  21
ATOM     21  C   UNL     1      -3.972   3.374  24.208  0.00  0.00    +0.256 C 
BRANCH  21   5
ATOM      5  O   UNL     1      -4.506   4.348  25.071  0.00  0.00    -0.359 OA
BRANCH   5  24
ATOM     24  C   UNL     1      -5.904   4.161  25.289  0.00  0.00    +0.280 C 
BRANCH  24  30
ATOM      7  O   UNL     1      -6.450   1.880  24.676  0.00  0.00    -0.248 OA
ATOM     30  C   UNL     1      -6.165   2.699  25.539  0.00  0.00    +0.333 C 
BRANCH  30   6
ATOM      6  O   UNL     1      -6.032   2.447  26.874  0.00  0.00    -0.466 OA
ATOM     31  C   UNL     1      -6.717   1.285  27.353  0.00  0.00    +0.280 C 
ENDBRANCH  30   6
ENDBRANCH  24  30
ENDBRANCH   5  24
ENDBRANCH  21   5
ENDBRANCH  19  21
TORSDOF 7
ENDMDL
MODEL 3
REMARK VINA RESULT:       2.0      1.958      4.428
REMARK  Name = 75536039
REMARK  8 active torsions:
REMARK  status: ('A' for Active; 'I' for Inactive)
REMARK    1  A    between atoms: O_5  and  C_21
REMARK    2  A    between atoms: O_5  and  C_24
REMARK    3  A    between atoms: O_6  and  C_30
REMARK    4  A    between atoms: O_6  and  C_31
REMARK    5  A    between atoms: C_13  and  C_18
REMARK    6  A    between atoms: C_19  and  C_21
REMARK    7  A    between atoms: C_22  and  C_23
REMARK    8  A    between atoms: C_24  and  C_30
REMARK                            x       y       z     vdW  Elec       q    Type
REMARK                         _______ _______ _______ _____ _____    ______ ____
ROOT
ATOM      4  O   UNL     1      -3.121   2.644  26.417  0.00  0.00    -0.273 OA
ATOM      8  N   UNL     1      -3.330   0.833  24.964  0.00  0.00    -0.282 N 
ATOM      9  N   UNL     1      -4.720  -2.209  23.312  0.00  0.00    -0.347 N 
ATOM     10  N   UNL     1      -3.573  -3.317  24.877  0.00  0.00    -0.240 NA
ATOM     13  C   UNL     1      -2.122   0.139  25.528  0.00  0.00    +0.171 C 
ATOM     14  C   UNL     1      -2.458  -1.320  25.967  0.00  0.00    +0.089 C 
ATOM     15  C   UNL     1      -4.028   0.192  23.815  0.00  0.00    +0.163 C 
ATOM     16  C   UNL     1      -3.339  -1.973  24.975  0.00  0.00    +0.066 A 
ATOM     17  C   UNL     1      -4.037  -1.269  24.025  0.00  0.00    +0.056 A 
ATOM     19  C   UNL     1      -3.684   2.093  25.468  0.00  0.00    +0.242 C 
ATOM     20  C   UNL     1      -4.409  -3.426  23.864  0.00  0.00    +0.197 A 
ATOM     32  H   UNL     1      -5.337  -2.045  22.527  0.00  0.00    +0.167 HD
ENDROOT
BRANCH  13  18
ATOM      3  O   UNL     1      -1.174   0.823  23.368  0.00  0.00    -0.336 OA
ATOM     11  N   UNL     1       0.341   0.033  24.817  0.00  0.00    -0.190 NA
ATOM     12  N   UNL     1       0.062   0.885  22.713  0.00  0.00    -0.056 NA
ATOM     18  C   UNL     1      -0.919   0.310  24.601  0.00  0.00    +0.249 A 
ATOM     22  C   UNL     1       0.904   0.401  23.630  0.00  0.00    +0.202 A 
BRANCH  22  23
ATOM      1 CL   UNL     1       5.153  -2.494  23.908  0.00  0.00    -0.081 Cl
ATOM      2  F   UNL     1       6.373  -0.071  22.712  0.00  0.00    -0.204 F 
ATOM     23  C   UNL     1       2.314   0.275  23.394  0.00  0.00    +0.024 A 
ATOM     25  C   UNL     1       2.973  -0.908  23.725  0.00  0.00    +0.034 A 
ATOM     26  C   UNL     1       3.024   1.337  22.833  0.00  0.00    +0.014 A 
ATOM     27  C   UNL     1       4.344  -1.030  23.497  0.00  0.00    +0.077 A 
ATOM     28  C   UNL     1       4.395   1.214  22.604  0.00  0.00    +0.040 A 
ATOM     29  C   UNL     1       5.054   0.030  22.936  0.00  0.00    +0.142 A 
ENDBRANCH  22  23
ENDBRANCH  13  18
BRANCH  19  21
ATOM     21  C   UNL     1      -4.833   2.793  24.784  0.00  0.00    +0.256 C 
BRANCH  21   5
ATOM      5  O   UNL     1      -4.410   4.113  24.542  0.00  0.00    -0.359 OA
BRANCH   5  24
ATOM     24  C   UNL     1      -3.261   4.160  23.698  0.00  0.00    +0.280 C 
BRANCH  24  30
ATOM      7  O   UNL     1      -2.107   5.604  25.268  0.00  0.00    -0.248 OA
ATOM     30  C   UNL     1      -2.086   4.648  24.506  0.00  0.00    +0.333 C 
BRANCH  30   6
ATOM      6  O   UNL     1      -1.008   3.851  24.245  0.00  0.00    -0.466 OA
ATOM     31  C   UNL     1      -0.156   3.583  25.363  0.00  0.00    +0.280 C 
ENDBRANCH  30   6
ENDBRANCH  24  30
ENDBRANCH   5  24
ENDBRANCH  21   5
ENDBRANCH  19  21
TORSDOF 7
ENDMDL
MODEL 4
REMARK VINA RESULT:       2.5      2.171      3.168
REMARK  Name = 75536039
REMARK  8 active torsions:
REMARK  status: ('A' for Active; 'I' for Inactive)
REMARK    1  A    between atoms: O_5  and  C_21
REMARK    2  A    between atoms: O_5  and  C_24
REMARK    3  A    between atoms: O_6  and  C_30
REMARK    4  A    between atoms: O_6  and  C_31
REMARK    5  A    between atoms: C_13  and  C_18
REMARK    6  A    between atoms: C_19  and  C_21
REMARK    7  A    between atoms: C_22  and  C_23
REMARK    8  A    between atoms: C_24  and  C_30
REMARK                            x       y       z     vdW  Elec       q    Type
REMARK                         _______ _______ _______ _____ _____    ______ ____
ROOT
ATOM      4  O   UNL     1      -3.659  -1.213  23.382  0.00  0.00    -0.273 OA
ATOM      8  N   UNL     1      -2.362   0.483  24.318  0.00  0.00    -0.282 N 
ATOM      9  N   UNL     1      -1.434   3.597  26.151  0.00  0.00    -0.347 N 
ATOM     10  N   UNL     1      -1.674   4.581  24.159  0.00  0.00    -0.240 NA
ATOM     13  C   UNL     1      -1.889   0.972  22.977  0.00  0.00    +0.171 C 
ATOM     14  C   UNL     1      -2.158   2.498  22.801  0.00  0.00    +0.089 C 
ATOM     15  C   UNL     1      -1.822   1.155  25.532  0.00  0.00    +0.163 C 
ATOM     16  C   UNL     1      -1.851   3.230  24.049  0.00  0.00    +0.066 A 
ATOM     17  C   UNL     1      -1.712   2.602  25.262  0.00  0.00    +0.056 A 
ATOM     19  C   UNL     1      -3.200  -0.639  24.373  0.00  0.00    +0.242 C 
ATOM     20  C   UNL     1      -1.423   4.771  25.439  0.00  0.00    +0.197 A 
ATOM     32  H   UNL     1      -1.267   3.495  27.143  0.00  0.00    +0.167 HD
ENDROOT
BRANCH  13  18
ATOM      3  O   UNL     1      -0.299  -0.344  21.647  0.00  0.00    -0.336 OA
ATOM     11  N   UNL     1       0.644   0.779  23.340  0.00  0.00    -0.190 NA
ATOM     12  N   UNL     1       1.069  -0.638  21.595  0.00  0.00    -0.056 NA
ATOM     18  C   UNL     1      -0.463   0.496  22.702  0.00  0.00    +0.249 A 
ATOM     22  C   UNL     1       1.557   0.060  22.624  0.00  0.00    +0.202 A 
BRANCH  22  23
ATOM      1 CL   UNL     1       5.656  -2.548  24.332  0.00  0.00    -0.081 Cl
ATOM      2  F   UNL     1       6.963   0.084  23.944  0.00  0.00    -0.204 F 
ATOM     23  C   UNL     1       2.951   0.062  22.964  0.00  0.00    +0.024 A 
ATOM     25  C   UNL     1       3.557  -1.106  23.428  0.00  0.00    +0.034 A 
ATOM     26  C   UNL     1       3.699   1.231  22.832  0.00  0.00    +0.014 A 
ATOM     27  C   UNL     1       4.912  -1.103  23.760  0.00  0.00    +0.077 A 
ATOM     28  C   UNL     1       5.054   1.233  23.163  0.00  0.00    +0.040 A 
ATOM     29  C   UNL     1       5.660   0.065  23.627  0.00  0.00    +0.142 A 
ENDBRANCH  22  23
ENDBRANCH  13  18
BRANCH  19  21
ATOM     21  C   UNL     1      -3.546  -1.154  25.748  0.00  0.00    +0.256 C 
BRANCH  21   5
ATOM      5  O   UNL     1      -4.570  -0.324  26.241  0.00  0.00    -0.359 OA
BRANCH   5  24
ATOM     24  C   UNL     1      -5.223   0.397  25.197  0.00  0.00    +0.280 C 
BRANCH  24  30
ATOM      7  O   UNL     1      -6.267   1.928  26.761  0.00  0.00    -0.248 OA
ATOM     30  C   UNL     1      -5.641   1.745  25.727  0.00  0.00    +0.333 C 
BRANCH  30   6
ATOM      6  O   UNL     1      -5.209   2.712  24.866  0.00  0.00    -0.466 OA
ATOM     31  C   UNL     1      -5.093   4.025  25.424  0.00  0.00    +0.280 C 
ENDBRANCH  30   6
ENDBRANCH  24  30
ENDBRANCH   5  24
ENDBRANCH  21   5
ENDBRANCH  19  21
TORSDOF 7
ENDMDL
MODEL 5
REMARK VINA RESULT:       3.0      1.643      1.799
REMARK  Name = 75536039
REMARK  8 active torsions:
REMARK  status: ('A' for Active; 'I' for Inactive)
REMARK    1  A    between atoms: O_5  and  C_21
REMARK    2  A    between atoms: O_5  and  C_24
REMARK    3  A    between atoms: O_6  and  C_30
REMARK    4  A    between atoms: O_6  and  C_31
REMARK    5  A    between atoms: C_13  and  C_18
REMARK    6  A    between atoms: C_19  and  C_21
REMARK    7  A    between atoms: C_22  and  C_23
REMARK    8  A    between atoms: C_24  and  C_30
REMARK                            x       y       z     vdW  Elec       q    Type
REMARK                         _______ _______ _______ _____ _____    ______ ____
ROOT
ATOM      4  O   UNL     1      -4.331  -0.530  23.318  0.00  0.00    -0.273 OA
ATOM      8  N   UNL     1      -2.895   0.998  24.337  0.00  0.00    -0.282 N 
ATOM      9  N   UNL     1      -1.703   3.997  26.209  0.00  0.00    -0.347 N 
ATOM     10  N   UNL     1      -1.657   4.965  24.195  0.00  0.00    -0.240 NA
ATOM     13  C   UNL     1      -2.260   1.394  23.033  0.00  0.00    +0.171 C 
ATOM     14  C   UNL     1      -2.310   2.938  22.822  0.00  0.00    +0.089 C 
ATOM     15  C   UNL     1      -2.364   1.616  25.584  0.00  0.00    +0.163 C 
ATOM     16  C   UNL     1      -2.003   3.647  24.084  0.00  0.00    +0.066 A 
ATOM     17  C   UNL     1      -2.042   3.029  25.310  0.00  0.00    +0.056 A 
ATOM     19  C   UNL     1      -3.876  -0.003  24.337  0.00  0.00    +0.242 C 
ATOM     20  C   UNL     1      -1.481   5.144  25.489  0.00  0.00    +0.197 A 
ATOM     32  H   UNL     1      -1.626   3.893  27.212  0.00  0.00    +0.167 HD
ENDROOT
BRANCH  13  18
ATOM      3  O   UNL     1      -0.882  -0.494  22.281  0.00  0.00    -0.336 OA
ATOM     11  N   UNL     1       0.288   1.165  23.229  0.00  0.00    -0.190 NA
ATOM     12  N   UNL     1       0.460  -0.895  22.248  0.00  0.00    -0.056 NA
ATOM     18  C   UNL     1      -0.894   0.729  22.874  0.00  0.00    +0.249 A 
ATOM     22  C   UNL     1       1.086   0.134  22.825  0.00  0.00    +0.202 A 
BRANCH  22  23
ATOM      1 CL   UNL     1       5.390  -2.367  24.142  0.00  0.00    -0.081 Cl
ATOM      2  F   UNL     1       6.602   0.273  23.549  0.00  0.00    -0.204 F 
ATOM     23  C   UNL     1       2.509   0.166  23.011  0.00  0.00    +0.024 A 
ATOM     25  C   UNL     1       3.182  -0.980  23.436  0.00  0.00    +0.034 A 
ATOM     26  C   UNL     1       3.217   1.342  22.770  0.00  0.00    +0.014 A 
ATOM     27  C   UNL     1       4.564  -0.949  23.619  0.00  0.00    +0.077 A 
ATOM     28  C   UNL     1       4.600   1.373  22.952  0.00  0.00    +0.040 A 
ATOM     29  C   UNL     1       5.273   0.227  23.376  0.00  0.00    +0.142 A 
ENDBRANCH  22  23
ENDBRANCH  13  18
BRANCH  19  21
ATOM     21  C   UNL     1      -4.392  -0.441  25.686  0.00  0.00    +0.256 C 
BRANCH  21   5
ATOM      5  O   UNL     1      -3.483  -1.399  26.170  0.00  0.00    -0.359 OA
BRANCH   5  24
ATOM     24  C   UNL     1      -3.390  -2.533  25.308  0.00  0.00    +0.280 C 
BRANCH  24  30
ATOM      7  O   UNL     1      -1.710  -3.203  23.694  0.00  0.00    -0.248 OA
ATOM     30  C   UNL     1      -2.018  -2.558  24.687  0.00  0.00    +0.333 C 
BRANCH  30   6
ATOM      6  O   UNL     1      -1.188  -1.751  25.411  0.00  0.00    -0.466 OA
ATOM     31  C   UNL     1       0.170  -2.192  25.507  0.00  0.00    +0.280 C 
ENDBRANCH  30   6
ENDBRANCH  24  30
ENDBRANCH   5  24
ENDBRANCH  21   5
ENDBRANCH  19  21
TORSDOF 7
ENDMDL
MODEL 6
REMARK VINA RESULT:       3.5      3.100      3.800
REMARK  Name = 75536039
REMARK  8 active torsions:
REMARK  status: ('A' for Active; 'I' for Inactive)
REMARK    1  A    between atoms: O_5  and  C_21
REMARK    2  A    between atoms: O_5  and  C_24
REMARK    3  A    between atoms: O_6  and  C_30
REMARK    4  A    between atoms: O_6  and  C_31
REMARK    5  A    between atoms: C_13  and  C_18
REMARK    6  A    between atoms: C_19  and  C_21
REMARK    7  A    between atoms: C_22  and  C_23
REMARK    8  A    between atoms: C_24  and  C_30
REMARK                            x       y       z     vdW  Elec       q    Type
REMARK                         _______ _______ _______ _____ _____    ______ ____
ROOT
ATOM      4  O   UNL     1      -2.972  -0.182  22.439  0.00  0.00    -0.273 OA
ATOM      8  N   UNL     1      -3.746   1.117  24.213  0.00  0.00    -0.282 N 
ATOM      9  N   UNL     1      -6.072   2.984  26.454  0.00  0.00    -0.347 N 
ATOM     10  N   UNL     1      -5.658   4.704  25.090  0.00  0.00    -0.240 NA
ATOM     13  C   UNL     1      -2.998   2.337  23.752  0.00  0.00    +0.171 C 
ATOM     14  C   UNL     1      -3.948   3.566  23.608  0.00  0.00    +0.089 C 
ATOM     15  C   UNL     1      -4.516   1.214  25.485  0.00  0.00    +0.163 C 
ATOM     16  C   UNL     1      -4.906   3.620  24.733  0.00  0.00    +0.066 A 
ATOM     17  C   UNL     1      -5.146   2.546  25.555  0.00  0.00    +0.056 A 
ATOM     19  C   UNL     1      -3.605  -0.077  23.493  0.00  0.00    +0.242 C 
ATOM     20  C   UNL     1      -6.349   4.289  26.132  0.00  0.00    +0.197 A 
ATOM     32  H   UNL     1      -6.479   2.453  27.213  0.00  0.00    +0.167 HD
ENDROOT
BRANCH  13  18
ATOM      3  O   UNL     1      -0.659   3.059  23.942  0.00  0.00    -0.336 OA
ATOM     11  N   UNL     1      -1.535   2.302  25.860  0.00  0.00    -0.190 NA
ATOM     12  N   UNL     1       0.357   3.158  24.901  0.00  0.00    -0.056 NA
ATOM     18  C   UNL     1      -1.738   2.546  24.590  0.00  0.00    +0.249 A 
ATOM     22  C   UNL     1      -0.235   2.693  26.004  0.00  0.00    +0.202 A 
BRANCH  22  23
ATOM      1 CL   UNL     1       4.215   2.594  28.593  0.00  0.00    -0.081 Cl
ATOM      2  F   UNL     1       2.377   2.351  30.906  0.00  0.00    -0.204 F 
ATOM     23  C   UNL     1       0.442   2.606  27.266  0.00  0.00    +0.024 A 
ATOM     25  C   UNL     1       1.835   2.638  27.313  0.00  0.00    +0.034 A 
ATOM     26  C   UNL     1      -0.294   2.489  28.445  0.00  0.00    +0.014 A 
ATOM     27  C   UNL     1       2.494   2.553  28.540  0.00  0.00    +0.077 A 
ATOM     28  C   UNL     1       0.365   2.404  29.672  0.00  0.00    +0.040 A 
ATOM     29  C   UNL     1       1.758   2.436  29.719  0.00  0.00    +0.142 A 
ENDBRANCH  22  23
ENDBRANCH  13  18
BRANCH  19  21
ATOM     21  C   UNL     1      -4.284  -1.295  24.069  0.00  0.00    +0.256 C 
BRANCH  21   5
ATOM      5  O   UNL     1      -3.471  -1.745  25.126  0.00  0.00    -0.359 OA
BRANCH   5  24
ATOM     24  C   UNL     1      -2.251  -2.318  24.656  0.00  0.00    +0.280 C 
BRANCH  24  30
ATOM      7  O   UNL     1      -1.074  -0.804  26.140  0.00  0.00    -0.248 OA
ATOM     30  C   UNL     1      -1.104  -1.448  25.101  0.00  0.00    +0.333 C 
BRANCH  30   6
ATOM      6  O   UNL     1      -0.118  -1.500  24.158  0.00  0.00    -0.466 OA
ATOM     31  C   UNL     1       0.312  -0.234  23.647  0.00  0.00    +0.280 C 
ENDBRANCH  30   6
ENDBRANCH  24  30
ENDBRANCH   5  24
ENDBRANCH  21   5
ENDBRANCH  19  21
TORSDOF 7
ENDMDL
MODEL 7
REMARK VINA RESULT:       5.1      3.823      6.814
REMARK  Name = 75536039
REMARK  8 active torsions:
REMARK  status: ('A' for Active; 'I' for Inactive)
REMARK    1  A    between atoms: O_5  and  C_21
REMARK    2  A    between atoms: O_5  and  C_24
REMARK    3  A    between atoms: O_6  and  C_30
REMARK    4  A    between atoms: O_6  and  C_31
REMARK    5  A    between atoms: C_13  and  C_18
REMARK    6  A    between atoms: C_19  and  C_21
REMARK    7  A    between atoms: C_22  and  C_23
REMARK    8  A    between atoms: C_24  and  C_30
REMARK                            x       y       z     vdW  Elec       q    Type
REMARK                         _______ _______ _______ _____ _____    ______ ____
ROOT
ATOM      4  O   UNL     1      -0.619  -1.852  26.183  0.00  0.00    -0.273 OA
ATOM      8  N   UNL     1       0.072  -0.839  24.200  0.00  0.00    -0.282 N 
ATOM      9  N   UNL     1       1.927  -0.230  21.022  0.00  0.00    -0.347 N 
ATOM     10  N   UNL     1       3.384   0.843  22.333  0.00  0.00    -0.240 NA
ATOM     13  C   UNL     1       0.632   0.360  24.914  0.00  0.00    +0.171 C 
ATOM     14  C   UNL     1       2.118   0.615  24.516  0.00  0.00    +0.089 C 
ATOM     15  C   UNL     1       0.122  -0.848  22.712  0.00  0.00    +0.163 C 
ATOM     16  C   UNL     1       2.312   0.413  23.063  0.00  0.00    +0.066 A 
ATOM     17  C   UNL     1       1.402  -0.254  22.280  0.00  0.00    +0.056 A 
ATOM     19  C   UNL     1      -0.563  -1.838  24.951  0.00  0.00    +0.242 C 
ATOM     20  C   UNL     1       3.122   0.441  21.106  0.00  0.00    +0.197 A 
ATOM     32  H   UNL     1       1.519  -0.627  20.186  0.00  0.00    +0.167 HD
ENDROOT
BRANCH  13  18
ATOM      3  O   UNL     1       0.202   2.689  24.265  0.00  0.00    -0.336 OA
ATOM     11  N   UNL     1      -1.578   1.644  25.136  0.00  0.00    -0.190 NA
ATOM     12  N   UNL     1      -0.840   3.625  24.260  0.00  0.00    -0.056 NA
ATOM     18  C   UNL     1      -0.318   1.551  24.796  0.00  0.00    +0.249 A 
ATOM     22  C   UNL     1      -1.854   2.935  24.789  0.00  0.00    +0.202 A 
BRANCH  22  23
ATOM      1 CL   UNL     1      -6.695   2.345  26.444  0.00  0.00    -0.081 Cl
ATOM      2  F   UNL     1      -6.903   5.156  25.528  0.00  0.00    -0.204 F 
ATOM     23  C   UNL     1      -3.157   3.505  24.982  0.00  0.00    +0.024 A 
ATOM     25  C   UNL     1      -4.175   2.740  25.552  0.00  0.00    +0.034 A 
ATOM     26  C   UNL     1      -3.405   4.822  24.599  0.00  0.00    +0.014 A 
ATOM     27  C   UNL     1      -5.442   3.293  25.739  0.00  0.00    +0.077 A 
ATOM     28  C   UNL     1      -4.672   5.376  24.787  0.00  0.00    +0.040 A 
ATOM     29  C   UNL     1      -5.690   4.611  25.357  0.00  0.00    +0.142 A 
ENDBRANCH  22  23
ENDBRANCH  13  18
BRANCH  19  21
ATOM     21  C   UNL     1      -1.209  -2.958  24.171  0.00  0.00    +0.256 C 
BRANCH  21   5
ATOM      5  O   UNL     1      -2.450  -3.210  24.786  0.00  0.00    -0.359 OA
BRANCH   5  24
ATOM     24  C   UNL     1      -3.513  -2.495  24.158  0.00  0.00    +0.280 C 
BRANCH  24  30
ATOM      7  O   UNL     1      -3.726  -1.243  26.223  0.00  0.00    -0.248 OA
ATOM     30  C   UNL     1      -3.865  -1.303  25.009  0.00  0.00    +0.333 C 
BRANCH  30   6
ATOM      6  O   UNL     1      -4.361  -0.316  24.207  0.00  0.00    -0.466 OA
ATOM     31  C   UNL     1      -3.511   0.084  23.127  0.00  0.00    +0.280 C 
ENDBRANCH  30   6
ENDBRANCH  24  30
ENDBRANCH   5  24
ENDBRANCH  21   5
ENDBRANCH  19  21
TORSDOF 7
ENDMDL
