MODEL 1
REMARK VINA RESULT:      -3.2      0.000      0.000
REMARK  Name = 38027645
REMARK  15 active torsions:
REMARK  status: ('A' for Active; 'I' for Inactive)
REMARK    1  A    between atoms: S_1  and  N_6
REMARK    2  A    between atoms: S_1  and  C_22
REMARK    3  A    between atoms: O_5  and  C_26
REMARK    4  A    between atoms: O_5  and  C_31
REMARK    5  A    between atoms: N_6  and  C_16
REMARK    6  A    between atoms: N_7  and  C_23
REMARK    7  A    between atoms: C_9  and  C_13
REMARK    8  A    between atoms: C_10  and  C_16
REMARK    9  A    between atoms: C_12  and  C_17
REMARK   10  A    between atoms: C_13  and  C_18
REMARK   11  A    between atoms: C_13  and  C_19
REMARK   12  A    between atoms: C_14  and  C_20
REMARK   13  A    between atoms: C_17  and  C_21
REMARK   14  A    between atoms: C_23  and  C_26
REMARK   15  A    between atoms: C_27  and  C_30
REMARK                            x       y       z     vdW  Elec       q    Type
REMARK                         _______ _______ _______ _____ _____    ______ ____
ROOT
ATOM      9  C   UNL     1      -2.458  -1.626  24.317  0.00  0.00    +0.000 C 
ATOM     10  C   UNL     1      -3.118  -0.844  25.479  0.00  0.00    +0.030 C 
ATOM     11  C   UNL     1      -0.935  -1.681  24.506  0.00  0.00    +0.012 C 
ATOM     12  C   UNL     1      -0.304  -0.277  24.568  0.00  0.00    +0.023 C 
ATOM     14  C   UNL     1      -1.069   0.642  25.500  0.00  0.00    -0.073 C 
ATOM     15  C   UNL     1      -2.321   0.365  25.907  0.00  0.00    -0.023 C 
ATOM     20  C   UNL     1      -0.345   1.865  25.990  0.00  0.00    +0.039 C 
ENDROOT
BRANCH   9  13
ATOM     13  C   UNL     1      -3.017  -3.047  24.198  0.00  0.00    -0.013 C 
ATOM     18  C   UNL     1      -3.236  -3.651  25.581  0.00  0.00    +0.007 C 
ATOM     19  C   UNL     1      -4.315  -3.043  23.397  0.00  0.00    +0.007 C 
ENDBRANCH   9  13
BRANCH  10  16
ATOM     16  C   UNL     1      -4.544  -0.412  25.116  0.00  0.00    +0.113 C 
BRANCH  16   6
ATOM      6  N   UNL     1      -4.994   0.614  26.069  0.00  0.00    -0.189 NA
ATOM     32  H   UNL     1      -5.366   0.282  26.967  0.00  0.00    +0.148 HD
BRANCH   6   1
ATOM      1  S   UNL     1      -5.522   2.134  25.508  0.00  0.00    +0.058 S 
ATOM      3  O   UNL     1      -5.633   3.047  26.629  0.00  0.00    -0.153 OA
ATOM      4  O   UNL     1      -6.644   1.943  24.609  0.00  0.00    -0.153 OA
BRANCH   1  22
ATOM     22  C   UNL     1      -4.151   2.648  24.518  0.00  0.00    +0.106 A 
ATOM     24  C   UNL     1      -3.288   3.641  24.984  0.00  0.00    +0.047 A 
ATOM     25  C   UNL     1      -3.932   2.063  23.272  0.00  0.00    +0.028 A 
ATOM     27  C   UNL     1      -2.208   4.048  24.202  0.00  0.00    +0.054 A 
ATOM     28  C   UNL     1      -2.852   2.470  22.489  0.00  0.00    +0.003 A 
ATOM     29  C   UNL     1      -1.989   3.463  22.955  0.00  0.00    +0.019 A 
BRANCH  27  30
ATOM      8  N   UNL     1      -0.606   5.891  25.065  0.00  0.00    -0.191 NA
ATOM     30  C   UNL     1      -1.324   5.065  24.678  0.00  0.00    +0.099 C 
ENDBRANCH  27  30
ENDBRANCH   1  22
ENDBRANCH   6   1
ENDBRANCH  16   6
ENDBRANCH  10  16
BRANCH  12  17
ATOM     17  C   UNL     1      -0.184   0.338  23.170  0.00  0.00    +0.103 C 
BRANCH  17  21
ATOM      2  O   UNL     1       1.064  -0.593  21.317  0.00  0.00    -0.276 OA
ATOM      7  N   UNL     1       2.189   0.057  23.244  0.00  0.00    -0.313 N 
ATOM     21  C   UNL     1       1.066  -0.123  22.452  0.00  0.00    +0.214 C 
ATOM     33  H   UNL     1       2.090   0.457  24.173  0.00  0.00    +0.149 HD
BRANCH   7  23
ATOM     23  C   UNL     1       3.523  -0.297  22.815  0.00  0.00    +0.132 C 
BRANCH  23  26
ATOM     26  C   UNL     1       4.427   0.919  22.909  0.00  0.00    +0.178 C 
BRANCH  26   5
ATOM      5  O   UNL     1       5.360   0.734  23.965  0.00  0.00    -0.381 OA
ATOM     31  C   UNL     1       5.513  -0.641  24.290  0.00  0.00    +0.194 C 
ENDBRANCH  26   5
ENDBRANCH  23  26
ENDBRANCH   7  23
ENDBRANCH  17  21
ENDBRANCH  12  17
TORSDOF 11
ENDMDL
MODEL 2
REMARK VINA RESULT:      -2.0      1.475      4.710
REMARK  Name = 38027645
REMARK  15 active torsions:
REMARK  status: ('A' for Active; 'I' for Inactive)
REMARK    1  A    between atoms: S_1  and  N_6
REMARK    2  A    between atoms: S_1  and  C_22
REMARK    3  A    between atoms: O_5  and  C_26
REMARK    4  A    between atoms: O_5  and  C_31
REMARK    5  A    between atoms: N_6  and  C_16
REMARK    6  A    between atoms: N_7  and  C_23
REMARK    7  A    between atoms: C_9  and  C_13
REMARK    8  A    between atoms: C_10  and  C_16
REMARK    9  A    between atoms: C_12  and  C_17
REMARK   10  A    between atoms: C_13  and  C_18
REMARK   11  A    between atoms: C_13  and  C_19
REMARK   12  A    between atoms: C_14  and  C_20
REMARK   13  A    between atoms: C_17  and  C_21
REMARK   14  A    between atoms: C_23  and  C_26
REMARK   15  A    between atoms: C_27  and  C_30
REMARK                            x       y       z     vdW  Elec       q    Type
REMARK                         _______ _______ _______ _____ _____    ______ ____
ROOT
ATOM      9  C   UNL     1      -1.760   3.938  24.722  0.00  0.00    +0.000 C 
ATOM     10  C   UNL     1      -3.191   3.876  24.131  0.00  0.00    +0.030 C 
ATOM     11  C   UNL     1      -0.721   3.581  23.650  0.00  0.00    +0.012 C 
ATOM     12  C   UNL     1      -0.946   2.173  23.067  0.00  0.00    +0.023 C 
ATOM     14  C   UNL     1      -2.399   1.939  22.706  0.00  0.00    -0.073 C 
ATOM     15  C   UNL     1      -3.387   2.718  23.181  0.00  0.00    -0.023 C 
ATOM     20  C   UNL     1      -2.687   0.815  21.750  0.00  0.00    +0.039 C 
ENDROOT
BRANCH   9  13
ATOM     13  C   UNL     1      -1.447   5.319  25.308  0.00  0.00    -0.013 C 
ATOM     18  C   UNL     1      -0.051   5.771  24.890  0.00  0.00    +0.007 C 
ATOM     19  C   UNL     1      -2.498   6.334  24.869  0.00  0.00    +0.007 C 
ENDBRANCH   9  13
BRANCH  10  16
ATOM     16  C   UNL     1      -4.246   3.809  25.242  0.00  0.00    +0.113 C 
BRANCH  16   6
ATOM      6  N   UNL     1      -4.205   2.476  25.864  0.00  0.00    -0.189 NA
ATOM     32  H   UNL     1      -3.278   2.105  26.104  0.00  0.00    +0.148 HD
BRANCH   6   1
ATOM      1  S   UNL     1      -5.455   1.355  25.572  0.00  0.00    +0.058 S 
ATOM      3  O   UNL     1      -6.254   1.809  24.451  0.00  0.00    -0.153 OA
ATOM      4  O   UNL     1      -6.090   1.015  26.831  0.00  0.00    -0.153 OA
BRANCH   1  22
ATOM     22  C   UNL     1      -4.545  -0.069  25.052  0.00  0.00    +0.106 A 
ATOM     24  C   UNL     1      -3.274  -0.313  25.572  0.00  0.00    +0.047 A 
ATOM     25  C   UNL     1      -5.098  -0.947  24.120  0.00  0.00    +0.028 A 
ATOM     27  C   UNL     1      -2.556  -1.435  25.159  0.00  0.00    +0.054 A 
ATOM     28  C   UNL     1      -4.380  -2.069  23.708  0.00  0.00    +0.003 A 
ATOM     29  C   UNL     1      -3.108  -2.313  24.227  0.00  0.00    +0.019 A 
BRANCH  27  30
ATOM      8  N   UNL     1      -0.196  -1.889  26.124  0.00  0.00    -0.191 NA
ATOM     30  C   UNL     1      -1.253  -1.686  25.692  0.00  0.00    +0.099 C 
ENDBRANCH  27  30
ENDBRANCH   1  22
ENDBRANCH   6   1
ENDBRANCH  16   6
ENDBRANCH  10  16
BRANCH  12  17
ATOM     17  C   UNL     1      -0.438   1.091  24.026  0.00  0.00    +0.103 C 
BRANCH  17  21
ATOM      2  O   UNL     1       0.279  -0.964  22.968  0.00  0.00    -0.276 OA
ATOM      7  N   UNL     1       1.805   0.763  23.267  0.00  0.00    -0.313 N 
ATOM     21  C   UNL     1       0.558   0.166  23.363  0.00  0.00    +0.214 C 
ATOM     33  H   UNL     1       1.939   1.706  23.622  0.00  0.00    +0.149 HD
BRANCH   7  23
ATOM     23  C   UNL     1       2.952   0.109  22.678  0.00  0.00    +0.132 C 
BRANCH  23  26
ATOM     26  C   UNL     1       4.127   1.070  22.652  0.00  0.00    +0.178 C 
BRANCH  26   5
ATOM      5  O   UNL     1       4.954   0.835  23.784  0.00  0.00    -0.381 OA
ATOM     31  C   UNL     1       5.405  -0.512  23.828  0.00  0.00    +0.194 C 
ENDBRANCH  26   5
ENDBRANCH  23  26
ENDBRANCH   7  23
ENDBRANCH  17  21
ENDBRANCH  12  17
TORSDOF 11
ENDMDL
MODEL 3
REMARK VINA RESULT:      -1.7      1.117      1.648
REMARK  Name = 38027645
REMARK  15 active torsions:
REMARK  status: ('A' for Active; 'I' for Inactive)
REMARK    1  A    between atoms: S_1  and  N_6
REMARK    2  A    between atoms: S_1  and  C_22
REMARK    3  A    between atoms: O_5  and  C_26
REMARK    4  A    between atoms: O_5  and  C_31
REMARK    5  A    between atoms: N_6  and  C_16
REMARK    6  A    between atoms: N_7  and  C_23
REMARK    7  A    between atoms: C_9  and  C_13
REMARK    8  A    between atoms: C_10  and  C_16
REMARK    9  A    between atoms: C_12  and  C_17
REMARK   10  A    between atoms: C_13  and  C_18
REMARK   11  A    between atoms: C_13  and  C_19
REMARK   12  A    between atoms: C_14  and  C_20
REMARK   13  A    between atoms: C_17  and  C_21
REMARK   14  A    between atoms: C_23  and  C_26
REMARK   15  A    between atoms: C_27  and  C_30
REMARK                            x       y       z     vdW  Elec       q    Type
REMARK                         _______ _______ _______ _____ _____    ______ ____
ROOT
ATOM      9  C   UNL     1      -2.428  -1.775  24.492  0.00  0.00    +0.000 C 
ATOM     10  C   UNL     1      -2.953  -1.145  25.806  0.00  0.00    +0.030 C 
ATOM     11  C   UNL     1      -0.895  -1.861  24.514  0.00  0.00    +0.012 C 
ATOM     12  C   UNL     1      -0.236  -0.480  24.690  0.00  0.00    +0.023 C 
ATOM     14  C   UNL     1      -0.886   0.316  25.804  0.00  0.00    -0.073 C 
ATOM     15  C   UNL     1      -2.095  -0.004  26.299  0.00  0.00    -0.023 C 
ATOM     20  C   UNL     1      -0.093   1.462  26.369  0.00  0.00    +0.039 C 
ENDROOT
BRANCH   9  13
ATOM     13  C   UNL     1      -3.022  -3.166  24.251  0.00  0.00    -0.013 C 
ATOM     18  C   UNL     1      -4.427  -3.052  23.668  0.00  0.00    +0.007 C 
ATOM     19  C   UNL     1      -2.118  -3.978  23.328  0.00  0.00    +0.007 C 
ENDBRANCH   9  13
BRANCH  10  16
ATOM     16  C   UNL     1      -4.400  -0.663  25.649  0.00  0.00    +0.113 C 
BRANCH  16   6
ATOM      6  N   UNL     1      -4.430   0.473  24.714  0.00  0.00    -0.189 NA
ATOM     32  H   UNL     1      -3.622   0.580  24.088  0.00  0.00    +0.148 HD
BRANCH   6   1
ATOM      1  S   UNL     1      -5.329   1.870  25.091  0.00  0.00    +0.058 S 
ATOM      3  O   UNL     1      -5.994   1.683  26.365  0.00  0.00    -0.153 OA
ATOM      4  O   UNL     1      -6.089   2.274  23.923  0.00  0.00    -0.153 OA
BRANCH   1  22
ATOM     22  C   UNL     1      -4.050   3.070  25.314  0.00  0.00    +0.106 A 
ATOM     24  C   UNL     1      -2.859   2.963  24.596  0.00  0.00    +0.047 A 
ATOM     25  C   UNL     1      -4.231   4.123  26.211  0.00  0.00    +0.028 A 
ATOM     27  C   UNL     1      -1.849   3.908  24.774  0.00  0.00    +0.054 A 
ATOM     28  C   UNL     1      -3.221   5.068  26.390  0.00  0.00    +0.003 A 
ATOM     29  C   UNL     1      -2.030   4.961  25.671  0.00  0.00    +0.019 A 
BRANCH  27  30
ATOM      8  N   UNL     1       0.361   3.710  23.441  0.00  0.00    -0.191 NA
ATOM     30  C   UNL     1      -0.629   3.799  24.038  0.00  0.00    +0.099 C 
ENDBRANCH  27  30
ENDBRANCH   1  22
ENDBRANCH   6   1
ENDBRANCH  16   6
ENDBRANCH  10  16
BRANCH  12  17
ATOM     17  C   UNL     1      -0.246   0.308  23.375  0.00  0.00    +0.103 C 
BRANCH  17  21
ATOM      2  O   UNL     1       1.267  -0.404  21.626  0.00  0.00    -0.276 OA
ATOM      7  N   UNL     1       2.046   0.982  23.322  0.00  0.00    -0.313 N 
ATOM     21  C   UNL     1       1.084   0.237  22.659  0.00  0.00    +0.214 C 
ATOM     33  H   UNL     1       1.798   1.481  24.171  0.00  0.00    +0.149 HD
BRANCH   7  23
ATOM     23  C   UNL     1       3.413   1.094  22.864  0.00  0.00    +0.132 C 
BRANCH  23  26
ATOM     26  C   UNL     1       3.983  -0.293  22.623  0.00  0.00    +0.178 C 
BRANCH  26   5
ATOM      5  O   UNL     1       4.654  -0.737  23.796  0.00  0.00    -0.381 OA
ATOM     31  C   UNL     1       5.664   0.178  24.196  0.00  0.00    +0.194 C 
ENDBRANCH  26   5
ENDBRANCH  23  26
ENDBRANCH   7  23
ENDBRANCH  17  21
ENDBRANCH  12  17
TORSDOF 11
ENDMDL
MODEL 4
REMARK VINA RESULT:      -0.8      1.769      3.353
REMARK  Name = 38027645
REMARK  15 active torsions:
REMARK  status: ('A' for Active; 'I' for Inactive)
REMARK    1  A    between atoms: S_1  and  N_6
REMARK    2  A    between atoms: S_1  and  C_22
REMARK    3  A    between atoms: O_5  and  C_26
REMARK    4  A    between atoms: O_5  and  C_31
REMARK    5  A    between atoms: N_6  and  C_16
REMARK    6  A    between atoms: N_7  and  C_23
REMARK    7  A    between atoms: C_9  and  C_13
REMARK    8  A    between atoms: C_10  and  C_16
REMARK    9  A    between atoms: C_12  and  C_17
REMARK   10  A    between atoms: C_13  and  C_18
REMARK   11  A    between atoms: C_13  and  C_19
REMARK   12  A    between atoms: C_14  and  C_20
REMARK   13  A    between atoms: C_17  and  C_21
REMARK   14  A    between atoms: C_23  and  C_26
REMARK   15  A    between atoms: C_27  and  C_30
REMARK                            x       y       z     vdW  Elec       q    Type
REMARK                         _______ _______ _______ _____ _____    ______ ____
ROOT
ATOM      9  C   UNL     1      -2.846   0.526  23.853  0.00  0.00    +0.000 C 
ATOM     10  C   UNL     1      -4.337   0.144  24.019  0.00  0.00    +0.030 C 
ATOM     11  C   UNL     1      -2.110  -0.533  23.020  0.00  0.00    +0.012 C 
ATOM     12  C   UNL     1      -2.186  -1.933  23.659  0.00  0.00    +0.023 C 
ATOM     14  C   UNL     1      -3.596  -2.275  24.098  0.00  0.00    -0.073 C 
ATOM     15  C   UNL     1      -4.547  -1.335  24.241  0.00  0.00    -0.023 C 
ATOM     20  C   UNL     1      -3.900  -3.730  24.325  0.00  0.00    +0.039 C 
ENDROOT
BRANCH   9  13
ATOM     13  C   UNL     1      -2.681   1.904  23.203  0.00  0.00    -0.013 C 
ATOM     18  C   UNL     1      -1.202   2.234  23.024  0.00  0.00    +0.007 C 
ATOM     19  C   UNL     1      -3.412   1.951  21.865  0.00  0.00    +0.007 C 
ENDBRANCH   9  13
BRANCH  10  16
ATOM     16  C   UNL     1      -4.985   0.928  25.167  0.00  0.00    +0.113 C 
BRANCH  16   6
ATOM      6  N   UNL     1      -5.295   2.290  24.704  0.00  0.00    -0.189 NA
ATOM     32  H   UNL     1      -5.185   2.474  23.699  0.00  0.00    +0.148 HD
BRANCH   6   1
ATOM      1  S   UNL     1      -5.152   3.611  25.770  0.00  0.00    +0.058 S 
ATOM      3  O   UNL     1      -5.272   3.140  27.135  0.00  0.00    -0.153 OA
ATOM      4  O   UNL     1      -5.991   4.695  25.296  0.00  0.00    -0.153 OA
BRANCH   1  22
ATOM     22  C   UNL     1      -3.475   4.105  25.508  0.00  0.00    +0.106 A 
ATOM     24  C   UNL     1      -2.437   3.393  26.108  0.00  0.00    +0.047 A 
ATOM     25  C   UNL     1      -3.191   5.208  24.704  0.00  0.00    +0.028 A 
ATOM     27  C   UNL     1      -1.114   3.784  25.903  0.00  0.00    +0.054 A 
ATOM     28  C   UNL     1      -1.868   5.600  24.499  0.00  0.00    +0.003 A 
ATOM     29  C   UNL     1      -0.829   4.887  25.099  0.00  0.00    +0.019 A 
BRANCH  27  30
ATOM      8  N   UNL     1       0.815   2.462  27.016  0.00  0.00    -0.191 NA
ATOM     30  C   UNL     1      -0.049   3.055  26.517  0.00  0.00    +0.099 C 
ENDBRANCH  27  30
ENDBRANCH   1  22
ENDBRANCH   6   1
ENDBRANCH  16   6
ENDBRANCH  10  16
BRANCH  12  17
ATOM     17  C   UNL     1      -1.202  -2.061  24.826  0.00  0.00    +0.103 C 
BRANCH  17  21
ATOM      2  O   UNL     1      -0.428  -0.051  25.930  0.00  0.00    -0.276 OA
ATOM      7  N   UNL     1       0.545  -0.703  23.923  0.00  0.00    -0.313 N 
ATOM     21  C   UNL     1      -0.340  -0.828  24.982  0.00  0.00    +0.214 C 
ATOM     33  H   UNL     1       0.545  -1.400  23.183  0.00  0.00    +0.149 HD
BRANCH   7  23
ATOM     23  C   UNL     1       1.490   0.385  23.807  0.00  0.00    +0.132 C 
BRANCH  23  26
ATOM     26  C   UNL     1       2.453   0.102  22.668  0.00  0.00    +0.178 C 
BRANCH  26   5
ATOM      5  O   UNL     1       3.546   1.009  22.737  0.00  0.00    -0.381 OA
ATOM     31  C   UNL     1       4.740   0.356  23.146  0.00  0.00    +0.194 C 
ENDBRANCH  26   5
ENDBRANCH  23  26
ENDBRANCH   7  23
ENDBRANCH  17  21
ENDBRANCH  12  17
TORSDOF 11
ENDMDL
MODEL 5
REMARK VINA RESULT:      -0.4      2.770      5.573
REMARK  Name = 38027645
REMARK  15 active torsions:
REMARK  status: ('A' for Active; 'I' for Inactive)
REMARK    1  A    between atoms: S_1  and  N_6
REMARK    2  A    between atoms: S_1  and  C_22
REMARK    3  A    between atoms: O_5  and  C_26
REMARK    4  A    between atoms: O_5  and  C_31
REMARK    5  A    between atoms: N_6  and  C_16
REMARK    6  A    between atoms: N_7  and  C_23
REMARK    7  A    between atoms: C_9  and  C_13
REMARK    8  A    between atoms: C_10  and  C_16
REMARK    9  A    between atoms: C_12  and  C_17
REMARK   10  A    between atoms: C_13  and  C_18
REMARK   11  A    between atoms: C_13  and  C_19
REMARK   12  A    between atoms: C_14  and  C_20
REMARK   13  A    between atoms: C_17  and  C_21
REMARK   14  A    between atoms: C_23  and  C_26
REMARK   15  A    between atoms: C_27  and  C_30
REMARK                            x       y       z     vdW  Elec       q    Type
REMARK                         _______ _______ _______ _____ _____    ______ ____
ROOT
ATOM      9  C   UNL     1      -1.884   3.625  24.600  0.00  0.00    +0.000 C 
ATOM     10  C   UNL     1      -2.496   3.025  23.311  0.00  0.00    +0.030 C 
ATOM     11  C   UNL     1      -0.352   3.529  24.561  0.00  0.00    +0.012 C 
ATOM     12  C   UNL     1       0.137   2.075  24.420  0.00  0.00    +0.023 C 
ATOM     14  C   UNL     1      -0.616   1.331  23.336  0.00  0.00    -0.073 C 
ATOM     15  C   UNL     1      -1.785   1.777  22.843  0.00  0.00    -0.023 C 
ATOM     20  C   UNL     1       0.028   0.083  22.798  0.00  0.00    +0.039 C 
ENDROOT
BRANCH   9  13
ATOM     13  C   UNL     1      -2.306   5.083  24.805  0.00  0.00    -0.013 C 
ATOM     18  C   UNL     1      -3.086   5.234  26.108  0.00  0.00    +0.007 C 
ATOM     19  C   UNL     1      -1.085   5.997  24.797  0.00  0.00    +0.007 C 
ENDBRANCH   9  13
BRANCH  10  16
ATOM     16  C   UNL     1      -3.988   2.722  23.495  0.00  0.00    +0.113 C 
BRANCH  16   6
ATOM      6  N   UNL     1      -4.228   2.319  24.890  0.00  0.00    -0.189 NA
ATOM     32  H   UNL     1      -3.459   2.471  25.555  0.00  0.00    +0.148 HD
BRANCH   6   1
ATOM      1  S   UNL     1      -5.349   1.086  25.246  0.00  0.00    +0.058 S 
ATOM      3  O   UNL     1      -6.478   1.190  24.342  0.00  0.00    -0.153 OA
ATOM      4  O   UNL     1      -5.564   1.040  26.679  0.00  0.00    -0.153 OA
BRANCH   1  22
ATOM     22  C   UNL     1      -4.437  -0.365  24.814  0.00  0.00    +0.106 A 
ATOM     24  C   UNL     1      -3.133  -0.534  25.281  0.00  0.00    +0.047 A 
ATOM     25  C   UNL     1      -5.020  -1.340  24.005  0.00  0.00    +0.028 A 
ATOM     27  C   UNL     1      -2.412  -1.678  24.938  0.00  0.00    +0.054 A 
ATOM     28  C   UNL     1      -4.299  -2.484  23.662  0.00  0.00    +0.003 A 
ATOM     29  C   UNL     1      -2.995  -2.653  24.129  0.00  0.00    +0.019 A 
BRANCH  27  30
ATOM      8  N   UNL     1       0.007  -1.992  25.803  0.00  0.00    -0.191 NA
ATOM     30  C   UNL     1      -1.077  -1.851  25.416  0.00  0.00    +0.099 C 
ENDBRANCH  27  30
ENDBRANCH   1  22
ENDBRANCH   6   1
ENDBRANCH  16   6
ENDBRANCH  10  16
BRANCH  12  17
ATOM     17  C   UNL     1       0.051   1.331  25.758  0.00  0.00    +0.103 C 
BRANCH  17  21
ATOM      2  O   UNL     1      -0.736   2.751  27.552  0.00  0.00    -0.276 OA
ATOM      7  N   UNL     1       1.549   2.484  27.221  0.00  0.00    -0.313 N 
ATOM     21  C   UNL     1       0.210   2.263  26.938  0.00  0.00    +0.214 C 
ATOM     33  H   UNL     1       2.263   2.033  26.655  0.00  0.00    +0.149 HD
BRANCH   7  23
ATOM     23  C   UNL     1       1.999   3.336  28.298  0.00  0.00    +0.132 C 
BRANCH  23  26
ATOM     26  C   UNL     1       2.837   2.526  29.271  0.00  0.00    +0.178 C 
BRANCH  26   5
ATOM      5  O   UNL     1       1.980   1.834  30.170  0.00  0.00    -0.381 OA
ATOM     31  C   UNL     1       0.873   2.636  30.555  0.00  0.00    +0.194 C 
ENDBRANCH  26   5
ENDBRANCH  23  26
ENDBRANCH   7  23
ENDBRANCH  17  21
ENDBRANCH  12  17
TORSDOF 11
ENDMDL
MODEL 6
REMARK VINA RESULT:      -0.1      2.433      5.761
REMARK  Name = 38027645
REMARK  15 active torsions:
REMARK  status: ('A' for Active; 'I' for Inactive)
REMARK    1  A    between atoms: S_1  and  N_6
REMARK    2  A    between atoms: S_1  and  C_22
REMARK    3  A    between atoms: O_5  and  C_26
REMARK    4  A    between atoms: O_5  and  C_31
REMARK    5  A    between atoms: N_6  and  C_16
REMARK    6  A    between atoms: N_7  and  C_23
REMARK    7  A    between atoms: C_9  and  C_13
REMARK    8  A    between atoms: C_10  and  C_16
REMARK    9  A    between atoms: C_12  and  C_17
REMARK   10  A    between atoms: C_13  and  C_18
REMARK   11  A    between atoms: C_13  and  C_19
REMARK   12  A    between atoms: C_14  and  C_20
REMARK   13  A    between atoms: C_17  and  C_21
REMARK   14  A    between atoms: C_23  and  C_26
REMARK   15  A    between atoms: C_27  and  C_30
REMARK                            x       y       z     vdW  Elec       q    Type
REMARK                         _______ _______ _______ _____ _____    ______ ____
ROOT
ATOM      9  C   UNL     1      -3.374   2.537  23.697  0.00  0.00    +0.000 C 
ATOM     10  C   UNL     1      -3.647   3.838  24.492  0.00  0.00    +0.030 C 
ATOM     11  C   UNL     1      -4.667   1.723  23.541  0.00  0.00    +0.012 C 
ATOM     12  C   UNL     1      -5.284   1.343  24.900  0.00  0.00    +0.023 C 
ATOM     14  C   UNL     1      -5.339   2.528  25.844  0.00  0.00    -0.073 C 
ATOM     15  C   UNL     1      -4.611   3.640  25.637  0.00  0.00    -0.023 C 
ATOM     20  C   UNL     1      -6.287   2.424  27.006  0.00  0.00    +0.039 C 
ENDROOT
BRANCH   9  13
ATOM     13  C   UNL     1      -2.775   2.829  22.317  0.00  0.00    -0.013 C 
ATOM     18  C   UNL     1      -2.459   1.526  21.588  0.00  0.00    +0.007 C 
ATOM     19  C   UNL     1      -3.728   3.692  21.495  0.00  0.00    +0.007 C 
ENDBRANCH   9  13
BRANCH  10  16
ATOM     16  C   UNL     1      -2.344   4.447  25.021  0.00  0.00    +0.113 C 
BRANCH  16   6
ATOM      6  N   UNL     1      -1.208   3.646  24.539  0.00  0.00    -0.189 NA
ATOM     32  H   UNL     1      -1.121   3.531  23.521  0.00  0.00    +0.148 HD
BRANCH   6   1
ATOM      1  S   UNL     1      -0.523   2.444  25.532  0.00  0.00    +0.058 S 
ATOM      3  O   UNL     1      -1.582   1.709  26.194  0.00  0.00    -0.153 OA
ATOM      4  O   UNL     1       0.556   3.027  26.308  0.00  0.00    -0.153 OA
BRANCH   1  22
ATOM     22  C   UNL     1       0.221   1.373  24.339  0.00  0.00    +0.106 A 
ATOM     24  C   UNL     1       1.583   1.482  24.056  0.00  0.00    +0.047 A 
ATOM     25  C   UNL     1      -0.554   0.420  23.678  0.00  0.00    +0.028 A 
ATOM     27  C   UNL     1       2.168   0.638  23.112  0.00  0.00    +0.054 A 
ATOM     28  C   UNL     1       0.032  -0.423  22.734  0.00  0.00    +0.003 A 
ATOM     29  C   UNL     1       1.393  -0.314  22.451  0.00  0.00    +0.019 A 
BRANCH  27  30
ATOM      8  N   UNL     1       4.695   0.840  22.586  0.00  0.00    -0.191 NA
ATOM     30  C   UNL     1       3.563   0.750  22.822  0.00  0.00    +0.099 C 
ENDBRANCH  27  30
ENDBRANCH   1  22
ENDBRANCH   6   1
ENDBRANCH  16   6
ENDBRANCH  10  16
BRANCH  12  17
ATOM     17  C   UNL     1      -4.533   0.169  25.539  0.00  0.00    +0.103 C 
BRANCH  17  21
ATOM      2  O   UNL     1      -4.287  -0.738  23.309  0.00  0.00    -0.276 OA
ATOM      7  N   UNL     1      -3.643  -2.013  25.142  0.00  0.00    -0.313 N 
ATOM     21  C   UNL     1      -4.153  -0.883  24.522  0.00  0.00    +0.214 C 
ATOM     33  H   UNL     1      -3.569  -2.040  26.155  0.00  0.00    +0.149 HD
BRANCH   7  23
ATOM     23  C   UNL     1      -3.199  -3.181  24.415  0.00  0.00    +0.132 C 
BRANCH  23  26
ATOM     26  C   UNL     1      -1.689  -3.142  24.263  0.00  0.00    +0.178 C 
BRANCH  26   5
ATOM      5  O   UNL     1      -1.136  -2.296  25.264  0.00  0.00    -0.381 OA
ATOM     31  C   UNL     1       0.222  -2.620  25.528  0.00  0.00    +0.194 C 
ENDBRANCH  26   5
ENDBRANCH  23  26
ENDBRANCH   7  23
ENDBRANCH  17  21
ENDBRANCH  12  17
TORSDOF 11
ENDMDL
MODEL 7
REMARK VINA RESULT:       0.1      2.406      6.062
REMARK  Name = 38027645
REMARK  15 active torsions:
REMARK  status: ('A' for Active; 'I' for Inactive)
REMARK    1  A    between atoms: S_1  and  N_6
REMARK    2  A    between atoms: S_1  and  C_22
REMARK    3  A    between atoms: O_5  and  C_26
REMARK    4  A    between atoms: O_5  and  C_31
REMARK    5  A    between atoms: N_6  and  C_16
REMARK    6  A    between atoms: N_7  and  C_23
REMARK    7  A    between atoms: C_9  and  C_13
REMARK    8  A    between atoms: C_10  and  C_16
REMARK    9  A    between atoms: C_12  and  C_17
REMARK   10  A    between atoms: C_13  and  C_18
REMARK   11  A    between atoms: C_13  and  C_19
REMARK   12  A    between atoms: C_14  and  C_20
REMARK   13  A    between atoms: C_17  and  C_21
REMARK   14  A    between atoms: C_23  and  C_26
REMARK   15  A    between atoms: C_27  and  C_30
REMARK                            x       y       z     vdW  Elec       q    Type
REMARK                         _______ _______ _______ _____ _____    ______ ____
ROOT
ATOM      9  C   UNL     1      -3.603  -0.998  24.840  0.00  0.00    +0.000 C 
ATOM     10  C   UNL     1      -2.482  -0.337  24.001  0.00  0.00    +0.030 C 
ATOM     11  C   UNL     1      -4.984  -0.594  24.303  0.00  0.00    +0.012 C 
ATOM     12  C   UNL     1      -5.193   0.932  24.325  0.00  0.00    +0.023 C 
ATOM     14  C   UNL     1      -4.001   1.672  23.754  0.00  0.00    -0.073 C 
ATOM     15  C   UNL     1      -2.800   1.085  23.604  0.00  0.00    -0.023 C 
ATOM     20  C   UNL     1      -4.231   3.092  23.315  0.00  0.00    +0.039 C 
ENDROOT
BRANCH   9  13
ATOM     13  C   UNL     1      -3.479  -2.525  24.853  0.00  0.00    -0.013 C 
ATOM     18  C   UNL     1      -4.392  -3.142  23.798  0.00  0.00    +0.007 C 
ATOM     19  C   UNL     1      -2.030  -2.943  24.626  0.00  0.00    +0.007 C 
ENDBRANCH   9  13
BRANCH  10  16
ATOM     16  C   UNL     1      -1.141  -0.371  24.744  0.00  0.00    +0.113 C 
BRANCH  16   6
ATOM      6  N   UNL     1      -0.928   0.924  25.411  0.00  0.00    -0.189 NA
ATOM     32  H   UNL     1      -1.676   1.253  26.033  0.00  0.00    +0.148 HD
BRANCH   6   1
ATOM      1  S   UNL     1       0.086   2.096  24.703  0.00  0.00    +0.058 S 
ATOM      3  O   UNL     1       0.934   2.675  25.726  0.00  0.00    -0.153 OA
ATOM      4  O   UNL     1      -0.707   2.952  23.842  0.00  0.00    -0.153 OA
BRANCH   1  22
ATOM     22  C   UNL     1       1.102   1.103  23.650  0.00  0.00    +0.106 A 
ATOM     24  C   UNL     1       2.486   1.093  23.824  0.00  0.00    +0.047 A 
ATOM     25  C   UNL     1       0.520   0.333  22.645  0.00  0.00    +0.028 A 
ATOM     27  C   UNL     1       3.287   0.312  22.991  0.00  0.00    +0.054 A 
ATOM     28  C   UNL     1       1.321  -0.448  21.812  0.00  0.00    +0.003 A 
ATOM     29  C   UNL     1       2.705  -0.458  21.985  0.00  0.00    +0.019 A 
BRANCH  27  30
ATOM      8  N   UNL     1       5.856   0.292  23.313  0.00  0.00    -0.191 NA
ATOM     30  C   UNL     1       4.705   0.301  23.169  0.00  0.00    +0.099 C 
ENDBRANCH  27  30
ENDBRANCH   1  22
ENDBRANCH   6   1
ENDBRANCH  16   6
ENDBRANCH  10  16
BRANCH  12  17
ATOM     17  C   UNL     1      -5.517   1.425  25.740  0.00  0.00    +0.103 C 
BRANCH  17  21
ATOM      2  O   UNL     1      -6.150   3.760  25.691  0.00  0.00    -0.276 OA
ATOM      7  N   UNL     1      -3.980   3.173  26.282  0.00  0.00    -0.313 N 
ATOM     21  C   UNL     1      -5.284   2.911  25.892  0.00  0.00    +0.214 C 
ATOM     33  H   UNL     1      -3.334   2.402  26.426  0.00  0.00    +0.149 HD
BRANCH   7  23
ATOM     23  C   UNL     1      -3.474   4.509  26.501  0.00  0.00    +0.132 C 
BRANCH  23  26
ATOM     26  C   UNL     1      -2.031   4.589  26.036  0.00  0.00    +0.178 C 
BRANCH  26   5
ATOM      5  O   UNL     1      -1.888   5.671  25.125  0.00  0.00    -0.381 OA
ATOM     31  C   UNL     1      -0.566   5.745  24.608  0.00  0.00    +0.194 C 
ENDBRANCH  26   5
ENDBRANCH  23  26
ENDBRANCH   7  23
ENDBRANCH  17  21
ENDBRANCH  12  17
TORSDOF 11
ENDMDL
