MODEL 1
REMARK VINA RESULT:       0.5      0.000      0.000
REMARK  Name = 45361553
REMARK  11 active torsions:
REMARK  status: ('A' for Active; 'I' for Inactive)
REMARK    1  A    between atoms: O_1  and  C_12
REMARK    2  A    between atoms: N_5  and  C_16
REMARK    3  A    between atoms: N_6  and  C_26
REMARK    4  A    between atoms: N_7  and  C_27
REMARK    5  A    between atoms: C_9  and  C_19
REMARK    6  A    between atoms: C_11  and  C_21
REMARK    7  A    between atoms: C_15  and  C_20
REMARK    8  A    between atoms: C_20  and  C_22
REMARK    9  A    between atoms: C_20  and  C_23
REMARK   10  A    between atoms: C_24  and  C_25
REMARK   11  A    between atoms: C_26  and  C_27
REMARK                            x       y       z     vdW  Elec       q    Type
REMARK                         _______ _______ _______ _____ _____    ______ ____
ROOT
ATOM      9  C   UNL     1      -3.013  -1.358  24.849  0.00  0.00    -0.027 C 
ATOM     10  C   UNL     1      -2.653  -0.027  24.108  0.00  0.00    +0.028 C 
ATOM     11  C   UNL     1      -1.111   0.262  24.198  0.00  0.00    +0.012 C 
ATOM     12  C   UNL     1      -3.579   1.138  24.561  0.00  0.00    +0.122 C 
ATOM     13  C   UNL     1      -4.515  -1.672  24.646  0.00  0.00    +0.007 C 
ATOM     14  C   UNL     1      -2.202  -2.518  24.226  0.00  0.00    +0.009 C 
ATOM     15  C   UNL     1      -5.080   0.781  24.454  0.00  0.00    +0.029 C 
ATOM     16  C   UNL     1      -0.304  -0.942  23.638  0.00  0.00    +0.076 C 
ATOM     17  C   UNL     1      -5.426  -0.549  25.124  0.00  0.00    +0.007 C 
ATOM     18  C   UNL     1      -0.699  -2.281  24.260  0.00  0.00    +0.023 C 
ATOM     19  C   UNL     1      -2.720  -1.290  26.370  0.00  0.00    +0.011 C 
ATOM     21  C   UNL     1      -0.682   1.545  23.465  0.00  0.00    +0.010 C 
ENDROOT
BRANCH  16   5
ATOM      3  O   UNL     1       1.601  -0.277  21.594  0.00  0.00    -0.270 OA
ATOM      5  N   UNL     1       1.122  -0.758  23.811  0.00  0.00    -0.308 N 
ATOM     24  C   UNL     1       1.960  -0.437  22.758  0.00  0.00    +0.244 C 
ATOM     36  H   UNL     1       1.506  -0.986  24.722  0.00  0.00    +0.149 HD
BRANCH  24  25
ATOM      8  N   UNL     1       6.112  -0.069  23.733  0.00  0.00    -0.263 NA
ATOM     25  C   UNL     1       3.402  -0.310  23.095  0.00  0.00    +0.040 A 
ATOM     28  C   UNL     1       4.072  -1.366  23.702  0.00  0.00    +0.033 A 
ATOM     29  C   UNL     1       4.085   0.866  22.806  0.00  0.00    +0.033 A 
ATOM     30  C   UNL     1       5.415  -1.196  23.999  0.00  0.00    +0.111 A 
ATOM     31  C   UNL     1       5.427   0.935  23.142  0.00  0.00    +0.111 A 
ENDBRANCH  24  25
ENDBRANCH  16   5
BRANCH  12   1
ATOM      1  O   UNL     1      -3.368   2.271  23.717  0.00  0.00    -0.391 OA
ATOM     37  H   UNL     1      -2.798   2.899  24.193  0.00  0.00    +0.210 HD
ENDBRANCH  12   1
BRANCH  15  20
ATOM     20  C   UNL     1      -5.972   1.890  25.025  0.00  0.00    +0.077 C 
ATOM     22  C   UNL     1      -7.195   2.089  24.138  0.00  0.00    +0.017 C 
BRANCH  20  23
ATOM      2  O   UNL     1      -5.021   3.974  24.240  0.00  0.00    -0.276 OA
ATOM      6  N   UNL     1      -4.642   3.341  26.439  0.00  0.00    -0.314 N 
ATOM     23  C   UNL     1      -5.170   3.180  25.167  0.00  0.00    +0.216 C 
ATOM     38  H   UNL     1      -4.799   2.624  27.140  0.00  0.00    +0.149 HD
BRANCH   6  26
ATOM     26  C   UNL     1      -3.845   4.485  26.815  0.00  0.00    +0.119 C 
BRANCH  26  27
ATOM     27  C   UNL     1      -2.936   4.922  25.675  0.00  0.00    +0.103 C 
BRANCH  27   7
ATOM      4  O   UNL     1       0.776   2.997  26.038  0.00  0.00    -0.377 OA
ATOM      7  N   UNL     1      -1.847   3.964  25.499  0.00  0.00    -0.297 NA
ATOM     32  C   UNL     1      -1.515   3.309  26.772  0.00  0.00    +0.112 C 
ATOM     33  C   UNL     1      -0.655   4.625  24.948  0.00  0.00    +0.112 C 
ATOM     34  C   UNL     1      -0.368   2.325  26.566  0.00  0.00    +0.175 C 
ATOM     35  C   UNL     1       0.472   3.609  24.785  0.00  0.00    +0.175 C 
ENDBRANCH  27   7
ENDBRANCH  26  27
ENDBRANCH   6  26
ENDBRANCH  20  23
ENDBRANCH  15  20
TORSDOF 8
ENDMDL
