MODEL 1
REMARK VINA RESULT:      -4.8      0.000      0.000
REMARK  Name = 51137738
REMARK  7 active torsions:
REMARK  status: ('A' for Active; 'I' for Inactive)
REMARK    1  A    between atoms: O_3  and  C_19
REMARK    2  A    between atoms: C_8  and  C_12
REMARK    3  A    between atoms: C_13  and  C_14
REMARK    4  A    between atoms: C_14  and  C_15
REMARK    5  A    between atoms: C_15  and  C_17
REMARK    6  A    between atoms: C_16  and  C_18
REMARK    7  A    between atoms: C_17  and  C_19
REMARK                            x       y       z     vdW  Elec       q    Type
REMARK                         _______ _______ _______ _____ _____    ______ ____
ROOT
ATOM      2  O   UNL     1      -0.444   4.009  23.512  0.00  0.00    -0.276 OA
ATOM      5  N   UNL     1      -2.099   4.041  25.124  0.00  0.00    -0.301 N 
ATOM      8  C   UNL     1      -4.474   4.031  25.019  0.00  0.00    +0.095 C 
ATOM      9  C   UNL     1      -4.024   4.394  26.442  0.00  0.00    +0.033 C 
ATOM     10  C   UNL     1      -3.201   4.298  24.206  0.00  0.00    +0.120 C 
ATOM     11  C   UNL     1      -2.572   3.936  26.500  0.00  0.00    +0.108 C 
ATOM     13  C   UNL     1      -0.792   3.912  24.689  0.00  0.00    +0.216 C 
ENDROOT
BRANCH   8  12
ATOM      1  O   UNL     1      -4.141   1.601  24.910  0.00  0.00    -0.420 OA
ATOM      6  N   UNL     1      -6.290   2.225  24.931  0.00  0.00    -0.112 NA
ATOM      7  N   UNL     1      -6.246   0.844  24.870  0.00  0.00    -0.107 NA
ATOM     12  C   UNL     1      -5.039   2.622  24.953  0.00  0.00    +0.222 A 
ATOM     16  C   UNL     1      -4.973   0.525  24.859  0.00  0.00    +0.248 A 
BRANCH  16  18
ATOM     18  C   UNL     1      -4.335  -0.759  24.803  0.00  0.00    +0.038 A 
ATOM     20  C   UNL     1      -3.529  -1.183  25.859  0.00  0.00    +0.013 A 
ATOM     21  C   UNL     1      -4.520  -1.581  23.692  0.00  0.00    +0.013 A 
ATOM     22  C   UNL     1      -2.908  -2.432  25.805  0.00  0.00    +0.001 A 
ATOM     23  C   UNL     1      -3.899  -2.830  23.638  0.00  0.00    +0.001 A 
ATOM     24  C   UNL     1      -3.094  -3.255  24.694  0.00  0.00    +0.000 A 
ENDBRANCH  16  18
ENDBRANCH   8  12
BRANCH  13  14
ATOM     14  C   UNL     1       0.227   3.640  25.767  0.00  0.00    +0.096 C 
BRANCH  14  15
ATOM     15  C   UNL     1       0.533   2.152  25.851  0.00  0.00    +0.020 C 
BRANCH  15  17
ATOM     17  C   UNL     1      -0.699   1.254  25.747  0.00  0.00    +0.121 C 
BRANCH  17  19
ATOM      4  O   UNL     1      -0.120  -0.599  24.309  0.00  0.00    -0.251 OA
ATOM     19  C   UNL     1      -0.724   0.453  24.469  0.00  0.00    +0.305 C 
BRANCH  19   3
ATOM      3  O   UNL     1      -1.488   1.029  23.507  0.00  0.00    -0.481 OA
ATOM     25  H   UNL     1      -1.468   0.519  22.670  0.00  0.00    +0.295 HD
ENDBRANCH  19   3
ENDBRANCH  17  19
ENDBRANCH  15  17
ENDBRANCH  14  15
ENDBRANCH  13  14
TORSDOF 7
ENDMDL
MODEL 2
REMARK VINA RESULT:      -4.2     18.821     20.988
REMARK  Name = 51137738
REMARK  7 active torsions:
REMARK  status: ('A' for Active; 'I' for Inactive)
REMARK    1  A    between atoms: O_3  and  C_19
REMARK    2  A    between atoms: C_8  and  C_12
REMARK    3  A    between atoms: C_13  and  C_14
REMARK    4  A    between atoms: C_14  and  C_15
REMARK    5  A    between atoms: C_15  and  C_17
REMARK    6  A    between atoms: C_16  and  C_18
REMARK    7  A    between atoms: C_17  and  C_19
REMARK                            x       y       z     vdW  Elec       q    Type
REMARK                         _______ _______ _______ _____ _____    ______ ____
ROOT
ATOM      2  O   UNL     1      14.073  -8.670  29.889  0.00  0.00    -0.276 OA
ATOM      5  N   UNL     1      15.301  -6.726  29.673  0.00  0.00    -0.301 N 
ATOM      8  C   UNL     1      17.405  -6.231  28.682  0.00  0.00    +0.095 C 
ATOM      9  C   UNL     1      16.956  -5.047  29.553  0.00  0.00    +0.033 C 
ATOM     10  C   UNL     1      16.527  -7.369  29.216  0.00  0.00    +0.120 C 
ATOM     11  C   UNL     1      15.463  -5.278  29.749  0.00  0.00    +0.108 C 
ATOM     13  C   UNL     1      14.158  -7.445  29.971  0.00  0.00    +0.216 C 
ENDROOT
BRANCH   8  12
ATOM      1  O   UNL     1      17.339  -4.601  26.846  0.00  0.00    -0.420 OA
ATOM      6  N   UNL     1      17.123  -6.727  26.183  0.00  0.00    -0.112 NA
ATOM      7  N   UNL     1      17.070  -5.922  25.061  0.00  0.00    -0.107 NA
ATOM     12  C   UNL     1      17.281  -5.914  27.201  0.00  0.00    +0.222 A 
ATOM     16  C   UNL     1      17.198  -4.690  25.495  0.00  0.00    +0.248 A 
BRANCH  16  18
ATOM     18  C   UNL     1      17.215  -3.447  24.780  0.00  0.00    +0.038 A 
ATOM     20  C   UNL     1      17.334  -3.444  23.390  0.00  0.00    +0.013 A 
ATOM     21  C   UNL     1      17.115  -2.242  25.474  0.00  0.00    +0.013 A 
ATOM     22  C   UNL     1      17.351  -2.235  22.694  0.00  0.00    +0.001 A 
ATOM     23  C   UNL     1      17.132  -1.033  24.778  0.00  0.00    +0.001 A 
ATOM     24  C   UNL     1      17.249  -1.030  23.388  0.00  0.00    +0.000 A 
ENDBRANCH  16  18
ENDBRANCH   8  12
BRANCH  13  14
ATOM     14  C   UNL     1      12.975  -6.626  30.424  0.00  0.00    +0.096 C 
BRANCH  14  15
ATOM     15  C   UNL     1      12.576  -7.004  31.843  0.00  0.00    +0.020 C 
BRANCH  15  17
ATOM     17  C   UNL     1      11.178  -7.610  31.958  0.00  0.00    +0.121 C 
BRANCH  17  19
ATOM      4  O   UNL     1      10.214  -9.825  31.913  0.00  0.00    -0.251 OA
ATOM     19  C   UNL     1      11.206  -9.117  32.029  0.00  0.00    +0.305 C 
BRANCH  19   3
ATOM      3  O   UNL     1      12.453  -9.607  32.240  0.00  0.00    -0.481 OA
ATOM     25  H   UNL     1      13.101  -8.893  32.422  0.00  0.00    +0.295 HD
ENDBRANCH  19   3
ENDBRANCH  17  19
ENDBRANCH  15  17
ENDBRANCH  14  15
ENDBRANCH  13  14
TORSDOF 7
ENDMDL
MODEL 3
REMARK VINA RESULT:      -3.5     18.727     20.881
REMARK  Name = 51137738
REMARK  7 active torsions:
REMARK  status: ('A' for Active; 'I' for Inactive)
REMARK    1  A    between atoms: O_3  and  C_19
REMARK    2  A    between atoms: C_8  and  C_12
REMARK    3  A    between atoms: C_13  and  C_14
REMARK    4  A    between atoms: C_14  and  C_15
REMARK    5  A    between atoms: C_15  and  C_17
REMARK    6  A    between atoms: C_16  and  C_18
REMARK    7  A    between atoms: C_17  and  C_19
REMARK                            x       y       z     vdW  Elec       q    Type
REMARK                         _______ _______ _______ _____ _____    ______ ____
ROOT
ATOM      2  O   UNL     1      14.027  -9.166  29.284  0.00  0.00    -0.276 OA
ATOM      5  N   UNL     1      15.396  -7.307  29.210  0.00  0.00    -0.301 N 
ATOM      8  C   UNL     1      17.405  -6.811  28.039  0.00  0.00    +0.095 C 
ATOM      9  C   UNL     1      17.174  -5.757  29.133  0.00  0.00    +0.033 C 
ATOM     10  C   UNL     1      16.494  -7.954  28.502  0.00  0.00    +0.120 C 
ATOM     11  C   UNL     1      15.700  -5.907  29.487  0.00  0.00    +0.108 C 
ATOM     13  C   UNL     1      14.234  -7.980  29.542  0.00  0.00    +0.216 C 
ENDROOT
BRANCH   8  12
ATOM      1  O   UNL     1      17.238  -4.896  26.510  0.00  0.00    -0.420 OA
ATOM      6  N   UNL     1      16.814  -6.870  25.546  0.00  0.00    -0.112 NA
ATOM      7  N   UNL     1      16.687  -5.887  24.582  0.00  0.00    -0.107 NA
ATOM     12  C   UNL     1      17.136  -6.246  26.654  0.00  0.00    +0.222 A 
ATOM     16  C   UNL     1      16.942  -4.752  25.189  0.00  0.00    +0.248 A 
BRANCH  16  18
ATOM     18  C   UNL     1      16.958  -3.409  24.686  0.00  0.00    +0.038 A 
ATOM     20  C   UNL     1      16.659  -2.343  25.534  0.00  0.00    +0.013 A 
ATOM     21  C   UNL     1      17.271  -3.170  23.348  0.00  0.00    +0.013 A 
ATOM     22  C   UNL     1      16.674  -1.036  25.045  0.00  0.00    +0.001 A 
ATOM     23  C   UNL     1      17.287  -1.863  22.859  0.00  0.00    +0.001 A 
ATOM     24  C   UNL     1      16.988  -0.797  23.707  0.00  0.00    +0.000 A 
ENDBRANCH  16  18
ENDBRANCH   8  12
BRANCH  13  14
ATOM     14  C   UNL     1      13.195  -7.163  30.268  0.00  0.00    +0.096 C 
BRANCH  14  15
ATOM     15  C   UNL     1      13.200  -7.491  31.754  0.00  0.00    +0.020 C 
BRANCH  15  17
ATOM     17  C   UNL     1      12.190  -6.689  32.574  0.00  0.00    +0.121 C 
BRANCH  17  19
ATOM      4  O   UNL     1      13.516  -4.669  32.594  0.00  0.00    -0.251 OA
ATOM     19  C   UNL     1      12.420  -5.201  32.479  0.00  0.00    +0.305 C 
BRANCH  19   3
ATOM      3  O   UNL     1      11.274  -4.510  32.256  0.00  0.00    -0.481 OA
ATOM     25  H   UNL     1      10.670  -4.988  31.648  0.00  0.00    +0.295 HD
ENDBRANCH  19   3
ENDBRANCH  17  19
ENDBRANCH  15  17
ENDBRANCH  14  15
ENDBRANCH  13  14
TORSDOF 7
ENDMDL
MODEL 4
REMARK VINA RESULT:      -3.3      2.256      5.394
REMARK  Name = 51137738
REMARK  7 active torsions:
REMARK  status: ('A' for Active; 'I' for Inactive)
REMARK    1  A    between atoms: O_3  and  C_19
REMARK    2  A    between atoms: C_8  and  C_12
REMARK    3  A    between atoms: C_13  and  C_14
REMARK    4  A    between atoms: C_14  and  C_15
REMARK    5  A    between atoms: C_15  and  C_17
REMARK    6  A    between atoms: C_16  and  C_18
REMARK    7  A    between atoms: C_17  and  C_19
REMARK                            x       y       z     vdW  Elec       q    Type
REMARK                         _______ _______ _______ _____ _____    ______ ____
ROOT
ATOM      2  O   UNL     1      -0.317  -1.836  26.026  0.00  0.00    -0.276 OA
ATOM      5  N   UNL     1      -2.196  -1.388  24.758  0.00  0.00    -0.301 N 
ATOM      8  C   UNL     1      -4.384  -0.633  25.301  0.00  0.00    +0.095 C 
ATOM      9  C   UNL     1      -4.363  -1.153  23.855  0.00  0.00    +0.033 C 
ATOM     10  C   UNL     1      -3.114  -1.265  25.884  0.00  0.00    +0.120 C 
ATOM     11  C   UNL     1      -2.884  -1.174  23.490  0.00  0.00    +0.108 C 
ATOM     13  C   UNL     1      -0.851  -1.664  24.930  0.00  0.00    +0.216 C 
ENDROOT
BRANCH   8  12
ATOM      1  O   UNL     1      -3.312   1.572  25.167  0.00  0.00    -0.420 OA
ATOM      6  N   UNL     1      -5.517   1.653  25.540  0.00  0.00    -0.112 NA
ATOM      7  N   UNL     1      -5.044   2.951  25.488  0.00  0.00    -0.107 NA
ATOM     12  C   UNL     1      -4.472   0.883  25.348  0.00  0.00    +0.222 A 
ATOM     16  C   UNL     1      -3.753   2.856  25.269  0.00  0.00    +0.248 A 
BRANCH  16  18
ATOM     18  C   UNL     1      -2.755   3.876  25.123  0.00  0.00    +0.038 A 
ATOM     20  C   UNL     1      -1.426   3.522  24.892  0.00  0.00    +0.013 A 
ATOM     21  C   UNL     1      -3.114   5.220  25.214  0.00  0.00    +0.013 A 
ATOM     22  C   UNL     1      -0.455   4.514  24.750  0.00  0.00    +0.001 A 
ATOM     23  C   UNL     1      -2.143   6.212  25.072  0.00  0.00    +0.001 A 
ATOM     24  C   UNL     1      -0.814   5.859  24.840  0.00  0.00    +0.000 A 
ENDBRANCH  16  18
ENDBRANCH   8  12
BRANCH  13  14
ATOM     14  C   UNL     1      -0.038  -1.752  23.663  0.00  0.00    +0.096 C 
BRANCH  14  15
ATOM     15  C   UNL     1       0.468  -0.376  23.256  0.00  0.00    +0.020 C 
BRANCH  15  17
ATOM     17  C   UNL     1       1.693  -0.405  22.345  0.00  0.00    +0.121 C 
BRANCH  17  19
ATOM      4  O   UNL     1       3.969   0.375  22.576  0.00  0.00    -0.251 OA
ATOM     19  C   UNL     1       2.777   0.539  22.804  0.00  0.00    +0.305 C 
BRANCH  19   3
ATOM      3  O   UNL     1       2.289   1.593  23.504  0.00  0.00    -0.481 OA
ATOM     25  H   UNL     1       1.830   1.308  24.323  0.00  0.00    +0.295 HD
ENDBRANCH  19   3
ENDBRANCH  17  19
ENDBRANCH  15  17
ENDBRANCH  14  15
ENDBRANCH  13  14
TORSDOF 7
ENDMDL
MODEL 5
REMARK VINA RESULT:      -2.9      2.802      5.038
REMARK  Name = 51137738
REMARK  7 active torsions:
REMARK  status: ('A' for Active; 'I' for Inactive)
REMARK    1  A    between atoms: O_3  and  C_19
REMARK    2  A    between atoms: C_8  and  C_12
REMARK    3  A    between atoms: C_13  and  C_14
REMARK    4  A    between atoms: C_14  and  C_15
REMARK    5  A    between atoms: C_15  and  C_17
REMARK    6  A    between atoms: C_16  and  C_18
REMARK    7  A    between atoms: C_17  and  C_19
REMARK                            x       y       z     vdW  Elec       q    Type
REMARK                         _______ _______ _______ _____ _____    ______ ____
ROOT
ATOM      2  O   UNL     1      -3.990   3.805  23.008  0.00  0.00    -0.276 OA
ATOM      5  N   UNL     1      -4.063   1.941  24.370  0.00  0.00    -0.301 N 
ATOM      8  C   UNL     1      -3.541  -0.352  24.021  0.00  0.00    +0.095 C 
ATOM      9  C   UNL     1      -4.316  -0.197  25.338  0.00  0.00    +0.033 C 
ATOM     10  C   UNL     1      -3.862   0.966  23.305  0.00  0.00    +0.120 C 
ATOM     11  C   UNL     1      -4.194   1.286  25.667  0.00  0.00    +0.108 C 
ATOM     13  C   UNL     1      -4.106   3.302  24.125  0.00  0.00    +0.216 C 
ENDROOT
BRANCH   8  12
ATOM      1  O   UNL     1      -1.174  -0.048  23.442  0.00  0.00    -0.420 OA
ATOM      6  N   UNL     1      -1.516  -1.414  25.180  0.00  0.00    -0.112 NA
ATOM      7  N   UNL     1      -0.154  -1.332  24.963  0.00  0.00    -0.107 NA
ATOM     12  C   UNL     1      -2.071  -0.649  24.269  0.00  0.00    +0.222 A 
ATOM     16  C   UNL     1      -0.000  -0.525  23.939  0.00  0.00    +0.248 A 
BRANCH  16  18
ATOM     18  C   UNL     1       1.191  -0.076  23.278  0.00  0.00    +0.038 A 
ATOM     20  C   UNL     1       1.967   0.933  23.848  0.00  0.00    +0.013 A 
ATOM     21  C   UNL     1       1.571  -0.646  22.063  0.00  0.00    +0.013 A 
ATOM     22  C   UNL     1       3.125   1.370  23.204  0.00  0.00    +0.001 A 
ATOM     23  C   UNL     1       2.729  -0.209  21.420  0.00  0.00    +0.001 A 
ATOM     24  C   UNL     1       3.506   0.799  21.990  0.00  0.00    +0.000 A 
ENDBRANCH  16  18
ENDBRANCH   8  12
BRANCH  13  14
ATOM     14  C   UNL     1      -4.315   4.174  25.338  0.00  0.00    +0.096 C 
BRANCH  14  15
ATOM     15  C   UNL     1      -3.058   4.208  26.194  0.00  0.00    +0.020 C 
BRANCH  15  17
ATOM     17  C   UNL     1      -1.778   4.501  25.414  0.00  0.00    +0.121 C 
BRANCH  17  19
ATOM      4  O   UNL     1      -0.410   2.684  26.232  0.00  0.00    -0.251 OA
ATOM     19  C   UNL     1      -0.891   3.287  25.282  0.00  0.00    +0.305 C 
BRANCH  19   3
ATOM      3  O   UNL     1      -0.677   2.936  23.989  0.00  0.00    -0.481 OA
ATOM     25  H   UNL     1       0.093   3.407  23.604  0.00  0.00    +0.295 HD
ENDBRANCH  19   3
ENDBRANCH  17  19
ENDBRANCH  15  17
ENDBRANCH  14  15
ENDBRANCH  13  14
TORSDOF 7
ENDMDL
MODEL 6
REMARK VINA RESULT:      -2.6      2.528      2.941
REMARK  Name = 51137738
REMARK  7 active torsions:
REMARK  status: ('A' for Active; 'I' for Inactive)
REMARK    1  A    between atoms: O_3  and  C_19
REMARK    2  A    between atoms: C_8  and  C_12
REMARK    3  A    between atoms: C_13  and  C_14
REMARK    4  A    between atoms: C_14  and  C_15
REMARK    5  A    between atoms: C_15  and  C_17
REMARK    6  A    between atoms: C_16  and  C_18
REMARK    7  A    between atoms: C_17  and  C_19
REMARK                            x       y       z     vdW  Elec       q    Type
REMARK                         _______ _______ _______ _____ _____    ______ ____
ROOT
ATOM      2  O   UNL     1       0.932   2.560  25.076  0.00  0.00    -0.276 OA
ATOM      5  N   UNL     1      -1.109   3.361  25.805  0.00  0.00    -0.301 N 
ATOM      8  C   UNL     1      -3.173   3.795  24.708  0.00  0.00    +0.095 C 
ATOM      9  C   UNL     1      -3.188   4.437  26.104  0.00  0.00    +0.033 C 
ATOM     10  C   UNL     1      -1.673   3.570  24.477  0.00  0.00    +0.120 C 
ATOM     11  C   UNL     1      -2.059   3.733  26.847  0.00  0.00    +0.108 C 
ATOM     13  C   UNL     1       0.167   2.860  25.993  0.00  0.00    +0.216 C 
ENDROOT
BRANCH   8  12
ATOM      1  O   UNL     1      -3.438   1.354  24.660  0.00  0.00    -0.420 OA
ATOM      6  N   UNL     1      -5.370   2.480  24.589  0.00  0.00    -0.112 NA
ATOM      7  N   UNL     1      -5.661   1.129  24.557  0.00  0.00    -0.107 NA
ATOM     12  C   UNL     1      -4.062   2.564  24.650  0.00  0.00    +0.222 A 
ATOM     16  C   UNL     1      -4.504   0.511  24.599  0.00  0.00    +0.248 A 
BRANCH  16  18
ATOM     18  C   UNL     1      -4.196  -0.890  24.593  0.00  0.00    +0.038 A 
ATOM     20  C   UNL     1      -3.487  -1.453  25.653  0.00  0.00    +0.013 A 
ATOM     21  C   UNL     1      -4.606  -1.689  23.525  0.00  0.00    +0.013 A 
ATOM     22  C   UNL     1      -3.187  -2.816  25.647  0.00  0.00    +0.001 A 
ATOM     23  C   UNL     1      -4.305  -3.052  23.519  0.00  0.00    +0.001 A 
ATOM     24  C   UNL     1      -3.597  -3.614  24.580  0.00  0.00    +0.000 A 
ENDBRANCH  16  18
ENDBRANCH   8  12
BRANCH  13  14
ATOM     14  C   UNL     1       0.596   2.698  27.430  0.00  0.00    +0.096 C 
BRANCH  14  15
ATOM     15  C   UNL     1       2.081   2.992  27.580  0.00  0.00    +0.020 C 
BRANCH  15  17
ATOM     17  C   UNL     1       2.536   3.186  29.025  0.00  0.00    +0.121 C 
BRANCH  17  19
ATOM      4  O   UNL     1       0.724   2.780  30.572  0.00  0.00    -0.251 OA
ATOM     19  C   UNL     1       1.727   2.369  30.002  0.00  0.00    +0.305 C 
BRANCH  19   3
ATOM      3  O   UNL     1       2.233   1.125  30.186  0.00  0.00    -0.481 OA
ATOM     25  H   UNL     1       2.447   0.952  31.128  0.00  0.00    +0.295 HD
ENDBRANCH  19   3
ENDBRANCH  17  19
ENDBRANCH  15  17
ENDBRANCH  14  15
ENDBRANCH  13  14
TORSDOF 7
ENDMDL
MODEL 7
REMARK VINA RESULT:      -2.4      3.455      6.447
REMARK  Name = 51137738
REMARK  7 active torsions:
REMARK  status: ('A' for Active; 'I' for Inactive)
REMARK    1  A    between atoms: O_3  and  C_19
REMARK    2  A    between atoms: C_8  and  C_12
REMARK    3  A    between atoms: C_13  and  C_14
REMARK    4  A    between atoms: C_14  and  C_15
REMARK    5  A    between atoms: C_15  and  C_17
REMARK    6  A    between atoms: C_16  and  C_18
REMARK    7  A    between atoms: C_17  and  C_19
REMARK                            x       y       z     vdW  Elec       q    Type
REMARK                         _______ _______ _______ _____ _____    ______ ____
ROOT
ATOM      2  O   UNL     1      -5.215  -0.433  23.876  0.00  0.00    -0.276 OA
ATOM      5  N   UNL     1      -3.251  -0.433  25.093  0.00  0.00    -0.301 N 
ATOM      8  C   UNL     1      -1.220  -1.654  24.906  0.00  0.00    +0.095 C 
ATOM      9  C   UNL     1      -1.269  -0.942  26.267  0.00  0.00    +0.033 C 
ATOM     10  C   UNL     1      -2.695  -1.635  24.485  0.00  0.00    +0.120 C 
ATOM     11  C   UNL     1      -2.343   0.124  26.089  0.00  0.00    +0.108 C 
ATOM     13  C   UNL     1      -4.484   0.076  24.725  0.00  0.00    +0.216 C 
ENDROOT
BRANCH   8  12
ATOM      1  O   UNL     1       1.083  -1.064  24.293  0.00  0.00    -0.420 OA
ATOM      6  N   UNL     1      -0.460  -0.332  22.847  0.00  0.00    -0.112 NA
ATOM      7  N   UNL     1       0.781   0.065  22.385  0.00  0.00    -0.107 NA
ATOM     12  C   UNL     1      -0.235  -0.987  23.961  0.00  0.00    +0.222 A 
ATOM     16  C   UNL     1       1.651  -0.383  23.260  0.00  0.00    +0.248 A 
BRANCH  16  18
ATOM     18  C   UNL     1       3.080  -0.269  23.295  0.00  0.00    +0.038 A 
ATOM     20  C   UNL     1       3.851  -1.318  23.795  0.00  0.00    +0.013 A 
ATOM     21  C   UNL     1       3.699   0.891  22.830  0.00  0.00    +0.013 A 
ATOM     22  C   UNL     1       5.242  -1.208  23.829  0.00  0.00    +0.001 A 
ATOM     23  C   UNL     1       5.089   1.002  22.864  0.00  0.00    +0.001 A 
ATOM     24  C   UNL     1       5.860  -0.047  23.363  0.00  0.00    +0.000 A 
ENDBRANCH  16  18
ENDBRANCH   8  12
BRANCH  13  14
ATOM     14  C   UNL     1      -4.910   1.331  25.446  0.00  0.00    +0.096 C 
BRANCH  14  15
ATOM     15  C   UNL     1      -4.798   2.539  24.528  0.00  0.00    +0.020 C 
BRANCH  15  17
ATOM     17  C   UNL     1      -3.402   3.156  24.474  0.00  0.00    +0.121 C 
BRANCH  17  19
ATOM      4  O   UNL     1      -2.951   2.142  22.327  0.00  0.00    -0.251 OA
ATOM     19  C   UNL     1      -2.534   2.529  23.411  0.00  0.00    +0.305 C 
BRANCH  19   3
ATOM      3  O   UNL     1      -1.234   2.433  23.788  0.00  0.00    -0.481 OA
ATOM     25  H   UNL     1      -0.849   3.311  23.999  0.00  0.00    +0.295 HD
ENDBRANCH  19   3
ENDBRANCH  17  19
ENDBRANCH  15  17
ENDBRANCH  14  15
ENDBRANCH  13  14
TORSDOF 7
ENDMDL
MODEL 8
REMARK VINA RESULT:      -2.3      3.122      5.431
REMARK  Name = 51137738
REMARK  7 active torsions:
REMARK  status: ('A' for Active; 'I' for Inactive)
REMARK    1  A    between atoms: O_3  and  C_19
REMARK    2  A    between atoms: C_8  and  C_12
REMARK    3  A    between atoms: C_13  and  C_14
REMARK    4  A    between atoms: C_14  and  C_15
REMARK    5  A    between atoms: C_15  and  C_17
REMARK    6  A    between atoms: C_16  and  C_18
REMARK    7  A    between atoms: C_17  and  C_19
REMARK                            x       y       z     vdW  Elec       q    Type
REMARK                         _______ _______ _______ _____ _____    ______ ____
ROOT
ATOM      2  O   UNL     1       1.525   1.143  24.341  0.00  0.00    -0.276 OA
ATOM      5  N   UNL     1       0.127  -0.664  23.997  0.00  0.00    -0.301 N 
ATOM      8  C   UNL     1      -1.644  -1.616  25.265  0.00  0.00    +0.095 C 
ATOM      9  C   UNL     1      -1.229  -2.589  24.151  0.00  0.00    +0.033 C 
ATOM     10  C   UNL     1      -0.427  -0.687  25.345  0.00  0.00    +0.120 C 
ATOM     11  C   UNL     1      -0.449  -1.720  23.172  0.00  0.00    +0.108 C 
ATOM     13  C   UNL     1       1.069   0.269  23.603  0.00  0.00    +0.216 C 
ENDROOT
BRANCH   8  12
ATOM      1  O   UNL     1      -3.089   0.369  25.239  0.00  0.00    -0.420 OA
ATOM      6  N   UNL     1      -4.077  -1.485  24.470  0.00  0.00    -0.112 NA
ATOM      7  N   UNL     1      -4.993  -0.452  24.400  0.00  0.00    -0.107 NA
ATOM     12  C   UNL     1      -2.981  -0.960  24.965  0.00  0.00    +0.222 A 
ATOM     16  C   UNL     1      -4.374   0.610  24.859  0.00  0.00    +0.248 A 
BRANCH  16  18
ATOM     18  C   UNL     1      -4.833   1.959  25.019  0.00  0.00    +0.038 A 
ATOM     20  C   UNL     1      -4.115   3.011  24.451  0.00  0.00    +0.013 A 
ATOM     21  C   UNL     1      -5.997   2.219  25.743  0.00  0.00    +0.013 A 
ATOM     22  C   UNL     1      -4.561   4.324  24.607  0.00  0.00    +0.001 A 
ATOM     23  C   UNL     1      -6.442   3.532  25.898  0.00  0.00    +0.001 A 
ATOM     24  C   UNL     1      -5.725   4.584  25.330  0.00  0.00    +0.000 A 
ENDBRANCH  16  18
ENDBRANCH   8  12
BRANCH  13  14
ATOM     14  C   UNL     1       1.534   0.158  22.172  0.00  0.00    +0.096 C 
BRANCH  14  15
ATOM     15  C   UNL     1       3.014  -0.189  22.117  0.00  0.00    +0.020 C 
BRANCH  15  17
ATOM     17  C   UNL     1       3.933   0.900  22.669  0.00  0.00    +0.121 C 
BRANCH  17  19
ATOM      4  O   UNL     1       6.043  -0.265  22.837  0.00  0.00    -0.251 OA
ATOM     19  C   UNL     1       5.131   0.335  23.391  0.00  0.00    +0.305 C 
BRANCH  19   3
ATOM      3  O   UNL     1       5.088   0.557  24.728  0.00  0.00    -0.481 OA
ATOM     25  H   UNL     1       4.206   0.349  25.105  0.00  0.00    +0.295 HD
ENDBRANCH  19   3
ENDBRANCH  17  19
ENDBRANCH  15  17
ENDBRANCH  14  15
ENDBRANCH  13  14
TORSDOF 7
ENDMDL
MODEL 9
REMARK VINA RESULT:      -1.8      2.375      6.545
REMARK  Name = 51137738
REMARK  7 active torsions:
REMARK  status: ('A' for Active; 'I' for Inactive)
REMARK    1  A    between atoms: O_3  and  C_19
REMARK    2  A    between atoms: C_8  and  C_12
REMARK    3  A    between atoms: C_13  and  C_14
REMARK    4  A    between atoms: C_14  and  C_15
REMARK    5  A    between atoms: C_15  and  C_17
REMARK    6  A    between atoms: C_16  and  C_18
REMARK    7  A    between atoms: C_17  and  C_19
REMARK                            x       y       z     vdW  Elec       q    Type
REMARK                         _______ _______ _______ _____ _____    ______ ____
ROOT
ATOM      2  O   UNL     1      -4.074  -1.812  23.070  0.00  0.00    -0.276 OA
ATOM      5  N   UNL     1      -2.252  -1.641  24.480  0.00  0.00    -0.301 N 
ATOM      8  C   UNL     1       0.068  -1.281  24.105  0.00  0.00    +0.095 C 
ATOM      9  C   UNL     1      -0.153  -1.741  25.554  0.00  0.00    +0.033 C 
ATOM     10  C   UNL     1      -1.241  -1.712  23.432  0.00  0.00    +0.120 C 
ATOM     11  C   UNL     1      -1.639  -1.501  25.796  0.00  0.00    +0.108 C 
ATOM     13  C   UNL     1      -3.607  -1.694  24.203  0.00  0.00    +0.216 C 
ENDROOT
BRANCH   8  12
ATOM      1  O   UNL     1      -0.526   1.071  24.484  0.00  0.00    -0.420 OA
ATOM      6  N   UNL     1       1.507   0.778  23.595  0.00  0.00    -0.112 NA
ATOM      7  N   UNL     1       1.302   2.135  23.755  0.00  0.00    -0.107 NA
ATOM     12  C   UNL     1       0.415   0.197  24.034  0.00  0.00    +0.222 A 
ATOM     16  C   UNL     1       0.104   2.260  24.275  0.00  0.00    +0.248 A 
BRANCH  16  18
ATOM     18  C   UNL     1      -0.631   3.433  24.653  0.00  0.00    +0.038 A 
ATOM     20  C   UNL     1      -0.179   4.694  24.263  0.00  0.00    +0.013 A 
ATOM     21  C   UNL     1      -1.795   3.313  25.410  0.00  0.00    +0.013 A 
ATOM     22  C   UNL     1      -0.893   5.835  24.630  0.00  0.00    +0.001 A 
ATOM     23  C   UNL     1      -2.509   4.454  25.777  0.00  0.00    +0.001 A 
ATOM     24  C   UNL     1      -2.058   5.714  25.387  0.00  0.00    +0.000 A 
ENDBRANCH  16  18
ENDBRANCH   8  12
BRANCH  13  14
ATOM     14  C   UNL     1      -4.519  -1.601  25.400  0.00  0.00    +0.096 C 
BRANCH  14  15
ATOM     15  C   UNL     1      -4.497  -0.195  25.981  0.00  0.00    +0.020 C 
BRANCH  15  17
ATOM     17  C   UNL     1      -4.699   0.912  24.947  0.00  0.00    +0.121 C 
BRANCH  17  19
ATOM      4  O   UNL     1      -5.470   2.790  26.258  0.00  0.00    -0.251 OA
ATOM     19  C   UNL     1      -5.698   1.949  25.398  0.00  0.00    +0.305 C 
BRANCH  19   3
ATOM      3  O   UNL     1      -6.885   1.847  24.750  0.00  0.00    -0.481 OA
ATOM     25  H   UNL     1      -6.817   2.135  23.814  0.00  0.00    +0.295 HD
ENDBRANCH  19   3
ENDBRANCH  17  19
ENDBRANCH  15  17
ENDBRANCH  14  15
ENDBRANCH  13  14
TORSDOF 7
ENDMDL
