MODEL 1
REMARK VINA RESULT:       8.2      0.000      0.000
REMARK  Name = 51136904
REMARK  5 active torsions:
REMARK  status: ('A' for Active; 'I' for Inactive)
REMARK    1  A    between atoms: N_3  and  C_10
REMARK    2  A    between atoms: C_11  and  C_19
REMARK    3  A    between atoms: C_20  and  C_21
REMARK    4  A    between atoms: C_22  and  C_23
REMARK    5  A    between atoms: C_27  and  C_28
REMARK                            x       y       z     vdW  Elec       q    Type
REMARK                         _______ _______ _______ _____ _____    ______ ____
ROOT
ATOM      1  O   UNL     1      -2.325   3.613  23.760  0.00  0.00    -0.336 OA
ATOM      5  N   UNL     1      -1.949   1.412  23.930  0.00  0.00    -0.190 NA
ATOM      6  N   UNL     1      -0.946   3.439  23.588  0.00  0.00    -0.056 NA
ATOM     19  C   UNL     1      -2.839   2.371  23.956  0.00  0.00    +0.245 A 
ATOM     22  C   UNL     1      -0.801   2.116  23.702  0.00  0.00    +0.204 A 
ENDROOT
BRANCH  22  23
ATOM      7  N   UNL     1       2.883   1.643  23.527  0.00  0.00    -0.254 NA
ATOM     23  C   UNL     1       0.472   1.466  23.595  0.00  0.00    +0.041 A 
ATOM     24  C   UNL     1       0.562   0.085  23.457  0.00  0.00    +0.015 A 
ATOM     25  C   UNL     1       1.651   2.193  23.624  0.00  0.00    +0.123 A 
ATOM     26  C   UNL     1       1.812  -0.517  23.356  0.00  0.00    +0.029 A 
ATOM     27  C   UNL     1       2.931   0.298  23.395  0.00  0.00    +0.074 A 
BRANCH  27  28
ATOM      8  N   UNL     1       5.791  -2.075  23.675  0.00  0.00    -0.243 NA
ATOM      9  N   UNL     1       6.565  -0.042  22.637  0.00  0.00    -0.243 NA
ATOM     28  C   UNL     1       4.259  -0.257  23.296  0.00  0.00    +0.037 A 
ATOM     29  C   UNL     1       4.560  -1.525  23.749  0.00  0.00    +0.124 A 
ATOM     30  C   UNL     1       5.311   0.446  22.743  0.00  0.00    +0.124 A 
ATOM     31  C   UNL     1       6.731  -1.290  23.116  0.00  0.00    +0.221 A 
ENDBRANCH  27  28
ENDBRANCH  22  23
BRANCH  19  11
ATOM      3  N   UNL     1      -4.691   1.696  25.474  0.00  0.00    -0.288 NA
ATOM     11  C   UNL     1      -4.336   2.286  24.168  0.00  0.00    +0.146 C 
ATOM     12  C   UNL     1      -5.974   2.286  25.859  0.00  0.00    +0.085 C 
ATOM     13  C   UNL     1      -5.016   3.668  24.164  0.00  0.00    +0.030 C 
ATOM     16  C   UNL     1      -5.778   3.740  25.480  0.00  0.00    +0.017 C 
BRANCH   3  10
ATOM      2  O   UNL     1      -1.632  -3.634  25.297  0.00  0.00    -0.276 OA
ATOM      4  N   UNL     1      -3.498  -2.313  24.880  0.00  0.00    -0.302 N 
ATOM     10  C   UNL     1      -4.740   0.237  25.454  0.00  0.00    +0.060 C 
ATOM     14  C   UNL     1      -4.586  -0.275  24.017  0.00  0.00    +0.038 C 
ATOM     15  C   UNL     1      -3.638  -0.340  26.351  0.00  0.00    +0.038 C 
ATOM     17  C   UNL     1      -4.540  -1.803  23.980  0.00  0.00    +0.109 C 
ATOM     18  C   UNL     1      -3.611  -1.865  26.269  0.00  0.00    +0.109 C 
ATOM     20  C   UNL     1      -2.476  -3.191  24.515  0.00  0.00    +0.212 C 
ATOM     21  C   UNL     1      -2.425  -3.602  23.066  0.00  0.00    +0.109 C 
ENDBRANCH   3  10
ENDBRANCH  19  11
TORSDOF 4
ENDMDL
MODEL 2
REMARK VINA RESULT:       9.0      1.938      4.513
REMARK  Name = 51136904
REMARK  5 active torsions:
REMARK  status: ('A' for Active; 'I' for Inactive)
REMARK    1  A    between atoms: N_3  and  C_10
REMARK    2  A    between atoms: C_11  and  C_19
REMARK    3  A    between atoms: C_20  and  C_21
REMARK    4  A    between atoms: C_22  and  C_23
REMARK    5  A    between atoms: C_27  and  C_28
REMARK                            x       y       z     vdW  Elec       q    Type
REMARK                         _______ _______ _______ _____ _____    ______ ____
ROOT
ATOM      1  O   UNL     1      -0.937   0.105  22.761  0.00  0.00    -0.336 OA
ATOM      5  N   UNL     1       0.378  -0.888  24.278  0.00  0.00    -0.190 NA
ATOM      6  N   UNL     1       0.381   0.348  22.353  0.00  0.00    -0.056 NA
ATOM     19  C   UNL     1      -0.848  -0.628  23.901  0.00  0.00    +0.245 A 
ATOM     22  C   UNL     1       1.097  -0.269  23.297  0.00  0.00    +0.204 A 
ENDROOT
BRANCH  22  23
ATOM      7  N   UNL     1       4.608   0.828  22.744  0.00  0.00    -0.254 NA
ATOM     23  C   UNL     1       2.531  -0.285  23.292  0.00  0.00    +0.041 A 
ATOM     24  C   UNL     1       3.238  -1.369  23.800  0.00  0.00    +0.015 A 
ATOM     25  C   UNL     1       3.256   0.779  22.780  0.00  0.00    +0.123 A 
ATOM     26  C   UNL     1       4.628  -1.356  23.781  0.00  0.00    +0.029 A 
ATOM     27  C   UNL     1       5.260  -0.244  23.248  0.00  0.00    +0.074 A 
BRANCH  27  28
ATOM      8  N   UNL     1       8.748   0.924  23.842  0.00  0.00    -0.243 NA
ATOM      9  N   UNL     1       8.809  -1.000  22.394  0.00  0.00    -0.243 NA
ATOM     28  C   UNL     1       6.700  -0.161  23.196  0.00  0.00    +0.037 A 
ATOM     29  C   UNL     1       7.403   0.815  23.871  0.00  0.00    +0.124 A 
ATOM     30  C   UNL     1       7.463  -1.051  22.466  0.00  0.00    +0.124 A 
ATOM     31  C   UNL     1       9.379  -0.002  23.096  0.00  0.00    +0.221 A 
ENDBRANCH  27  28
ENDBRANCH  22  23
BRANCH  19  11
ATOM      3  N   UNL     1      -3.326  -0.738  23.694  0.00  0.00    -0.288 NA
ATOM     11  C   UNL     1      -2.158  -1.027  24.550  0.00  0.00    +0.146 C 
ATOM     12  C   UNL     1      -4.345  -1.730  24.037  0.00  0.00    +0.085 C 
ATOM     13  C   UNL     1      -2.245  -2.538  24.834  0.00  0.00    +0.030 C 
ATOM     16  C   UNL     1      -3.524  -2.998  24.150  0.00  0.00    +0.017 C 
BRANCH   3  10
ATOM      2  O   UNL     1      -2.143   5.128  25.104  0.00  0.00    -0.276 OA
ATOM      4  N   UNL     1      -3.561   3.297  24.926  0.00  0.00    -0.302 N 
ATOM     10  C   UNL     1      -3.820   0.629  23.834  0.00  0.00    +0.060 C 
ATOM     14  C   UNL     1      -4.133   0.928  25.306  0.00  0.00    +0.038 C 
ATOM     15  C   UNL     1      -2.785   1.622  23.293  0.00  0.00    +0.038 C 
ATOM     17  C   UNL     1      -4.562   2.383  25.491  0.00  0.00    +0.109 C 
ATOM     18  C   UNL     1      -3.240   3.063  23.517  0.00  0.00    +0.109 C 
ATOM     20  C   UNL     1      -2.955   4.351  25.610  0.00  0.00    +0.212 C 
ATOM     21  C   UNL     1      -3.335   4.524  27.058  0.00  0.00    +0.109 C 
ENDBRANCH   3  10
ENDBRANCH  19  11
TORSDOF 4
ENDMDL
MODEL 3
REMARK VINA RESULT:      10.0      1.869      2.818
REMARK  Name = 51136904
REMARK  5 active torsions:
REMARK  status: ('A' for Active; 'I' for Inactive)
REMARK    1  A    between atoms: N_3  and  C_10
REMARK    2  A    between atoms: C_11  and  C_19
REMARK    3  A    between atoms: C_20  and  C_21
REMARK    4  A    between atoms: C_22  and  C_23
REMARK    5  A    between atoms: C_27  and  C_28
REMARK                            x       y       z     vdW  Elec       q    Type
REMARK                         _______ _______ _______ _____ _____    ______ ____
ROOT
ATOM      1  O   UNL     1      -0.639   0.362  23.168  0.00  0.00    -0.336 OA
ATOM      5  N   UNL     1       0.975   1.766  23.831  0.00  0.00    -0.190 NA
ATOM      6  N   UNL     1       0.573  -0.300  22.934  0.00  0.00    -0.056 NA
ATOM     19  C   UNL     1      -0.312   1.570  23.697  0.00  0.00    +0.245 A 
ATOM     22  C   UNL     1       1.477   0.591  23.349  0.00  0.00    +0.204 A 
ENDROOT
BRANCH  22  23
ATOM      7  N   UNL     1       5.114   1.159  22.821  0.00  0.00    -0.254 NA
ATOM     23  C   UNL     1       2.889   0.342  23.296  0.00  0.00    +0.041 A 
ATOM     24  C   UNL     1       3.411  -0.898  23.647  0.00  0.00    +0.015 A 
ATOM     25  C   UNL     1       3.774   1.328  22.894  0.00  0.00    +0.123 A 
ATOM     26  C   UNL     1       4.784  -1.110  23.585  0.00  0.00    +0.029 A 
ATOM     27  C   UNL     1       5.585  -0.059  23.170  0.00  0.00    +0.074 A 
BRANCH  27  28
ATOM      8  N   UNL     1       8.944  -1.392  22.259  0.00  0.00    -0.243 NA
ATOM      9  N   UNL     1       9.230   0.548  23.661  0.00  0.00    -0.243 NA
ATOM     28  C   UNL     1       7.018  -0.206  23.082  0.00  0.00    +0.037 A 
ATOM     29  C   UNL     1       7.609  -1.222  22.360  0.00  0.00    +0.124 A 
ATOM     30  C   UNL     1       7.887   0.658  23.719  0.00  0.00    +0.124 A 
ATOM     31  C   UNL     1       9.685  -0.485  22.924  0.00  0.00    +0.221 A 
ENDBRANCH  27  28
ENDBRANCH  22  23
BRANCH  19  11
ATOM      3  N   UNL     1      -1.910   2.335  25.445  0.00  0.00    -0.288 NA
ATOM     11  C   UNL     1      -1.465   2.488  24.045  0.00  0.00    +0.146 C 
ATOM     12  C   UNL     1      -2.445   3.634  25.853  0.00  0.00    +0.085 C 
ATOM     13  C   UNL     1      -1.099   3.978  23.912  0.00  0.00    +0.030 C 
ATOM     16  C   UNL     1      -1.429   4.592  25.265  0.00  0.00    +0.017 C 
BRANCH   3  10
ATOM      2  O   UNL     1      -3.299  -3.617  24.776  0.00  0.00    -0.276 OA
ATOM      4  N   UNL     1      -3.874  -1.372  24.943  0.00  0.00    -0.302 N 
ATOM     10  C   UNL     1      -2.880   1.258  25.627  0.00  0.00    +0.060 C 
ATOM     14  C   UNL     1      -3.632   1.001  24.316  0.00  0.00    +0.038 C 
ATOM     15  C   UNL     1      -2.170  -0.017  26.098  0.00  0.00    +0.038 C 
ATOM     17  C   UNL     1      -4.587  -0.186  24.455  0.00  0.00    +0.109 C 
ATOM     18  C   UNL     1      -3.153  -1.182  26.203  0.00  0.00    +0.109 C 
ATOM     20  C   UNL     1      -3.877  -2.624  24.328  0.00  0.00    +0.212 C 
ATOM     21  C   UNL     1      -4.640  -2.739  23.033  0.00  0.00    +0.109 C 
ENDBRANCH   3  10
ENDBRANCH  19  11
TORSDOF 4
ENDMDL
