MODEL 1
REMARK VINA RESULT:      -4.4      0.000      0.000
REMARK  Name = 7673425
REMARK  13 active torsions:
REMARK  status: ('A' for Active; 'I' for Inactive)
REMARK    1  A    between atoms: N_4  and  C_19
REMARK    2  A    between atoms: N_4  and  C_20
REMARK    3  A    between atoms: C_6  and  C_12
REMARK    4  A    between atoms: C_7  and  C_11
REMARK    5  A    between atoms: C_11  and  C_14
REMARK    6  A    between atoms: C_12  and  C_15
REMARK    7  A    between atoms: C_13  and  C_16
REMARK    8  A    between atoms: C_16  and  C_17
REMARK    9  A    between atoms: C_17  and  C_18
REMARK   10  A    between atoms: C_18  and  C_21
REMARK   11  A    between atoms: C_19  and  C_22
REMARK   12  A    between atoms: C_21  and  C_23
REMARK   13  A    between atoms: C_22  and  C_24
REMARK                            x       y       z     vdW  Elec       q    Type
REMARK                         _______ _______ _______ _____ _____    ______ ____
ROOT
ATOM      1  O   UNL     1       2.188  -1.037  22.620  0.00  0.00    -0.276 OA
ATOM      3  N   UNL     1       0.309   0.050  23.450  0.00  0.00    -0.301 N 
ATOM      6  C   UNL     1      -2.073  -0.268  25.122  0.00  0.00    +0.004 C 
ATOM      7  C   UNL     1      -1.320  -1.479  24.520  0.00  0.00    +0.010 C 
ATOM      8  C   UNL     1      -1.096   0.911  25.286  0.00  0.00    +0.023 C 
ATOM      9  C   UNL     1      -0.570  -1.102  23.233  0.00  0.00    +0.111 C 
ATOM     10  C   UNL     1      -0.351   1.241  23.994  0.00  0.00    +0.108 C 
ATOM     13  C   UNL     1       1.651  -0.025  23.076  0.00  0.00    +0.216 C 
ENDROOT
BRANCH   7  11
ATOM     11  C   UNL     1      -2.223  -2.689  24.281  0.00  0.00    +0.002 C 
ATOM     14  C   UNL     1      -3.375  -2.714  25.264  0.00  0.00    +0.004 C 
ENDBRANCH   7  11
BRANCH   6  12
ATOM     12  C   UNL     1      -3.312   0.155  24.325  0.00  0.00    +0.100 C 
BRANCH  12  15
ATOM      2  O   UNL     1      -4.485   1.550  25.882  0.00  0.00    -0.276 OA
ATOM      4  N   UNL     1      -3.690   2.572  23.957  0.00  0.00    -0.304 N 
ATOM     15  C   UNL     1      -3.886   1.477  24.805  0.00  0.00    +0.216 C 
ATOM     20  C   UNL     1      -2.979   2.462  22.689  0.00  0.00    +0.132 C 
BRANCH   4  19
ATOM     19  C   UNL     1      -4.180   3.910  24.280  0.00  0.00    +0.122 C 
BRANCH  19  22
ATOM     22  C   UNL     1      -3.458   4.524  25.473  0.00  0.00    +0.137 C 
BRANCH  22  24
ATOM      5  N   UNL     1      -0.867   4.714  25.061  0.00  0.00    -0.197 NA
ATOM     24  C   UNL     1      -2.010   4.629  25.241  0.00  0.00    +0.064 C 
ENDBRANCH  22  24
ENDBRANCH  19  22
ENDBRANCH   4  19
ENDBRANCH  12  15
ENDBRANCH   6  12
BRANCH  13  16
ATOM     16  C   UNL     1       2.474   1.226  23.256  0.00  0.00    +0.096 C 
BRANCH  16  17
ATOM     17  C   UNL     1       3.841   1.061  22.611  0.00  0.00    +0.009 C 
BRANCH  17  18
ATOM     18  C   UNL     1       4.971   0.953  23.639  0.00  0.00    +0.000 C 
BRANCH  18  21
ATOM     21  C   UNL     1       5.759  -0.345  23.462  0.00  0.00    -0.003 C 
ATOM     23  C   UNL     1       4.997  -1.540  24.014  0.00  0.00    +0.004 C 
ENDBRANCH  18  21
ENDBRANCH  17  18
ENDBRANCH  16  17
ENDBRANCH  13  16
TORSDOF 10
ENDMDL
MODEL 2
REMARK VINA RESULT:      -3.6      1.929      4.365
REMARK  Name = 7673425
REMARK  13 active torsions:
REMARK  status: ('A' for Active; 'I' for Inactive)
REMARK    1  A    between atoms: N_4  and  C_19
REMARK    2  A    between atoms: N_4  and  C_20
REMARK    3  A    between atoms: C_6  and  C_12
REMARK    4  A    between atoms: C_7  and  C_11
REMARK    5  A    between atoms: C_11  and  C_14
REMARK    6  A    between atoms: C_12  and  C_15
REMARK    7  A    between atoms: C_13  and  C_16
REMARK    8  A    between atoms: C_16  and  C_17
REMARK    9  A    between atoms: C_17  and  C_18
REMARK   10  A    between atoms: C_18  and  C_21
REMARK   11  A    between atoms: C_19  and  C_22
REMARK   12  A    between atoms: C_21  and  C_23
REMARK   13  A    between atoms: C_22  and  C_24
REMARK                            x       y       z     vdW  Elec       q    Type
REMARK                         _______ _______ _______ _____ _____    ______ ____
ROOT
ATOM      1  O   UNL     1       1.009   2.448  25.065  0.00  0.00    -0.276 OA
ATOM      3  N   UNL     1      -0.977   1.420  24.431  0.00  0.00    -0.301 N 
ATOM      6  C   UNL     1      -3.843   1.845  24.017  0.00  0.00    +0.004 C 
ATOM      7  C   UNL     1      -2.986   2.795  24.889  0.00  0.00    +0.010 C 
ATOM      8  C   UNL     1      -2.947   1.166  22.967  0.00  0.00    +0.023 C 
ATOM      9  C   UNL     1      -1.762   2.078  25.479  0.00  0.00    +0.111 C 
ATOM     10  C   UNL     1      -1.727   0.485  23.586  0.00  0.00    +0.108 C 
ATOM     13  C   UNL     1       0.395   1.657  24.344  0.00  0.00    +0.216 C 
ENDROOT
BRANCH   7  11
ATOM     11  C   UNL     1      -3.788   3.485  25.992  0.00  0.00    +0.002 C 
ATOM     14  C   UNL     1      -5.128   3.964  25.476  0.00  0.00    +0.004 C 
ENDBRANCH   7  11
BRANCH   6  12
ATOM     12  C   UNL     1      -4.632   0.804  24.820  0.00  0.00    +0.100 C 
BRANCH  12  15
ATOM      2  O   UNL     1      -4.648  -0.981  23.220  0.00  0.00    -0.276 OA
ATOM      4  N   UNL     1      -3.742  -1.454  25.303  0.00  0.00    -0.304 N 
ATOM     15  C   UNL     1      -4.349  -0.616  24.361  0.00  0.00    +0.216 C 
ATOM     20  C   UNL     1      -3.399  -1.001  26.645  0.00  0.00    +0.132 C 
BRANCH   4  19
ATOM     19  C   UNL     1      -3.406  -2.846  25.011  0.00  0.00    +0.122 C 
BRANCH  19  22
ATOM     22  C   UNL     1      -2.121  -2.978  24.203  0.00  0.00    +0.137 C 
BRANCH  22  24
ATOM      5  N   UNL     1      -0.065  -1.915  25.454  0.00  0.00    -0.197 NA
ATOM     24  C   UNL     1      -0.971  -2.384  24.902  0.00  0.00    +0.064 C 
ENDBRANCH  22  24
ENDBRANCH  19  22
ENDBRANCH   4  19
ENDBRANCH  12  15
ENDBRANCH   6  12
BRANCH  13  16
ATOM     16  C   UNL     1       1.150   0.884  23.292  0.00  0.00    +0.096 C 
BRANCH  16  17
ATOM     17  C   UNL     1       2.596   1.349  23.224  0.00  0.00    +0.009 C 
BRANCH  17  18
ATOM     18  C   UNL     1       3.540   0.273  22.680  0.00  0.00    +0.000 C 
BRANCH  18  21
ATOM     21  C   UNL     1       4.972   0.494  23.167  0.00  0.00    -0.003 C 
ATOM     23  C   UNL     1       5.407  -0.597  24.133  0.00  0.00    +0.004 C 
ENDBRANCH  18  21
ENDBRANCH  17  18
ENDBRANCH  16  17
ENDBRANCH  13  16
TORSDOF 10
ENDMDL
MODEL 3
REMARK VINA RESULT:      -3.5      2.122      5.505
REMARK  Name = 7673425
REMARK  13 active torsions:
REMARK  status: ('A' for Active; 'I' for Inactive)
REMARK    1  A    between atoms: N_4  and  C_19
REMARK    2  A    between atoms: N_4  and  C_20
REMARK    3  A    between atoms: C_6  and  C_12
REMARK    4  A    between atoms: C_7  and  C_11
REMARK    5  A    between atoms: C_11  and  C_14
REMARK    6  A    between atoms: C_12  and  C_15
REMARK    7  A    between atoms: C_13  and  C_16
REMARK    8  A    between atoms: C_16  and  C_17
REMARK    9  A    between atoms: C_17  and  C_18
REMARK   10  A    between atoms: C_18  and  C_21
REMARK   11  A    between atoms: C_19  and  C_22
REMARK   12  A    between atoms: C_21  and  C_23
REMARK   13  A    between atoms: C_22  and  C_24
REMARK                            x       y       z     vdW  Elec       q    Type
REMARK                         _______ _______ _______ _____ _____    ______ ____
ROOT
ATOM      1  O   UNL     1      -1.543  -3.267  24.642  0.00  0.00    -0.276 OA
ATOM      3  N   UNL     1      -1.324  -0.955  24.736  0.00  0.00    -0.301 N 
ATOM      6  C   UNL     1      -0.043   1.361  23.486  0.00  0.00    +0.004 C 
ATOM      7  C   UNL     1       0.492  -0.079  23.296  0.00  0.00    +0.010 C 
ATOM      8  C   UNL     1      -1.551   1.311  23.787  0.00  0.00    +0.023 C 
ATOM      9  C   UNL     1       0.118  -0.986  24.479  0.00  0.00    +0.111 C 
ATOM     10  C   UNL     1      -1.888   0.382  24.952  0.00  0.00    +0.108 C 
ATOM     13  C   UNL     1      -2.036  -2.151  24.827  0.00  0.00    +0.216 C 
ENDROOT
BRANCH   7  11
ATOM     11  C   UNL     1       1.997  -0.131  23.033  0.00  0.00    +0.002 C 
ATOM     14  C   UNL     1       2.291  -0.204  21.550  0.00  0.00    +0.004 C 
ENDBRANCH   7  11
BRANCH   6  12
ATOM     12  C   UNL     1       0.704   2.167  24.556  0.00  0.00    +0.100 C 
BRANCH  12  15
ATOM      2  O   UNL     1      -0.516   2.573  26.579  0.00  0.00    -0.276 OA
ATOM      4  N   UNL     1      -0.751   4.141  24.886  0.00  0.00    -0.304 N 
ATOM     15  C   UNL     1      -0.238   2.964  25.442  0.00  0.00    +0.216 C 
ATOM     20  C   UNL     1      -0.408   4.584  23.540  0.00  0.00    +0.132 C 
BRANCH   4  19
ATOM     19  C   UNL     1      -1.667   5.017  25.613  0.00  0.00    +0.122 C 
BRANCH  19  22
ATOM     22  C   UNL     1      -3.015   4.357  25.879  0.00  0.00    +0.137 C 
BRANCH  22  24
ATOM      5  N   UNL     1      -4.174   3.564  23.656  0.00  0.00    -0.197 NA
ATOM     24  C   UNL     1      -3.663   3.915  24.636  0.00  0.00    +0.064 C 
ENDBRANCH  22  24
ENDBRANCH  19  22
ENDBRANCH   4  19
ENDBRANCH  12  15
ENDBRANCH   6  12
BRANCH  13  16
ATOM     16  C   UNL     1      -3.500  -2.043  25.172  0.00  0.00    +0.096 C 
BRANCH  16  17
ATOM     17  C   UNL     1      -4.314  -1.688  23.938  0.00  0.00    +0.009 C 
BRANCH  17  18
ATOM     18  C   UNL     1      -4.796  -0.234  23.946  0.00  0.00    +0.000 C 
BRANCH  18  21
ATOM     21  C   UNL     1      -4.849   0.324  25.368  0.00  0.00    -0.003 C 
ATOM     23  C   UNL     1      -5.957   1.354  25.522  0.00  0.00    +0.004 C 
ENDBRANCH  18  21
ENDBRANCH  17  18
ENDBRANCH  16  17
ENDBRANCH  13  16
TORSDOF 10
ENDMDL
MODEL 4
REMARK VINA RESULT:      -3.3      2.977      5.463
REMARK  Name = 7673425
REMARK  13 active torsions:
REMARK  status: ('A' for Active; 'I' for Inactive)
REMARK    1  A    between atoms: N_4  and  C_19
REMARK    2  A    between atoms: N_4  and  C_20
REMARK    3  A    between atoms: C_6  and  C_12
REMARK    4  A    between atoms: C_7  and  C_11
REMARK    5  A    between atoms: C_11  and  C_14
REMARK    6  A    between atoms: C_12  and  C_15
REMARK    7  A    between atoms: C_13  and  C_16
REMARK    8  A    between atoms: C_16  and  C_17
REMARK    9  A    between atoms: C_17  and  C_18
REMARK   10  A    between atoms: C_18  and  C_21
REMARK   11  A    between atoms: C_19  and  C_22
REMARK   12  A    between atoms: C_21  and  C_23
REMARK   13  A    between atoms: C_22  and  C_24
REMARK                            x       y       z     vdW  Elec       q    Type
REMARK                         _______ _______ _______ _____ _____    ______ ____
ROOT
ATOM      1  O   UNL     1      -2.426   5.009  26.058  0.00  0.00    -0.276 OA
ATOM      3  N   UNL     1      -2.700   2.853  25.232  0.00  0.00    -0.301 N 
ATOM      6  C   UNL     1      -4.561   1.051  23.870  0.00  0.00    +0.004 C 
ATOM      7  C   UNL     1      -5.037   2.331  24.600  0.00  0.00    +0.010 C 
ATOM      8  C   UNL     1      -3.103   1.235  23.414  0.00  0.00    +0.023 C 
ATOM      9  C   UNL     1      -4.074   2.737  25.726  0.00  0.00    +0.111 C 
ATOM     10  C   UNL     1      -2.179   1.661  24.554  0.00  0.00    +0.108 C 
ATOM     13  C   UNL     1      -1.971   4.016  25.486  0.00  0.00    +0.216 C 
ENDROOT
BRANCH   7  11
ATOM     11  C   UNL     1      -6.467   2.225  25.128  0.00  0.00    +0.002 C 
ATOM     14  C   UNL     1      -6.481   1.987  26.624  0.00  0.00    +0.004 C 
ENDBRANCH   7  11
BRANCH   6  12
ATOM     12  C   UNL     1      -4.720  -0.232  24.695  0.00  0.00    +0.100 C 
BRANCH  12  15
ATOM      2  O   UNL     1      -3.968  -1.938  23.188  0.00  0.00    -0.276 OA
ATOM      4  N   UNL     1      -2.693  -1.592  25.095  0.00  0.00    -0.304 N 
ATOM     15  C   UNL     1      -3.773  -1.330  24.245  0.00  0.00    +0.216 C 
ATOM     20  C   UNL     1      -2.482  -0.861  26.339  0.00  0.00    +0.132 C 
BRANCH   4  19
ATOM     19  C   UNL     1      -1.694  -2.617  24.800  0.00  0.00    +0.122 C 
BRANCH  19  22
ATOM     22  C   UNL     1      -0.270  -2.128  25.036  0.00  0.00    +0.137 C 
BRANCH  22  24
ATOM      5  N   UNL     1       0.413  -0.239  23.338  0.00  0.00    -0.197 NA
ATOM     24  C   UNL     1       0.112  -1.073  24.086  0.00  0.00    +0.064 C 
ENDBRANCH  22  24
ENDBRANCH  19  22
ENDBRANCH   4  19
ENDBRANCH  12  15
ENDBRANCH   6  12
BRANCH  13  16
ATOM     16  C   UNL     1      -0.538   4.032  25.016  0.00  0.00    +0.096 C 
BRANCH  16  17
ATOM     17  C   UNL     1       0.211   2.820  25.549  0.00  0.00    +0.009 C 
BRANCH  17  18
ATOM     18  C   UNL     1       0.082   2.666  27.067  0.00  0.00    +0.000 C 
BRANCH  18  21
ATOM     21  C   UNL     1       1.443   2.790  27.754  0.00  0.00    -0.003 C 
ATOM     23  C   UNL     1       1.354   2.444  29.232  0.00  0.00    +0.004 C 
ENDBRANCH  18  21
ENDBRANCH  17  18
ENDBRANCH  16  17
ENDBRANCH  13  16
TORSDOF 10
ENDMDL
MODEL 5
REMARK VINA RESULT:      -3.2     15.664     17.234
REMARK  Name = 7673425
REMARK  13 active torsions:
REMARK  status: ('A' for Active; 'I' for Inactive)
REMARK    1  A    between atoms: N_4  and  C_19
REMARK    2  A    between atoms: N_4  and  C_20
REMARK    3  A    between atoms: C_6  and  C_12
REMARK    4  A    between atoms: C_7  and  C_11
REMARK    5  A    between atoms: C_11  and  C_14
REMARK    6  A    between atoms: C_12  and  C_15
REMARK    7  A    between atoms: C_13  and  C_16
REMARK    8  A    between atoms: C_16  and  C_17
REMARK    9  A    between atoms: C_17  and  C_18
REMARK   10  A    between atoms: C_18  and  C_21
REMARK   11  A    between atoms: C_19  and  C_22
REMARK   12  A    between atoms: C_21  and  C_23
REMARK   13  A    between atoms: C_22  and  C_24
REMARK                            x       y       z     vdW  Elec       q    Type
REMARK                         _______ _______ _______ _____ _____    ______ ____
ROOT
ATOM      1  O   UNL     1      -1.243 -10.027  12.865  0.00  0.00    -0.276 OA
ATOM      3  N   UNL     1      -3.088  -9.801  11.469  0.00  0.00    -0.301 N 
ATOM      6  C   UNL     1      -5.985  -9.385  11.410  0.00  0.00    +0.004 C 
ATOM      7  C   UNL     1      -5.251  -9.903  12.672  0.00  0.00    +0.010 C 
ATOM      8  C   UNL     1      -5.011  -8.552  10.558  0.00  0.00    +0.023 C 
ATOM      9  C   UNL     1      -3.948 -10.634  12.313  0.00  0.00    +0.111 C 
ATOM     10  C   UNL     1      -3.717  -9.300  10.242  0.00  0.00    +0.108 C 
ATOM     13  C   UNL     1      -1.755  -9.597  11.828  0.00  0.00    +0.216 C 
ENDROOT
BRANCH   7  11
ATOM     11  C   UNL     1      -6.132 -10.780  13.561  0.00  0.00    +0.002 C 
ATOM     14  C   UNL     1      -6.685  -9.992  14.729  0.00  0.00    +0.004 C 
ENDBRANCH   7  11
BRANCH   6  12
ATOM     12  C   UNL     1      -6.639 -10.490  10.572  0.00  0.00    +0.100 C 
BRANCH  12  15
ATOM      2  O   UNL     1      -6.871  -9.822   8.282  0.00  0.00    -0.276 OA
ATOM      4  N   UNL     1      -8.740  -9.578   9.635  0.00  0.00    -0.304 N 
ATOM     15  C   UNL     1      -7.410  -9.936   9.386  0.00  0.00    +0.216 C 
ATOM     20  C   UNL     1      -9.355  -9.723  10.949  0.00  0.00    +0.132 C 
BRANCH   4  19
ATOM     19  C   UNL     1      -9.612  -9.033   8.597  0.00  0.00    +0.122 C 
BRANCH  19  22
ATOM     22  C   UNL     1     -10.121  -7.638   8.937  0.00  0.00    +0.137 C 
BRANCH  22  24
ATOM      5  N   UNL     1      -8.348  -5.781   8.363  0.00  0.00    -0.197 NA
ATOM     24  C   UNL     1      -9.130  -6.600   8.617  0.00  0.00    +0.064 C 
ENDBRANCH  22  24
ENDBRANCH  19  22
ENDBRANCH   4  19
ENDBRANCH  12  15
ENDBRANCH   6  12
BRANCH  13  16
ATOM     16  C   UNL     1      -0.911  -8.796  10.870  0.00  0.00    +0.096 C 
BRANCH  16  17
ATOM     17  C   UNL     1       0.496  -8.619  11.419  0.00  0.00    +0.009 C 
BRANCH  17  18
ATOM     18  C   UNL     1       0.614  -7.425  12.372  0.00  0.00    +0.000 C 
BRANCH  18  21
ATOM     21  C   UNL     1       1.749  -6.492  11.952  0.00  0.00    -0.003 C 
ATOM     23  C   UNL     1       3.109  -7.072  12.309  0.00  0.00    +0.004 C 
ENDBRANCH  18  21
ENDBRANCH  17  18
ENDBRANCH  16  17
ENDBRANCH  13  16
TORSDOF 10
ENDMDL
MODEL 6
REMARK VINA RESULT:      -3.1      1.821      7.039
REMARK  Name = 7673425
REMARK  13 active torsions:
REMARK  status: ('A' for Active; 'I' for Inactive)
REMARK    1  A    between atoms: N_4  and  C_19
REMARK    2  A    between atoms: N_4  and  C_20
REMARK    3  A    between atoms: C_6  and  C_12
REMARK    4  A    between atoms: C_7  and  C_11
REMARK    5  A    between atoms: C_11  and  C_14
REMARK    6  A    between atoms: C_12  and  C_15
REMARK    7  A    between atoms: C_13  and  C_16
REMARK    8  A    between atoms: C_16  and  C_17
REMARK    9  A    between atoms: C_17  and  C_18
REMARK   10  A    between atoms: C_18  and  C_21
REMARK   11  A    between atoms: C_19  and  C_22
REMARK   12  A    between atoms: C_21  and  C_23
REMARK   13  A    between atoms: C_22  and  C_24
REMARK                            x       y       z     vdW  Elec       q    Type
REMARK                         _______ _______ _______ _____ _____    ______ ____
ROOT
ATOM      1  O   UNL     1      -5.063   3.181  25.015  0.00  0.00    -0.276 OA
ATOM      3  N   UNL     1      -3.116   2.002  24.542  0.00  0.00    -0.301 N 
ATOM      6  C   UNL     1      -0.251   1.822  25.112  0.00  0.00    +0.004 C 
ATOM      7  C   UNL     1      -1.065   3.113  25.375  0.00  0.00    +0.010 C 
ATOM      8  C   UNL     1      -1.187   0.603  25.183  0.00  0.00    +0.023 C 
ATOM      9  C   UNL     1      -2.293   3.209  24.456  0.00  0.00    +0.111 C 
ATOM     10  C   UNL     1      -2.408   0.745  24.275  0.00  0.00    +0.108 C 
ATOM     13  C   UNL     1      -4.484   2.114  24.793  0.00  0.00    +0.216 C 
ENDROOT
BRANCH   7  11
ATOM     11  C   UNL     1      -0.222   4.384  25.282  0.00  0.00    +0.002 C 
ATOM     14  C   UNL     1      -1.050   5.555  24.796  0.00  0.00    +0.004 C 
ENDBRANCH   7  11
BRANCH   6  12
ATOM     12  C   UNL     1       0.531   1.837  23.792  0.00  0.00    +0.100 C 
BRANCH  12  15
ATOM      2  O   UNL     1       0.423  -0.549  23.584  0.00  0.00    -0.276 OA
ATOM      4  N   UNL     1       2.415   0.466  22.960  0.00  0.00    -0.304 N 
ATOM     15  C   UNL     1       1.101   0.474  23.442  0.00  0.00    +0.216 C 
ATOM     20  C   UNL     1       3.195   1.686  22.801  0.00  0.00    +0.132 C 
BRANCH   4  19
ATOM     19  C   UNL     1       3.102  -0.766  22.579  0.00  0.00    +0.122 C 
BRANCH  19  22
ATOM     22  C   UNL     1       3.983  -1.311  23.696  0.00  0.00    +0.137 C 
BRANCH  22  24
ATOM      5  N   UNL     1       6.229   0.041  23.922  0.00  0.00    -0.197 NA
ATOM     24  C   UNL     1       5.238  -0.554  23.822  0.00  0.00    +0.064 C 
ENDBRANCH  22  24
ENDBRANCH  19  22
ENDBRANCH   4  19
ENDBRANCH  12  15
ENDBRANCH   6  12
BRANCH  13  16
ATOM     16  C   UNL     1      -5.281   0.834  24.788  0.00  0.00    +0.096 C 
BRANCH  16  17
ATOM     17  C   UNL     1      -4.441  -0.318  25.316  0.00  0.00    +0.009 C 
BRANCH  17  18
ATOM     18  C   UNL     1      -4.253  -1.435  24.285  0.00  0.00    +0.000 C 
BRANCH  18  21
ATOM     21  C   UNL     1      -3.554  -2.646  24.902  0.00  0.00    -0.003 C 
ATOM     23  C   UNL     1      -2.157  -2.835  24.331  0.00  0.00    +0.004 C 
ENDBRANCH  18  21
ENDBRANCH  17  18
ENDBRANCH  16  17
ENDBRANCH  13  16
TORSDOF 10
ENDMDL
MODEL 7
REMARK VINA RESULT:      -2.5      2.311      5.528
REMARK  Name = 7673425
REMARK  13 active torsions:
REMARK  status: ('A' for Active; 'I' for Inactive)
REMARK    1  A    between atoms: N_4  and  C_19
REMARK    2  A    between atoms: N_4  and  C_20
REMARK    3  A    between atoms: C_6  and  C_12
REMARK    4  A    between atoms: C_7  and  C_11
REMARK    5  A    between atoms: C_11  and  C_14
REMARK    6  A    between atoms: C_12  and  C_15
REMARK    7  A    between atoms: C_13  and  C_16
REMARK    8  A    between atoms: C_16  and  C_17
REMARK    9  A    between atoms: C_17  and  C_18
REMARK   10  A    between atoms: C_18  and  C_21
REMARK   11  A    between atoms: C_19  and  C_22
REMARK   12  A    between atoms: C_21  and  C_23
REMARK   13  A    between atoms: C_22  and  C_24
REMARK                            x       y       z     vdW  Elec       q    Type
REMARK                         _______ _______ _______ _____ _____    ______ ____
ROOT
ATOM      1  O   UNL     1      -0.106   3.915  24.468  0.00  0.00    -0.276 OA
ATOM      3  N   UNL     1      -0.871   1.746  24.806  0.00  0.00    -0.301 N 
ATOM      6  C   UNL     1      -0.145  -1.084  24.625  0.00  0.00    +0.004 C 
ATOM      7  C   UNL     1       0.619   0.016  23.846  0.00  0.00    +0.010 C 
ATOM      8  C   UNL     1      -0.779  -0.470  25.886  0.00  0.00    +0.023 C 
ATOM      9  C   UNL     1      -0.268   1.240  23.571  0.00  0.00    +0.111 C 
ATOM     10  C   UNL     1      -1.634   0.758  25.577  0.00  0.00    +0.108 C 
ATOM     13  C   UNL     1      -0.752   3.098  25.130  0.00  0.00    +0.216 C 
ENDROOT
BRANCH   7  11
ATOM     11  C   UNL     1       1.249  -0.494  22.551  0.00  0.00    +0.002 C 
ATOM     14  C   UNL     1       2.637   0.079  22.355  0.00  0.00    +0.004 C 
ENDBRANCH   7  11
BRANCH   6  12
ATOM     12  C   UNL     1      -1.195  -1.824  23.788  0.00  0.00    +0.100 C 
BRANCH  12  15
ATOM      2  O   UNL     1      -2.804  -2.577  25.397  0.00  0.00    -0.276 OA
ATOM      4  N   UNL     1      -3.502  -0.938  23.910  0.00  0.00    -0.304 N 
ATOM     15  C   UNL     1      -2.563  -1.826  24.447  0.00  0.00    +0.216 C 
ATOM     20  C   UNL     1      -3.194  -0.061  22.787  0.00  0.00    +0.132 C 
BRANCH   4  19
ATOM     19  C   UNL     1      -4.860  -0.822  24.435  0.00  0.00    +0.122 C 
BRANCH  19  22
ATOM     22  C   UNL     1      -4.994   0.295  25.463  0.00  0.00    +0.137 C 
BRANCH  22  24
ATOM      5  N   UNL     1      -6.857   2.027  24.792  0.00  0.00    -0.197 NA
ATOM     24  C   UNL     1      -6.036   1.262  25.088  0.00  0.00    +0.064 C 
ENDBRANCH  22  24
ENDBRANCH  19  22
ENDBRANCH   4  19
ENDBRANCH  12  15
ENDBRANCH   6  12
BRANCH  13  16
ATOM     16  C   UNL     1      -1.466   3.562  26.374  0.00  0.00    +0.096 C 
BRANCH  16  17
ATOM     17  C   UNL     1      -2.574   4.541  26.020  0.00  0.00    +0.009 C 
BRANCH  17  18
ATOM     18  C   UNL     1      -3.847   3.842  25.533  0.00  0.00    +0.000 C 
BRANCH  18  21
ATOM     21  C   UNL     1      -4.169   4.222  24.088  0.00  0.00    -0.003 C 
ATOM     23  C   UNL     1      -3.749   3.129  23.117  0.00  0.00    +0.004 C 
ENDBRANCH  18  21
ENDBRANCH  17  18
ENDBRANCH  16  17
ENDBRANCH  13  16
TORSDOF 10
ENDMDL
MODEL 8
REMARK VINA RESULT:      -2.5      1.648      2.731
REMARK  Name = 7673425
REMARK  13 active torsions:
REMARK  status: ('A' for Active; 'I' for Inactive)
REMARK    1  A    between atoms: N_4  and  C_19
REMARK    2  A    between atoms: N_4  and  C_20
REMARK    3  A    between atoms: C_6  and  C_12
REMARK    4  A    between atoms: C_7  and  C_11
REMARK    5  A    between atoms: C_11  and  C_14
REMARK    6  A    between atoms: C_12  and  C_15
REMARK    7  A    between atoms: C_13  and  C_16
REMARK    8  A    between atoms: C_16  and  C_17
REMARK    9  A    between atoms: C_17  and  C_18
REMARK   10  A    between atoms: C_18  and  C_21
REMARK   11  A    between atoms: C_19  and  C_22
REMARK   12  A    between atoms: C_21  and  C_23
REMARK   13  A    between atoms: C_22  and  C_24
REMARK                            x       y       z     vdW  Elec       q    Type
REMARK                         _______ _______ _______ _____ _____    ______ ____
ROOT
ATOM      1  O   UNL     1       1.520  -0.410  22.539  0.00  0.00    -0.276 OA
ATOM      3  N   UNL     1       0.750   1.480  23.651  0.00  0.00    -0.301 N 
ATOM      6  C   UNL     1      -1.114   2.438  25.695  0.00  0.00    +0.004 C 
ATOM      7  C   UNL     1      -1.291   1.068  24.994  0.00  0.00    +0.010 C 
ATOM      8  C   UNL     1       0.374   2.831  25.681  0.00  0.00    +0.023 C 
ATOM      9  C   UNL     1      -0.651   1.057  23.596  0.00  0.00    +0.111 C 
ATOM     10  C   UNL     1       0.982   2.785  24.280  0.00  0.00    +0.108 C 
ATOM     13  C   UNL     1       1.735   0.685  23.064  0.00  0.00    +0.216 C 
ENDROOT
BRANCH   7  11
ATOM     11  C   UNL     1      -2.748   0.614  24.922  0.00  0.00    +0.002 C 
ATOM     14  C   UNL     1      -2.846  -0.892  24.806  0.00  0.00    +0.004 C 
ENDBRANCH   7  11
BRANCH   6  12
ATOM     12  C   UNL     1      -1.982   3.556  25.105  0.00  0.00    +0.100 C 
BRANCH  12  15
ATOM      2  O   UNL     1      -3.310   3.851  27.079  0.00  0.00    -0.276 OA
ATOM      4  N   UNL     1      -4.450   3.724  25.063  0.00  0.00    -0.304 N 
ATOM     15  C   UNL     1      -3.294   3.724  25.851  0.00  0.00    +0.216 C 
ATOM     20  C   UNL     1      -4.408   3.572  23.614  0.00  0.00    +0.132 C 
BRANCH   4  19
ATOM     19  C   UNL     1      -5.787   3.877  25.633  0.00  0.00    +0.122 C 
BRANCH  19  22
ATOM     22  C   UNL     1      -6.318   2.579  26.230  0.00  0.00    +0.137 C 
BRANCH  22  24
ATOM      5  N   UNL     1      -6.154   0.578  24.530  0.00  0.00    -0.197 NA
ATOM     24  C   UNL     1      -6.227   1.461  25.279  0.00  0.00    +0.064 C 
ENDBRANCH  22  24
ENDBRANCH  19  22
ENDBRANCH   4  19
ENDBRANCH  12  15
ENDBRANCH   6  12
BRANCH  13  16
ATOM     16  C   UNL     1       3.143   1.224  23.089  0.00  0.00    +0.096 C 
BRANCH  16  17
ATOM     17  C   UNL     1       4.094   0.264  22.391  0.00  0.00    +0.009 C 
BRANCH  17  18
ATOM     18  C   UNL     1       5.465   0.191  23.068  0.00  0.00    +0.000 C 
BRANCH  18  21
ATOM     21  C   UNL     1       5.448  -0.782  24.247  0.00  0.00    -0.003 C 
ATOM     23  C   UNL     1       4.499  -1.944  23.999  0.00  0.00    +0.004 C 
ENDBRANCH  18  21
ENDBRANCH  17  18
ENDBRANCH  16  17
ENDBRANCH  13  16
TORSDOF 10
ENDMDL
MODEL 9
REMARK VINA RESULT:      -2.3      1.965      4.532
REMARK  Name = 7673425
REMARK  13 active torsions:
REMARK  status: ('A' for Active; 'I' for Inactive)
REMARK    1  A    between atoms: N_4  and  C_19
REMARK    2  A    between atoms: N_4  and  C_20
REMARK    3  A    between atoms: C_6  and  C_12
REMARK    4  A    between atoms: C_7  and  C_11
REMARK    5  A    between atoms: C_11  and  C_14
REMARK    6  A    between atoms: C_12  and  C_15
REMARK    7  A    between atoms: C_13  and  C_16
REMARK    8  A    between atoms: C_16  and  C_17
REMARK    9  A    between atoms: C_17  and  C_18
REMARK   10  A    between atoms: C_18  and  C_21
REMARK   11  A    between atoms: C_19  and  C_22
REMARK   12  A    between atoms: C_21  and  C_23
REMARK   13  A    between atoms: C_22  and  C_24
REMARK                            x       y       z     vdW  Elec       q    Type
REMARK                         _______ _______ _______ _____ _____    ______ ____
ROOT
ATOM      1  O   UNL     1       2.403   1.986  23.587  0.00  0.00    -0.276 OA
ATOM      3  N   UNL     1       0.209   1.303  23.936  0.00  0.00    -0.301 N 
ATOM      6  C   UNL     1      -2.562   2.226  24.139  0.00  0.00    +0.004 C 
ATOM      7  C   UNL     1      -1.358   3.183  24.319  0.00  0.00    +0.010 C 
ATOM      8  C   UNL     1      -2.146   1.044  23.245  0.00  0.00    +0.023 C 
ATOM      9  C   UNL     1      -0.105   2.438  24.807  0.00  0.00    +0.111 C 
ATOM     10  C   UNL     1      -0.884   0.343  23.746  0.00  0.00    +0.108 C 
ATOM     13  C   UNL     1       1.496   1.167  23.415  0.00  0.00    +0.216 C 
ENDROOT
BRANCH   7  11
ATOM     11  C   UNL     1      -1.666   4.370  25.231  0.00  0.00    +0.002 C 
ATOM     14  C   UNL     1      -0.975   5.627  24.745  0.00  0.00    +0.004 C 
ENDBRANCH   7  11
BRANCH   6  12
ATOM     12  C   UNL     1      -3.166   1.730  25.457  0.00  0.00    +0.100 C 
BRANCH  12  15
ATOM      2  O   UNL     1      -4.796   0.106  24.785  0.00  0.00    -0.276 OA
ATOM      4  N   UNL     1      -2.931  -0.691  25.913  0.00  0.00    -0.304 N 
ATOM     15  C   UNL     1      -3.717   0.319  25.347  0.00  0.00    +0.216 C 
ATOM     20  C   UNL     1      -1.660  -0.415  26.571  0.00  0.00    +0.132 C 
BRANCH   4  19
ATOM     19  C   UNL     1      -3.325  -2.097  25.886  0.00  0.00    +0.122 C 
BRANCH  19  22
ATOM     22  C   UNL     1      -2.922  -2.790  24.589  0.00  0.00    +0.137 C 
BRANCH  22  24
ATOM      5  N   UNL     1      -4.918  -2.903  22.880  0.00  0.00    -0.197 NA
ATOM     24  C   UNL     1      -4.038  -2.854  23.633  0.00  0.00    +0.064 C 
ENDBRANCH  22  24
ENDBRANCH  19  22
ENDBRANCH   4  19
ENDBRANCH  12  15
ENDBRANCH   6  12
BRANCH  13  16
ATOM     16  C   UNL     1       1.767  -0.068  22.593  0.00  0.00    +0.096 C 
BRANCH  16  17
ATOM     17  C   UNL     1       3.263  -0.317  22.483  0.00  0.00    +0.009 C 
BRANCH  17  18
ATOM     18  C   UNL     1       3.784  -1.277  23.556  0.00  0.00    +0.000 C 
BRANCH  18  21
ATOM     21  C   UNL     1       5.176  -0.866  24.038  0.00  0.00    -0.003 C 
ATOM     23  C   UNL     1       5.476   0.586  23.701  0.00  0.00    +0.004 C 
ENDBRANCH  18  21
ENDBRANCH  17  18
ENDBRANCH  16  17
ENDBRANCH  13  16
TORSDOF 10
ENDMDL
MODEL 10
REMARK VINA RESULT:      -2.2      2.737      5.497
REMARK  Name = 7673425
REMARK  13 active torsions:
REMARK  status: ('A' for Active; 'I' for Inactive)
REMARK    1  A    between atoms: N_4  and  C_19
REMARK    2  A    between atoms: N_4  and  C_20
REMARK    3  A    between atoms: C_6  and  C_12
REMARK    4  A    between atoms: C_7  and  C_11
REMARK    5  A    between atoms: C_11  and  C_14
REMARK    6  A    between atoms: C_12  and  C_15
REMARK    7  A    between atoms: C_13  and  C_16
REMARK    8  A    between atoms: C_16  and  C_17
REMARK    9  A    between atoms: C_17  and  C_18
REMARK   10  A    between atoms: C_18  and  C_21
REMARK   11  A    between atoms: C_19  and  C_22
REMARK   12  A    between atoms: C_21  and  C_23
REMARK   13  A    between atoms: C_22  and  C_24
REMARK                            x       y       z     vdW  Elec       q    Type
REMARK                         _______ _______ _______ _____ _____    ______ ____
ROOT
ATOM      1  O   UNL     1      -1.769  -1.480  26.855  0.00  0.00    -0.276 OA
ATOM      3  N   UNL     1      -1.255   0.001  25.139  0.00  0.00    -0.301 N 
ATOM      6  C   UNL     1       0.497   2.212  24.356  0.00  0.00    +0.004 C 
ATOM      7  C   UNL     1       0.267   1.827  25.838  0.00  0.00    +0.010 C 
ATOM      8  C   UNL     1       0.275   0.976  23.466  0.00  0.00    +0.023 C 
ATOM      9  C   UNL     1      -1.093   1.141  26.044  0.00  0.00    +0.111 C 
ATOM     10  C   UNL     1      -1.076   0.307  23.715  0.00  0.00    +0.108 C 
ATOM     13  C   UNL     1      -1.623  -1.242  25.653  0.00  0.00    +0.216 C 
ENDROOT
BRANCH   7  11
ATOM     11  C   UNL     1       0.425   3.007  26.796  0.00  0.00    +0.002 C 
ATOM     14  C   UNL     1       1.018   2.563  28.117  0.00  0.00    +0.004 C 
ENDBRANCH   7  11
BRANCH   6  12
ATOM     12  C   UNL     1      -0.358   3.392  23.878  0.00  0.00    +0.100 C 
BRANCH  12  15
ATOM      2  O   UNL     1      -2.046   2.246  22.620  0.00  0.00    -0.276 OA
ATOM      4  N   UNL     1      -2.765   3.494  24.439  0.00  0.00    -0.304 N 
ATOM     15  C   UNL     1      -1.789   2.984  23.576  0.00  0.00    +0.216 C 
ATOM     20  C   UNL     1      -2.438   4.364  25.562  0.00  0.00    +0.132 C 
BRANCH   4  19
ATOM     19  C   UNL     1      -4.186   3.191  24.280  0.00  0.00    +0.122 C 
BRANCH  19  22
ATOM     22  C   UNL     1      -5.041   3.819  25.374  0.00  0.00    +0.137 C 
BRANCH  22  24
ATOM      5  N   UNL     1      -6.382   2.010  26.733  0.00  0.00    -0.197 NA
ATOM     24  C   UNL     1      -5.790   2.807  26.133  0.00  0.00    +0.064 C 
ENDBRANCH  22  24
ENDBRANCH  19  22
ENDBRANCH   4  19
ENDBRANCH  12  15
ENDBRANCH   6  12
BRANCH  13  16
ATOM     16  C   UNL     1      -1.848  -2.348  24.653  0.00  0.00    +0.096 C 
BRANCH  16  17
ATOM     17  C   UNL     1      -3.229  -2.958  24.835  0.00  0.00    +0.009 C 
BRANCH  17  18
ATOM     18  C   UNL     1      -4.211  -2.539  23.737  0.00  0.00    +0.000 C 
BRANCH  18  21
ATOM     21  C   UNL     1      -4.175  -1.028  23.510  0.00  0.00    -0.003 C 
ATOM     23  C   UNL     1      -4.714  -0.270  24.713  0.00  0.00    +0.004 C 
ENDBRANCH  18  21
ENDBRANCH  17  18
ENDBRANCH  16  17
ENDBRANCH  13  16
TORSDOF 10
ENDMDL
