MODEL 1
REMARK VINA RESULT:       6.0      0.000      0.000
REMARK  Name = 45361666
REMARK  8 active torsions:
REMARK  status: ('A' for Active; 'I' for Inactive)
REMARK    1  A    between atoms: O_2  and  C_11
REMARK    2  A    between atoms: N_5  and  C_15
REMARK    3  A    between atoms: N_7  and  C_28
REMARK    4  A    between atoms: C_8  and  C_18
REMARK    5  A    between atoms: C_10  and  C_20
REMARK    6  A    between atoms: C_13  and  C_19
REMARK    7  A    between atoms: C_19  and  C_21
REMARK    8  A    between atoms: C_19  and  C_22
REMARK                            x       y       z     vdW  Elec       q    Type
REMARK                         _______ _______ _______ _____ _____    ______ ____
ROOT
ATOM      8  C   UNL     1      -3.368  -0.569  25.226  0.00  0.00    -0.027 C 
ATOM      9  C   UNL     1      -3.088   0.506  24.123  0.00  0.00    +0.028 C 
ATOM     10  C   UNL     1      -1.612   0.398  23.599  0.00  0.00    +0.012 C 
ATOM     11  C   UNL     1      -3.531   1.923  24.591  0.00  0.00    +0.122 C 
ATOM     12  C   UNL     1      -4.859  -0.510  25.637  0.00  0.00    +0.007 C 
ATOM     13  C   UNL     1      -4.991   1.953  25.099  0.00  0.00    +0.029 C 
ATOM     14  C   UNL     1      -3.096  -1.974  24.642  0.00  0.00    +0.009 C 
ATOM     15  C   UNL     1      -1.327  -1.040  23.084  0.00  0.00    +0.078 C 
ATOM     16  C   UNL     1      -5.285   0.865  26.133  0.00  0.00    +0.007 C 
ATOM     17  C   UNL     1      -1.685  -2.130  24.094  0.00  0.00    +0.023 C 
ATOM     18  C   UNL     1      -2.496  -0.364  26.490  0.00  0.00    +0.011 C 
ATOM     20  C   UNL     1      -1.276   1.409  22.491  0.00  0.00    +0.010 C 
ENDROOT
BRANCH  15   5
ATOM      4  O   UNL     1       0.942   0.247  24.268  0.00  0.00    -0.253 OA
ATOM      5  N   UNL     1       0.060  -1.208  22.701  0.00  0.00    -0.296 N 
ATOM      7  N   UNL     1       2.330  -0.894  22.756  0.00  0.00    -0.269 N 
ATOM     23  C   UNL     1       1.110  -0.537  23.335  0.00  0.00    +0.304 C 
ATOM     34  H   UNL     1       0.270  -1.774  21.886  0.00  0.00    +0.151 HD
ATOM     36  H   UNL     1       2.293  -1.561  21.989  0.00  0.00    +0.156 HD
BRANCH   7  28
ATOM      1  F   UNL     1       6.541  -1.580  24.956  0.00  0.00    -0.205 F 
ATOM     28  C   UNL     1       3.623  -0.441  23.106  0.00  0.00    +0.037 A 
ATOM     29  C   UNL     1       4.461  -1.250  23.873  0.00  0.00    +0.061 A 
ATOM     30  C   UNL     1       4.060   0.815  22.684  0.00  0.00    +0.023 A 
ATOM     31  C   UNL     1       5.736  -0.804  24.219  0.00  0.00    +0.125 A 
ATOM     32  C   UNL     1       5.336   1.261  23.030  0.00  0.00    +0.005 A 
ATOM     33  C   UNL     1       6.174   0.452  23.797  0.00  0.00    +0.038 A 
ENDBRANCH   7  28
ENDBRANCH  15   5
BRANCH  11   2
ATOM      2  O   UNL     1      -3.463   2.831  23.491  0.00  0.00    -0.391 OA
ATOM     35  H   UNL     1      -2.795   3.506  23.697  0.00  0.00    +0.210 HD
ENDBRANCH  11   2
BRANCH  13  19
ATOM     19  C   UNL     1      -5.365   3.324  25.676  0.00  0.00    +0.078 C 
ATOM     21  C   UNL     1      -6.852   3.590  25.531  0.00  0.00    +0.017 C 
BRANCH  19  22
ATOM      3  O   UNL     1      -5.136   5.156  24.173  0.00  0.00    -0.275 OA
ATOM      6  N   UNL     1      -3.219   4.405  25.221  0.00  0.00    -0.301 N 
ATOM     22  C   UNL     1      -4.575   4.383  24.951  0.00  0.00    +0.219 C 
ATOM     24  C   UNL     1      -2.496   3.524  26.132  0.00  0.00    +0.108 C 
ATOM     25  C   UNL     1      -2.317   5.364  24.597  0.00  0.00    +0.108 C 
ATOM     26  C   UNL     1      -1.028   3.796  25.838  0.00  0.00    +0.020 C 
ATOM     27  C   UNL     1      -1.032   5.255  25.401  0.00  0.00    +0.020 C 
ENDBRANCH  19  22
ENDBRANCH  13  19
TORSDOF 5
ENDMDL
MODEL 2
REMARK VINA RESULT:       7.5      1.427      1.619
REMARK  Name = 45361666
REMARK  8 active torsions:
REMARK  status: ('A' for Active; 'I' for Inactive)
REMARK    1  A    between atoms: O_2  and  C_11
REMARK    2  A    between atoms: N_5  and  C_15
REMARK    3  A    between atoms: N_7  and  C_28
REMARK    4  A    between atoms: C_8  and  C_18
REMARK    5  A    between atoms: C_10  and  C_20
REMARK    6  A    between atoms: C_13  and  C_19
REMARK    7  A    between atoms: C_19  and  C_21
REMARK    8  A    between atoms: C_19  and  C_22
REMARK                            x       y       z     vdW  Elec       q    Type
REMARK                         _______ _______ _______ _____ _____    ______ ____
ROOT
ATOM      8  C   UNL     1      -2.727  -1.431  24.924  0.00  0.00    -0.027 C 
ATOM      9  C   UNL     1      -2.003  -0.226  24.234  0.00  0.00    +0.028 C 
ATOM     10  C   UNL     1      -0.453  -0.291  24.478  0.00  0.00    +0.012 C 
ATOM     11  C   UNL     1      -2.682   1.125  24.601  0.00  0.00    +0.122 C 
ATOM     12  C   UNL     1      -4.233  -1.399  24.569  0.00  0.00    +0.007 C 
ATOM     13  C   UNL     1      -4.207   1.115  24.342  0.00  0.00    +0.029 C 
ATOM     14  C   UNL     1      -2.142  -2.752  24.374  0.00  0.00    +0.009 C 
ATOM     15  C   UNL     1       0.112  -1.655  23.990  0.00  0.00    +0.078 C 
ATOM     16  C   UNL     1      -4.909  -0.093  24.964  0.00  0.00    +0.007 C 
ATOM     17  C   UNL     1      -0.635  -2.860  24.559  0.00  0.00    +0.023 C 
ATOM     18  C   UNL     1      -2.578  -1.409  26.465  0.00  0.00    +0.011 C 
ATOM     20  C   UNL     1       0.325   0.850  23.802  0.00  0.00    +0.010 C 
ENDROOT
BRANCH  15   5
ATOM      4  O   UNL     1       2.284  -0.210  22.808  0.00  0.00    -0.253 OA
ATOM      5  N   UNL     1       1.519  -1.795  24.306  0.00  0.00    -0.296 N 
ATOM      7  N   UNL     1       3.772  -1.396  24.183  0.00  0.00    -0.269 N 
ATOM     23  C   UNL     1       2.517  -1.047  23.677  0.00  0.00    +0.304 C 
ATOM     34  H   UNL     1       1.796  -2.525  24.954  0.00  0.00    +0.151 HD
ATOM     36  H   UNL     1       3.790  -2.112  24.906  0.00  0.00    +0.156 HD
BRANCH   7  28
ATOM      1  F   UNL     1       7.999  -1.870  21.958  0.00  0.00    -0.205 F 
ATOM     28  C   UNL     1       5.033  -0.873  23.814  0.00  0.00    +0.037 A 
ATOM     29  C   UNL     1       5.911  -1.644  23.052  0.00  0.00    +0.061 A 
ATOM     30  C   UNL     1       5.399   0.412  24.213  0.00  0.00    +0.023 A 
ATOM     31  C   UNL     1       7.155  -1.130  22.689  0.00  0.00    +0.125 A 
ATOM     32  C   UNL     1       6.645   0.926  23.849  0.00  0.00    +0.005 A 
ATOM     33  C   UNL     1       7.522   0.156  23.088  0.00  0.00    +0.038 A 
ENDBRANCH   7  28
ENDBRANCH  15   5
BRANCH  11   2
ATOM      2  O   UNL     1      -2.138   2.168  23.791  0.00  0.00    -0.391 OA
ATOM     35  H   UNL     1      -2.850   2.517  23.228  0.00  0.00    +0.210 HD
ENDBRANCH  11   2
BRANCH  13  19
ATOM     19  C   UNL     1      -4.876   2.405  24.832  0.00  0.00    +0.078 C 
ATOM     21  C   UNL     1      -6.381   2.344  24.647  0.00  0.00    +0.017 C 
BRANCH  19  22
ATOM      3  O   UNL     1      -4.787   3.891  22.973  0.00  0.00    -0.275 OA
ATOM      6  N   UNL     1      -3.232   4.206  24.651  0.00  0.00    -0.301 N 
ATOM     22  C   UNL     1      -4.305   3.567  24.059  0.00  0.00    +0.219 C 
ATOM     24  C   UNL     1      -2.618   3.877  25.934  0.00  0.00    +0.108 C 
ATOM     25  C   UNL     1      -2.564   5.342  24.030  0.00  0.00    +0.108 C 
ATOM     26  C   UNL     1      -1.335   4.695  25.962  0.00  0.00    +0.020 C 
ATOM     27  C   UNL     1      -1.694   5.922  25.134  0.00  0.00    +0.020 C 
ENDBRANCH  19  22
ENDBRANCH  13  19
TORSDOF 5
ENDMDL
MODEL 3
REMARK VINA RESULT:       7.8      1.519      1.782
REMARK  Name = 45361666
REMARK  8 active torsions:
REMARK  status: ('A' for Active; 'I' for Inactive)
REMARK    1  A    between atoms: O_2  and  C_11
REMARK    2  A    between atoms: N_5  and  C_15
REMARK    3  A    between atoms: N_7  and  C_28
REMARK    4  A    between atoms: C_8  and  C_18
REMARK    5  A    between atoms: C_10  and  C_20
REMARK    6  A    between atoms: C_13  and  C_19
REMARK    7  A    between atoms: C_19  and  C_21
REMARK    8  A    between atoms: C_19  and  C_22
REMARK                            x       y       z     vdW  Elec       q    Type
REMARK                         _______ _______ _______ _____ _____    ______ ____
ROOT
ATOM      8  C   UNL     1      -3.039  -1.186  24.675  0.00  0.00    -0.027 C 
ATOM      9  C   UNL     1      -2.279  -0.068  23.885  0.00  0.00    +0.028 C 
ATOM     10  C   UNL     1      -0.743  -0.099  24.210  0.00  0.00    +0.012 C 
ATOM     11  C   UNL     1      -2.972   1.315  24.059  0.00  0.00    +0.122 C 
ATOM     12  C   UNL     1      -4.525  -1.201  24.246  0.00  0.00    +0.007 C 
ATOM     13  C   UNL     1      -4.482   1.270  23.730  0.00  0.00    +0.029 C 
ATOM     14  C   UNL     1      -2.431  -2.560  24.312  0.00  0.00    +0.009 C 
ATOM     15  C   UNL     1      -0.158  -1.508  23.912  0.00  0.00    +0.078 C 
ATOM     16  C   UNL     1      -5.217   0.140  24.453  0.00  0.00    +0.007 C 
ATOM     17  C   UNL     1      -0.935  -2.642  24.581  0.00  0.00    +0.023 C 
ATOM     18  C   UNL     1      -2.965  -0.984  26.209  0.00  0.00    +0.011 C 
ATOM     20  C   UNL     1       0.070   0.958  23.445  0.00  0.00    +0.010 C 
ENDROOT
BRANCH  15   5
ATOM      4  O   UNL     1       2.084  -0.281  22.619  0.00  0.00    -0.253 OA
ATOM      5  N   UNL     1       1.231  -1.607  24.310  0.00  0.00    -0.296 N 
ATOM      7  N   UNL     1       3.493  -1.247  24.230  0.00  0.00    -0.269 N 
ATOM     23  C   UNL     1       2.267  -0.973  23.619  0.00  0.00    +0.304 C 
ATOM     34  H   UNL     1       1.469  -2.228  25.077  0.00  0.00    +0.151 HD
ATOM     36  H   UNL     1       3.469  -1.840  25.056  0.00  0.00    +0.156 HD
BRANCH   7  28
ATOM      1  F   UNL     1       7.681  -1.989  22.005  0.00  0.00    -0.205 F 
ATOM     28  C   UNL     1       4.776  -0.797  23.842  0.00  0.00    +0.037 A 
ATOM     29  C   UNL     1       5.612  -1.631  23.099  0.00  0.00    +0.061 A 
ATOM     30  C   UNL     1       5.206   0.480  24.202  0.00  0.00    +0.023 A 
ATOM     31  C   UNL     1       6.878  -1.188  22.717  0.00  0.00    +0.125 A 
ATOM     32  C   UNL     1       6.473   0.923  23.820  0.00  0.00    +0.005 A 
ATOM     33  C   UNL     1       7.309   0.090  23.078  0.00  0.00    +0.038 A 
ENDBRANCH   7  28
ENDBRANCH  15   5
BRANCH  11   2
ATOM      2  O   UNL     1      -2.386   2.258  23.161  0.00  0.00    -0.391 OA
ATOM     35  H   UNL     1      -3.022   2.981  23.025  0.00  0.00    +0.210 HD
ENDBRANCH  11   2
BRANCH  13  19
ATOM     19  C   UNL     1      -5.171   2.606  24.033  0.00  0.00    +0.078 C 
ATOM     21  C   UNL     1      -4.714   3.687  23.071  0.00  0.00    +0.017 C 
BRANCH  19  22
ATOM      3  O   UNL     1      -5.625   2.730  26.367  0.00  0.00    -0.275 OA
ATOM      6  N   UNL     1      -3.655   3.679  25.624  0.00  0.00    -0.301 N 
ATOM     22  C   UNL     1      -4.849   3.003  25.451  0.00  0.00    +0.219 C 
ATOM     24  C   UNL     1      -2.691   4.027  24.585  0.00  0.00    +0.108 C 
ATOM     25  C   UNL     1      -3.202   4.135  26.931  0.00  0.00    +0.108 C 
ATOM     26  C   UNL     1      -1.726   4.986  25.269  0.00  0.00    +0.020 C 
ATOM     27  C   UNL     1      -1.745   4.514  26.717  0.00  0.00    +0.020 C 
ENDBRANCH  19  22
ENDBRANCH  13  19
TORSDOF 5
ENDMDL
MODEL 4
REMARK VINA RESULT:       8.3      1.153      1.560
REMARK  Name = 45361666
REMARK  8 active torsions:
REMARK  status: ('A' for Active; 'I' for Inactive)
REMARK    1  A    between atoms: O_2  and  C_11
REMARK    2  A    between atoms: N_5  and  C_15
REMARK    3  A    between atoms: N_7  and  C_28
REMARK    4  A    between atoms: C_8  and  C_18
REMARK    5  A    between atoms: C_10  and  C_20
REMARK    6  A    between atoms: C_13  and  C_19
REMARK    7  A    between atoms: C_19  and  C_21
REMARK    8  A    between atoms: C_19  and  C_22
REMARK                            x       y       z     vdW  Elec       q    Type
REMARK                         _______ _______ _______ _____ _____    ______ ____
ROOT
ATOM      8  C   UNL     1      -3.506  -0.548  25.002  0.00  0.00    -0.027 C 
ATOM      9  C   UNL     1      -3.227   0.617  23.993  0.00  0.00    +0.028 C 
ATOM     10  C   UNL     1      -1.745   0.563  23.474  0.00  0.00    +0.012 C 
ATOM     11  C   UNL     1      -3.684   1.987  24.573  0.00  0.00    +0.122 C 
ATOM     12  C   UNL     1      -5.000  -0.533  25.405  0.00  0.00    +0.007 C 
ATOM     13  C   UNL     1      -5.147   1.964  25.070  0.00  0.00    +0.029 C 
ATOM     14  C   UNL     1      -3.219  -1.897  24.306  0.00  0.00    +0.009 C 
ATOM     15  C   UNL     1      -1.446  -0.826  22.844  0.00  0.00    +0.078 C 
ATOM     16  C   UNL     1      -5.441   0.793  26.009  0.00  0.00    +0.007 C 
ATOM     17  C   UNL     1      -1.802  -1.998  23.758  0.00  0.00    +0.023 C 
ATOM     18  C   UNL     1      -2.644  -0.441  26.285  0.00  0.00    +0.011 C 
ATOM     20  C   UNL     1      -1.409   1.664  22.455  0.00  0.00    +0.010 C 
ENDROOT
BRANCH  15   5
ATOM      4  O   UNL     1       0.837  -0.155  24.439  0.00  0.00    -0.253 OA
ATOM      5  N   UNL     1      -0.054  -0.951  22.460  0.00  0.00    -0.296 N 
ATOM      7  N   UNL     1       2.224  -0.826  22.668  0.00  0.00    -0.269 N 
ATOM     23  C   UNL     1       1.002  -0.599  23.304  0.00  0.00    +0.304 C 
ATOM     34  H   UNL     1       0.159  -1.231  21.509  0.00  0.00    +0.151 HD
ATOM     36  H   UNL     1       2.185  -1.200  21.723  0.00  0.00    +0.156 HD
BRANCH   7  28
ATOM      1  F   UNL     1       5.898   2.126  23.581  0.00  0.00    -0.205 F 
ATOM     28  C   UNL     1       3.524  -0.601  23.178  0.00  0.00    +0.037 A 
ATOM     29  C   UNL     1       4.081   0.677  23.128  0.00  0.00    +0.061 A 
ATOM     30  C   UNL     1       4.249  -1.656  23.730  0.00  0.00    +0.023 A 
ATOM     31  C   UNL     1       5.363   0.900  23.630  0.00  0.00    +0.125 A 
ATOM     32  C   UNL     1       5.532  -1.433  24.232  0.00  0.00    +0.005 A 
ATOM     33  C   UNL     1       6.089  -0.156  24.182  0.00  0.00    +0.038 A 
ENDBRANCH   7  28
ENDBRANCH  15   5
BRANCH  11   2
ATOM      2  O   UNL     1      -3.615   2.983  23.551  0.00  0.00    -0.391 OA
ATOM     35  H   UNL     1      -3.565   3.854  23.981  0.00  0.00    +0.210 HD
ENDBRANCH  11   2
BRANCH  13  19
ATOM     19  C   UNL     1      -5.537   3.280  25.755  0.00  0.00    +0.078 C 
ATOM     21  C   UNL     1      -6.011   4.305  24.741  0.00  0.00    +0.017 C 
BRANCH  19  22
ATOM      3  O   UNL     1      -4.231   3.625  27.716  0.00  0.00    -0.275 OA
ATOM      6  N   UNL     1      -3.409   4.487  25.737  0.00  0.00    -0.301 N 
ATOM     22  C   UNL     1      -4.338   3.806  26.503  0.00  0.00    +0.219 C 
ATOM     24  C   UNL     1      -3.473   4.731  24.300  0.00  0.00    +0.108 C 
ATOM     25  C   UNL     1      -2.200   5.061  26.310  0.00  0.00    +0.108 C 
ATOM     26  C   UNL     1      -2.367   5.743  24.037  0.00  0.00    +0.020 C 
ATOM     27  C   UNL     1      -1.337   5.408  25.107  0.00  0.00    +0.020 C 
ENDBRANCH  19  22
ENDBRANCH  13  19
TORSDOF 5
ENDMDL
