MODEL 1
REMARK VINA RESULT:      -4.3      0.000      0.000
REMARK  Name = 11886184
REMARK  5 active torsions:
REMARK  status: ('A' for Active; 'I' for Inactive)
REMARK    1  A    between atoms: O_3  and  C_24
REMARK    2  A    between atoms: O_3  and  C_25
REMARK    3  A    between atoms: N_5  and  C_13
REMARK    4  A    between atoms: N_6  and  C_14
REMARK    5  A    between atoms: N_7  and  C_17
REMARK                            x       y       z     vdW  Elec       q    Type
REMARK                         _______ _______ _______ _____ _____    ______ ____
ROOT
ATOM      1  O   UNL     1      -1.484   3.514  23.713  0.00  0.00    -0.370 OA
ATOM      2  O   UNL     1      -1.918   3.620  26.826  0.00  0.00    -0.370 OA
ATOM     11  C   UNL     1      -1.465   2.608  25.913  0.00  0.00    +0.171 C 
ATOM     12  C   UNL     1      -2.274   2.744  24.637  0.00  0.00    +0.176 C 
ATOM     13  C   UNL     1      -0.042   2.886  25.484  0.00  0.00    +0.131 C 
ATOM     14  C   UNL     1      -3.504   3.532  25.044  0.00  0.00    +0.171 C 
ATOM     15  C   UNL     1      -0.235   3.853  24.332  0.00  0.00    +0.185 C 
ATOM     16  C   UNL     1      -3.016   4.335  26.244  0.00  0.00    +0.190 C 
ENDROOT
BRANCH  13   5
ATOM      4  O   UNL     1       1.698   2.600  23.214  0.00  0.00    -0.253 OA
ATOM      5  N   UNL     1       0.618   1.679  25.050  0.00  0.00    -0.292 N 
ATOM      7  N   UNL     1       1.958   0.352  23.732  0.00  0.00    -0.297 N 
ATOM     20  C   UNL     1       1.449   1.633  23.932  0.00  0.00    +0.300 C 
ATOM     31  H   UNL     1       0.421   0.812  25.539  0.00  0.00    +0.151 HD
ATOM     32  H   UNL     1       1.630  -0.390  24.342  0.00  0.00    +0.151 HD
BRANCH   7  17
ATOM     17  C   UNL     1       2.849   0.015  22.644  0.00  0.00    +0.074 C 
ATOM     18  C   UNL     1       3.997   1.026  22.538  0.00  0.00    +0.022 C 
ATOM     19  C   UNL     1       3.381  -1.415  22.790  0.00  0.00    +0.022 C 
ATOM     21  C   UNL     1       5.006   0.887  23.678  0.00  0.00    +0.002 C 
ATOM     22  C   UNL     1       4.391  -1.550  23.929  0.00  0.00    +0.002 C 
ATOM     23  C   UNL     1       5.529  -0.542  23.795  0.00  0.00    +0.000 C 
ENDBRANCH   7  17
ENDBRANCH  13   5
BRANCH  14   6
ATOM      6  N   UNL     1      -4.663   2.672  25.302  0.00  0.00    -0.187 N 
ATOM      8  N   UNL     1      -5.614   3.045  26.163  0.00  0.00    -0.041 NA
ATOM      9  N   UNL     1      -6.093   1.053  25.284  0.00  0.00    -0.071 NA
ATOM     10  N   UNL     1      -6.489   2.047  26.149  0.00  0.00    -0.020 NA
ATOM     24  C   UNL     1      -4.957   1.463  24.769  0.00  0.00    +0.342 A 
BRANCH  24   3
ATOM      3  O   UNL     1      -4.213   0.823  23.886  0.00  0.00    -0.423 OA
BRANCH   3  25
ATOM     25  C   UNL     1      -3.634  -0.411  24.151  0.00  0.00    +0.132 A 
ATOM     26  C   UNL     1      -2.334  -0.455  24.617  0.00  0.00    +0.046 A 
ATOM     27  C   UNL     1      -4.374  -1.557  23.939  0.00  0.00    +0.046 A 
ATOM     28  C   UNL     1      -1.752  -1.695  24.882  0.00  0.00    +0.004 A 
ATOM     29  C   UNL     1      -3.793  -2.798  24.204  0.00  0.00    +0.004 A 
ATOM     30  C   UNL     1      -2.481  -2.866  24.676  0.00  0.00    +0.000 A 
ENDBRANCH   3  25
ENDBRANCH  24   3
ENDBRANCH  14   6
TORSDOF 5
ENDMDL
MODEL 2
REMARK VINA RESULT:      -2.8      1.549      3.948
REMARK  Name = 11886184
REMARK  5 active torsions:
REMARK  status: ('A' for Active; 'I' for Inactive)
REMARK    1  A    between atoms: O_3  and  C_24
REMARK    2  A    between atoms: O_3  and  C_25
REMARK    3  A    between atoms: N_5  and  C_13
REMARK    4  A    between atoms: N_6  and  C_14
REMARK    5  A    between atoms: N_7  and  C_17
REMARK                            x       y       z     vdW  Elec       q    Type
REMARK                         _______ _______ _______ _____ _____    ______ ____
ROOT
ATOM      1  O   UNL     1      -2.086  -1.094  26.143  0.00  0.00    -0.370 OA
ATOM      2  O   UNL     1      -3.498  -0.819  23.346  0.00  0.00    -0.370 OA
ATOM     11  C   UNL     1      -2.380  -0.168  23.971  0.00  0.00    +0.171 C 
ATOM     12  C   UNL     1      -2.708  -0.002  25.442  0.00  0.00    +0.176 C 
ATOM     13  C   UNL     1      -1.171  -1.076  23.958  0.00  0.00    +0.131 C 
ATOM     14  C   UNL     1      -4.217  -0.134  25.517  0.00  0.00    +0.171 C 
ATOM     15  C   UNL     1      -1.386  -1.919  25.201  0.00  0.00    +0.185 C 
ATOM     16  C   UNL     1      -4.546  -1.001  24.307  0.00  0.00    +0.190 C 
ENDROOT
BRANCH  13   5
ATOM      4  O   UNL     1       0.929  -0.960  21.998  0.00  0.00    -0.253 OA
ATOM      5  N   UNL     1       0.053  -0.317  24.048  0.00  0.00    -0.292 N 
ATOM      7  N   UNL     1       2.099   0.494  23.379  0.00  0.00    -0.297 N 
ATOM     20  C   UNL     1       1.019  -0.319  23.044  0.00  0.00    +0.300 C 
ATOM     31  H   UNL     1       0.250   0.191  24.904  0.00  0.00    +0.151 HD
ATOM     32  H   UNL     1       2.105   0.921  24.300  0.00  0.00    +0.151 HD
BRANCH   7  17
ATOM     17  C   UNL     1       3.248   0.678  22.520  0.00  0.00    +0.074 C 
ATOM     18  C   UNL     1       4.277   1.611  23.168  0.00  0.00    +0.022 C 
ATOM     19  C   UNL     1       3.877  -0.669  22.146  0.00  0.00    +0.022 C 
ATOM     21  C   UNL     1       5.003   0.955  24.343  0.00  0.00    +0.002 C 
ATOM     22  C   UNL     1       4.604  -1.321  23.322  0.00  0.00    +0.002 C 
ATOM     23  C   UNL     1       5.631  -0.378  23.943  0.00  0.00    +0.000 C 
ENDBRANCH   7  17
ENDBRANCH  13   5
BRANCH  14   6
ATOM      6  N   UNL     1      -4.895   1.165  25.553  0.00  0.00    -0.187 N 
ATOM      8  N   UNL     1      -5.973   1.354  26.320  0.00  0.00    -0.041 NA
ATOM      9  N   UNL     1      -5.462   3.221  25.213  0.00  0.00    -0.071 NA
ATOM     10  N   UNL     1      -6.317   2.618  26.108  0.00  0.00    -0.020 NA
ATOM     24  C   UNL     1      -4.587   2.300  24.883  0.00  0.00    +0.342 A 
BRANCH  24   3
ATOM      3  O   UNL     1      -3.577   2.435  24.045  0.00  0.00    -0.423 OA
BRANCH   3  25
ATOM     25  C   UNL     1      -2.494   3.264  24.306  0.00  0.00    +0.132 A 
ATOM     26  C   UNL     1      -2.705   4.448  24.987  0.00  0.00    +0.046 A 
ATOM     27  C   UNL     1      -1.239   2.883  23.875  0.00  0.00    +0.046 A 
ATOM     28  C   UNL     1      -1.618   5.281  25.248  0.00  0.00    +0.004 A 
ATOM     29  C   UNL     1      -0.151   3.716  24.137  0.00  0.00    +0.004 A 
ATOM     30  C   UNL     1      -0.341   4.916  24.824  0.00  0.00    +0.000 A 
ENDBRANCH   3  25
ENDBRANCH  24   3
ENDBRANCH  14   6
TORSDOF 5
ENDMDL
MODEL 3
REMARK VINA RESULT:      -0.5     18.431     20.358
REMARK  Name = 11886184
REMARK  5 active torsions:
REMARK  status: ('A' for Active; 'I' for Inactive)
REMARK    1  A    between atoms: O_3  and  C_24
REMARK    2  A    between atoms: O_3  and  C_25
REMARK    3  A    between atoms: N_5  and  C_13
REMARK    4  A    between atoms: N_6  and  C_14
REMARK    5  A    between atoms: N_7  and  C_17
REMARK                            x       y       z     vdW  Elec       q    Type
REMARK                         _______ _______ _______ _____ _____    ______ ____
ROOT
ATOM      1  O   UNL     1      14.821  -6.820  26.353  0.00  0.00    -0.370 OA
ATOM      2  O   UNL     1      17.405  -6.674  24.567  0.00  0.00    -0.370 OA
ATOM     11  C   UNL     1      17.170  -6.771  25.981  0.00  0.00    +0.171 C 
ATOM     12  C   UNL     1      15.950  -5.929  26.303  0.00  0.00    +0.176 C 
ATOM     13  C   UNL     1      16.761  -8.179  26.349  0.00  0.00    +0.131 C 
ATOM     14  C   UNL     1      15.810  -4.986  25.124  0.00  0.00    +0.171 C 
ATOM     15  C   UNL     1      15.266  -8.159  26.093  0.00  0.00    +0.185 C 
ATOM     16  C   UNL     1      16.464  -5.761  23.985  0.00  0.00    +0.190 C 
ENDROOT
BRANCH  13   5
ATOM      4  O   UNL     1      15.571 -10.235  27.969  0.00  0.00    -0.253 OA
ATOM      5  N   UNL     1      17.049  -8.461  27.734  0.00  0.00    -0.292 N 
ATOM      7  N   UNL     1      16.881  -9.543  29.757  0.00  0.00    -0.297 N 
ATOM     20  C   UNL     1      16.422  -9.484  28.444  0.00  0.00    +0.300 C 
ATOM     31  H   UNL     1      17.689  -7.852  28.233  0.00  0.00    +0.151 HD
ATOM     32  H   UNL     1      17.532  -8.828  30.066  0.00  0.00    +0.151 HD
BRANCH   7  17
ATOM     17  C   UNL     1      16.401 -10.509  30.720  0.00  0.00    +0.074 C 
ATOM     18  C   UNL     1      17.041 -10.281  32.095  0.00  0.00    +0.022 C 
ATOM     19  C   UNL     1      14.870 -10.484  30.809  0.00  0.00    +0.022 C 
ATOM     21  C   UNL     1      16.511  -9.024  32.785  0.00  0.00    +0.002 C 
ATOM     22  C   UNL     1      14.345  -9.228  31.503  0.00  0.00    +0.002 C 
ATOM     23  C   UNL     1      14.988  -9.029  32.872  0.00  0.00    +0.000 C 
ENDBRANCH   7  17
ENDBRANCH  13   5
BRANCH  14   6
ATOM      6  N   UNL     1      16.388  -3.666  25.388  0.00  0.00    -0.187 N 
ATOM      8  N   UNL     1      16.283  -2.680  24.492  0.00  0.00    -0.041 NA
ATOM      9  N   UNL     1      17.404  -1.985  26.290  0.00  0.00    -0.071 NA
ATOM     10  N   UNL     1      16.907  -1.650  25.050  0.00  0.00    -0.020 NA
ATOM     24  C   UNL     1      17.069  -3.241  26.478  0.00  0.00    +0.342 A 
BRANCH  24   3
ATOM      3  O   UNL     1      17.340  -3.980  27.538  0.00  0.00    -0.423 OA
BRANCH   3  25
ATOM     25  C   UNL     1      17.037  -3.574  28.830  0.00  0.00    +0.132 A 
ATOM     26  C   UNL     1      17.191  -2.242  29.167  0.00  0.00    +0.046 A 
ATOM     27  C   UNL     1      16.594  -4.512  29.741  0.00  0.00    +0.046 A 
ATOM     28  C   UNL     1      16.888  -1.834  30.466  0.00  0.00    +0.004 A 
ATOM     29  C   UNL     1      16.290  -4.104  31.040  0.00  0.00    +0.004 A 
ATOM     30  C   UNL     1      16.437  -2.764  31.402  0.00  0.00    +0.000 A 
ENDBRANCH   3  25
ENDBRANCH  24   3
ENDBRANCH  14   6
TORSDOF 5
ENDMDL
