MODEL 1
REMARK VINA RESULT:      -5.2      0.000      0.000
REMARK  Name = 25314446
REMARK  6 active torsions:
REMARK  status: ('A' for Active; 'I' for Inactive)
REMARK    1  A    between atoms: S_1  and  C_11
REMARK    2  A    between atoms: S_1  and  C_15
REMARK    3  A    between atoms: O_4  and  C_10
REMARK    4  A    between atoms: N_6  and  C_8
REMARK    5  A    between atoms: N_7  and  C_18
REMARK    6  A    between atoms: C_18  and  C_22
REMARK                            x       y       z     vdW  Elec       q    Type
REMARK                         _______ _______ _______ _____ _____    ______ ____
ROOT
ATOM      2  O   UNL     1      -0.984   3.427  26.273  0.00  0.00    -0.343 OA
ATOM      3  O   UNL     1      -3.113   4.054  25.589  0.00  0.00    -0.347 OA
ATOM      8  C   UNL     1      -0.650   3.396  23.884  0.00  0.00    +0.135 C 
ATOM      9  C   UNL     1      -0.834   4.281  25.135  0.00  0.00    +0.170 C 
ATOM     10  C   UNL     1      -1.726   2.293  23.740  0.00  0.00    +0.155 C 
ATOM     11  C   UNL     1      -2.345   1.830  25.077  0.00  0.00    +0.138 C 
ATOM     12  C   UNL     1      -2.332   2.964  26.113  0.00  0.00    +0.266 C 
ATOM     13  C   UNL     1      -2.148   5.034  25.180  0.00  0.00    +0.196 C 
ENDROOT
BRANCH   8   6
ATOM      5  O   UNL     1       0.124   0.846  22.780  0.00  0.00    -0.253 OA
ATOM      6  N   UNL     1       0.672   2.802  23.903  0.00  0.00    -0.291 N 
ATOM      7  N   UNL     1       2.295   1.235  23.500  0.00  0.00    -0.296 N 
ATOM     14  C   UNL     1       0.951   1.563  23.342  0.00  0.00    +0.300 C 
ATOM     24  H   UNL     1       1.407   3.279  24.416  0.00  0.00    +0.151 HD
ATOM     26  H   UNL     1       2.900   1.881  23.998  0.00  0.00    +0.151 HD
BRANCH   7  18
ATOM     18  C   UNL     1       2.861  -0.000  23.012  0.00  0.00    +0.132 C 
BRANCH  18  22
ATOM     22  C   UNL     1       4.313   0.206  22.732  0.00  0.00    -0.016 C 
ATOM     23  C   UNL     1       5.270   0.131  23.664  0.00  0.00    +0.005 C 
ENDBRANCH  18  22
ENDBRANCH   7  18
ENDBRANCH   8   6
BRANCH  10   4
ATOM      4  O   UNL     1      -2.777   2.796  22.900  0.00  0.00    -0.389 OA
ATOM     25  H   UNL     1      -2.674   2.389  22.023  0.00  0.00    +0.210 HD
ENDBRANCH  10   4
BRANCH  11   1
ATOM      1  S   UNL     1      -1.442   0.380  25.732  0.00  0.00    -0.114 S 
BRANCH   1  15
ATOM     15  C   UNL     1      -2.393  -0.957  25.027  0.00  0.00    +0.008 A 
ATOM     16  C   UNL     1      -1.854  -2.241  24.967  0.00  0.00    +0.015 A 
ATOM     17  C   UNL     1      -3.677  -0.716  24.537  0.00  0.00    +0.015 A 
ATOM     19  C   UNL     1      -2.598  -3.286  24.418  0.00  0.00    +0.001 A 
ATOM     20  C   UNL     1      -4.422  -1.760  23.987  0.00  0.00    +0.001 A 
ATOM     21  C   UNL     1      -3.881  -3.045  23.927  0.00  0.00    +0.000 A 
ENDBRANCH   1  15
ENDBRANCH  11   1
TORSDOF 6
ENDMDL
MODEL 2
REMARK VINA RESULT:      -4.4      2.727      5.385
REMARK  Name = 25314446
REMARK  6 active torsions:
REMARK  status: ('A' for Active; 'I' for Inactive)
REMARK    1  A    between atoms: S_1  and  C_11
REMARK    2  A    between atoms: S_1  and  C_15
REMARK    3  A    between atoms: O_4  and  C_10
REMARK    4  A    between atoms: N_6  and  C_8
REMARK    5  A    between atoms: N_7  and  C_18
REMARK    6  A    between atoms: C_18  and  C_22
REMARK                            x       y       z     vdW  Elec       q    Type
REMARK                         _______ _______ _______ _____ _____    ______ ____
ROOT
ATOM      2  O   UNL     1      -0.938  -1.566  23.570  0.00  0.00    -0.343 OA
ATOM      3  O   UNL     1      -1.282  -3.106  25.274  0.00  0.00    -0.347 OA
ATOM      8  C   UNL     1      -0.967  -0.061  25.455  0.00  0.00    +0.135 C 
ATOM      9  C   UNL     1      -0.166  -1.139  24.696  0.00  0.00    +0.170 C 
ATOM     10  C   UNL     1      -2.421  -0.480  25.778  0.00  0.00    +0.155 C 
ATOM     11  C   UNL     1      -3.019  -1.509  24.793  0.00  0.00    +0.138 C 
ATOM     12  C   UNL     1      -1.922  -2.402  24.194  0.00  0.00    +0.266 C 
ATOM     13  C   UNL     1      -0.018  -2.449  25.442  0.00  0.00    +0.196 C 
ENDROOT
BRANCH   8   6
ATOM      5  O   UNL     1      -0.041   2.525  26.336  0.00  0.00    -0.253 OA
ATOM      6  N   UNL     1      -0.963   1.172  24.691  0.00  0.00    -0.291 N 
ATOM      7  N   UNL     1      -0.606   3.394  24.260  0.00  0.00    -0.296 N 
ATOM     14  C   UNL     1      -0.494   2.374  25.203  0.00  0.00    +0.300 C 
ATOM     24  H   UNL     1      -1.392   1.170  23.771  0.00  0.00    +0.151 HD
ATOM     26  H   UNL     1      -1.013   3.180  23.355  0.00  0.00    +0.151 HD
BRANCH   7  18
ATOM     18  C   UNL     1      -0.193   4.752  24.525  0.00  0.00    +0.132 C 
BRANCH  18  22
ATOM     22  C   UNL     1      -1.372   5.537  24.996  0.00  0.00    -0.016 C 
ATOM     23  C   UNL     1      -2.341   5.036  25.770  0.00  0.00    +0.005 C 
ENDBRANCH  18  22
ENDBRANCH   7  18
ENDBRANCH   8   6
BRANCH  10   4
ATOM      4  O   UNL     1      -2.445  -1.045  27.098  0.00  0.00    -0.389 OA
ATOM     25  H   UNL     1      -3.373  -1.220  27.327  0.00  0.00    +0.210 HD
ENDBRANCH  10   4
BRANCH  11   1
ATOM      1  S   UNL     1      -3.929  -0.658  23.453  0.00  0.00    -0.114 S 
BRANCH   1  15
ATOM     15  C   UNL     1      -4.493   0.807  24.305  0.00  0.00    +0.008 A 
ATOM     16  C   UNL     1      -4.020   2.061  23.925  0.00  0.00    +0.015 A 
ATOM     17  C   UNL     1      -5.409   0.695  25.351  0.00  0.00    +0.015 A 
ATOM     19  C   UNL     1      -4.461   3.205  24.590  0.00  0.00    +0.001 A 
ATOM     20  C   UNL     1      -5.852   1.838  26.017  0.00  0.00    +0.001 A 
ATOM     21  C   UNL     1      -5.377   3.093  25.636  0.00  0.00    +0.000 A 
ENDBRANCH   1  15
ENDBRANCH  11   1
TORSDOF 6
ENDMDL
MODEL 3
REMARK VINA RESULT:      -4.3      2.211      4.960
REMARK  Name = 25314446
REMARK  6 active torsions:
REMARK  status: ('A' for Active; 'I' for Inactive)
REMARK    1  A    between atoms: S_1  and  C_11
REMARK    2  A    between atoms: S_1  and  C_15
REMARK    3  A    between atoms: O_4  and  C_10
REMARK    4  A    between atoms: N_6  and  C_8
REMARK    5  A    between atoms: N_7  and  C_18
REMARK    6  A    between atoms: C_18  and  C_22
REMARK                            x       y       z     vdW  Elec       q    Type
REMARK                         _______ _______ _______ _____ _____    ______ ____
ROOT
ATOM      2  O   UNL     1      -2.963  -1.759  23.484  0.00  0.00    -0.343 OA
ATOM      3  O   UNL     1      -3.600  -2.184  25.676  0.00  0.00    -0.347 OA
ATOM      8  C   UNL     1      -0.934  -1.107  24.613  0.00  0.00    +0.135 C 
ATOM      9  C   UNL     1      -1.823  -2.287  24.167  0.00  0.00    +0.170 C 
ATOM     10  C   UNL     1      -1.703  -0.003  25.376  0.00  0.00    +0.155 C 
ATOM     11  C   UNL     1      -3.201   0.096  25.011  0.00  0.00    +0.138 C 
ATOM     12  C   UNL     1      -3.754  -1.269  24.575  0.00  0.00    +0.266 C 
ATOM     13  C   UNL     1      -2.499  -3.024  25.305  0.00  0.00    +0.196 C 
ENDROOT
BRANCH   8   6
ATOM      5  O   UNL     1       1.899  -1.106  24.066  0.00  0.00    -0.253 OA
ATOM      6  N   UNL     1      -0.267  -0.540  23.456  0.00  0.00    -0.291 N 
ATOM      7  N   UNL     1       1.480   0.029  22.087  0.00  0.00    -0.296 N 
ATOM     14  C   UNL     1       1.108  -0.588  23.279  0.00  0.00    +0.300 C 
ATOM     24  H   UNL     1      -0.825  -0.018  22.787  0.00  0.00    +0.151 HD
ATOM     26  H   UNL     1       0.758   0.449  21.508  0.00  0.00    +0.151 HD
BRANCH   7  18
ATOM     18  C   UNL     1       2.852   0.125  21.650  0.00  0.00    +0.132 C 
BRANCH  18  22
ATOM     22  C   UNL     1       3.639   0.876  22.673  0.00  0.00    -0.016 C 
ATOM     23  C   UNL     1       4.825   0.474  23.143  0.00  0.00    +0.005 C 
ENDBRANCH  18  22
ENDBRANCH   7  18
ENDBRANCH   8   6
BRANCH  10   4
ATOM      4  O   UNL     1      -1.593  -0.268  26.784  0.00  0.00    -0.389 OA
ATOM     25  H   UNL     1      -2.128  -1.056  26.977  0.00  0.00    +0.210 HD
ENDBRANCH  10   4
BRANCH  11   1
ATOM      1  S   UNL     1      -3.454   1.323  23.679  0.00  0.00    -0.114 S 
BRANCH   1  15
ATOM     15  C   UNL     1      -2.501   2.700  24.301  0.00  0.00    +0.008 A 
ATOM     16  C   UNL     1      -3.077   3.600  25.196  0.00  0.00    +0.015 A 
ATOM     17  C   UNL     1      -1.180   2.874  23.890  0.00  0.00    +0.015 A 
ATOM     19  C   UNL     1      -2.333   4.674  25.683  0.00  0.00    +0.001 A 
ATOM     20  C   UNL     1      -0.434   3.948  24.377  0.00  0.00    +0.001 A 
ATOM     21  C   UNL     1      -1.011   4.848  25.272  0.00  0.00    +0.000 A 
ENDBRANCH   1  15
ENDBRANCH  11   1
TORSDOF 6
ENDMDL
MODEL 4
REMARK VINA RESULT:      -4.0     17.843     19.718
REMARK  Name = 25314446
REMARK  6 active torsions:
REMARK  status: ('A' for Active; 'I' for Inactive)
REMARK    1  A    between atoms: S_1  and  C_11
REMARK    2  A    between atoms: S_1  and  C_15
REMARK    3  A    between atoms: O_4  and  C_10
REMARK    4  A    between atoms: N_6  and  C_8
REMARK    5  A    between atoms: N_7  and  C_18
REMARK    6  A    between atoms: C_18  and  C_22
REMARK                            x       y       z     vdW  Elec       q    Type
REMARK                         _______ _______ _______ _____ _____    ______ ____
ROOT
ATOM      2  O   UNL     1      13.929  -5.947  30.128  0.00  0.00    -0.343 OA
ATOM      3  O   UNL     1      13.184  -6.119  32.320  0.00  0.00    -0.347 OA
ATOM      8  C   UNL     1      14.376  -8.287  30.509  0.00  0.00    +0.135 C 
ATOM      9  C   UNL     1      13.289  -7.219  30.265  0.00  0.00    +0.170 C 
ATOM     10  C   UNL     1      15.360  -7.923  31.645  0.00  0.00    +0.155 C 
ATOM     11  C   UNL     1      15.533  -6.405  31.874  0.00  0.00    +0.138 C 
ATOM     12  C   UNL     1      14.258  -5.640  31.489  0.00  0.00    +0.266 C 
ATOM     13  C   UNL     1      12.396  -6.952  31.459  0.00  0.00    +0.196 C 
ENDROOT
BRANCH   8   6
ATOM      5  O   UNL     1      14.214 -10.621  28.821  0.00  0.00    -0.253 OA
ATOM      6  N   UNL     1      15.103  -8.526  29.277  0.00  0.00    -0.291 N 
ATOM      7  N   UNL     1      15.772  -9.655  27.399  0.00  0.00    -0.296 N 
ATOM     14  C   UNL     1      14.959  -9.687  28.529  0.00  0.00    +0.300 C 
ATOM     24  H   UNL     1      15.805  -7.850  28.993  0.00  0.00    +0.151 HD
ATOM     26  H   UNL     1      16.371  -8.849  27.250  0.00  0.00    +0.151 HD
BRANCH   7  18
ATOM     18  C   UNL     1      15.823 -10.735  26.442  0.00  0.00    +0.132 C 
BRANCH  18  22
ATOM     22  C   UNL     1      15.141 -10.305  25.185  0.00  0.00    -0.016 C 
ATOM     23  C   UNL     1      13.876 -10.618  24.879  0.00  0.00    +0.005 C 
ENDBRANCH  18  22
ENDBRANCH   7  18
ENDBRANCH   8   6
BRANCH  10   4
ATOM      4  O   UNL     1      14.882  -8.517  32.863  0.00  0.00    -0.389 OA
ATOM     25  H   UNL     1      14.021  -8.925  32.673  0.00  0.00    +0.210 HD
ENDBRANCH  10   4
BRANCH  11   1
ATOM      1  S   UNL     1      16.953  -5.771  30.910  0.00  0.00    -0.114 S 
BRANCH   1  15
ATOM     15  C   UNL     1      16.862  -4.026  31.283  0.00  0.00    +0.008 A 
ATOM     16  C   UNL     1      17.092  -3.577  32.582  0.00  0.00    +0.015 A 
ATOM     17  C   UNL     1      16.560  -3.113  30.273  0.00  0.00    +0.015 A 
ATOM     19  C   UNL     1      17.022  -2.215  32.873  0.00  0.00    +0.001 A 
ATOM     20  C   UNL     1      16.490  -1.750  30.562  0.00  0.00    +0.001 A 
ATOM     21  C   UNL     1      16.720  -1.302  31.863  0.00  0.00    +0.000 A 
ENDBRANCH   1  15
ENDBRANCH  11   1
TORSDOF 6
ENDMDL
MODEL 5
REMARK VINA RESULT:      -3.9      2.515      4.892
REMARK  Name = 25314446
REMARK  6 active torsions:
REMARK  status: ('A' for Active; 'I' for Inactive)
REMARK    1  A    between atoms: S_1  and  C_11
REMARK    2  A    between atoms: S_1  and  C_15
REMARK    3  A    between atoms: O_4  and  C_10
REMARK    4  A    between atoms: N_6  and  C_8
REMARK    5  A    between atoms: N_7  and  C_18
REMARK    6  A    between atoms: C_18  and  C_22
REMARK                            x       y       z     vdW  Elec       q    Type
REMARK                         _______ _______ _______ _____ _____    ______ ____
ROOT
ATOM      2  O   UNL     1      -1.937   2.793  25.673  0.00  0.00    -0.343 OA
ATOM      3  O   UNL     1      -0.113   4.059  24.992  0.00  0.00    -0.347 OA
ATOM      8  C   UNL     1      -0.274   1.050  25.558  0.00  0.00    +0.135 C 
ATOM      9  C   UNL     1      -0.783   2.277  26.343  0.00  0.00    +0.170 C 
ATOM     10  C   UNL     1      -0.091   1.312  24.044  0.00  0.00    +0.155 C 
ATOM     11  C   UNL     1      -1.009   2.417  23.476  0.00  0.00    +0.138 C 
ATOM     12  C   UNL     1      -1.346   3.461  24.550  0.00  0.00    +0.266 C 
ATOM     13  C   UNL     1       0.134   3.482  26.282  0.00  0.00    +0.196 C 
ENDROOT
BRANCH   8   6
ATOM      5  O   UNL     1      -0.653  -1.223  23.823  0.00  0.00    -0.253 OA
ATOM      6  N   UNL     1      -1.178  -0.065  25.764  0.00  0.00    -0.291 N 
ATOM      7  N   UNL     1      -2.230  -2.050  25.311  0.00  0.00    -0.296 N 
ATOM     14  C   UNL     1      -1.292  -1.120  24.869  0.00  0.00    +0.300 C 
ATOM     24  H   UNL     1      -1.809  -0.033  26.559  0.00  0.00    +0.151 HD
ATOM     26  H   UNL     1      -2.725  -1.870  26.179  0.00  0.00    +0.151 HD
BRANCH   7  18
ATOM     18  C   UNL     1      -2.550  -3.248  24.573  0.00  0.00    +0.132 C 
BRANCH  18  22
ATOM     22  C   UNL     1      -3.841  -3.046  23.849  0.00  0.00    -0.016 C 
ATOM     23  C   UNL     1      -4.472  -1.869  23.766  0.00  0.00    +0.005 C 
ENDBRANCH  18  22
ENDBRANCH   7  18
ENDBRANCH   8   6
BRANCH  10   4
ATOM      4  O   UNL     1       1.276   1.691  23.814  0.00  0.00    -0.389 OA
ATOM     25  H   UNL     1       1.841   1.026  24.242  0.00  0.00    +0.210 HD
ENDBRANCH  10   4
BRANCH  11   1
ATOM      1  S   UNL     1      -2.550   1.689  22.812  0.00  0.00    -0.114 S 
BRANCH   1  15
ATOM     15  C   UNL     1      -3.749   2.315  23.978  0.00  0.00    +0.008 A 
ATOM     16  C   UNL     1      -3.999   3.685  24.055  0.00  0.00    +0.015 A 
ATOM     17  C   UNL     1      -4.437   1.433  24.811  0.00  0.00    +0.015 A 
ATOM     19  C   UNL     1      -4.936   4.174  24.966  0.00  0.00    +0.001 A 
ATOM     20  C   UNL     1      -5.375   1.921  25.722  0.00  0.00    +0.001 A 
ATOM     21  C   UNL     1      -5.623   3.291  25.799  0.00  0.00    +0.000 A 
ENDBRANCH   1  15
ENDBRANCH  11   1
TORSDOF 6
ENDMDL
MODEL 6
REMARK VINA RESULT:      -3.9      2.768      3.488
REMARK  Name = 25314446
REMARK  6 active torsions:
REMARK  status: ('A' for Active; 'I' for Inactive)
REMARK    1  A    between atoms: S_1  and  C_11
REMARK    2  A    between atoms: S_1  and  C_15
REMARK    3  A    between atoms: O_4  and  C_10
REMARK    4  A    between atoms: N_6  and  C_8
REMARK    5  A    between atoms: N_7  and  C_18
REMARK    6  A    between atoms: C_18  and  C_22
REMARK                            x       y       z     vdW  Elec       q    Type
REMARK                         _______ _______ _______ _____ _____    ______ ____
ROOT
ATOM      2  O   UNL     1      -3.904   3.558  25.689  0.00  0.00    -0.343 OA
ATOM      3  O   UNL     1      -4.700   3.892  23.533  0.00  0.00    -0.347 OA
ATOM      8  C   UNL     1      -1.989   2.784  24.443  0.00  0.00    +0.135 C 
ATOM      9  C   UNL     1      -2.806   4.014  24.893  0.00  0.00    +0.170 C 
ATOM     10  C   UNL     1      -2.847   1.668  23.801  0.00  0.00    +0.155 C 
ATOM     11  C   UNL     1      -4.313   1.637  24.286  0.00  0.00    +0.138 C 
ATOM     12  C   UNL     1      -4.792   3.039  24.690  0.00  0.00    +0.266 C 
ATOM     13  C   UNL     1      -3.549   4.713  23.773  0.00  0.00    +0.196 C 
ENDROOT
BRANCH   8   6
ATOM      5  O   UNL     1       0.353   3.930  25.677  0.00  0.00    -0.253 OA
ATOM      6  N   UNL     1      -1.250   2.255  25.573  0.00  0.00    -0.291 N 
ATOM      7  N   UNL     1       0.383   2.161  27.178  0.00  0.00    -0.296 N 
ATOM     14  C   UNL     1      -0.129   2.881  26.101  0.00  0.00    +0.300 C 
ATOM     24  H   UNL     1      -1.520   1.350  25.944  0.00  0.00    +0.151 HD
ATOM     26  H   UNL     1      -0.070   1.292  27.445  0.00  0.00    +0.151 HD
BRANCH   7  18
ATOM     18  C   UNL     1       1.550   2.582  27.916  0.00  0.00    +0.132 C 
BRANCH  18  22
ATOM     22  C   UNL     1       1.231   2.582  29.375  0.00  0.00    -0.016 C 
ATOM     23  C   UNL     1       1.955   1.934  30.296  0.00  0.00    +0.005 C 
ENDBRANCH  18  22
ENDBRANCH   7  18
ENDBRANCH   8   6
BRANCH  10   4
ATOM      4  O   UNL     1      -2.841   1.858  22.377  0.00  0.00    -0.389 OA
ATOM     25  H   UNL     1      -3.706   1.572  22.038  0.00  0.00    +0.210 HD
ENDBRANCH  10   4
BRANCH  11   1
ATOM      1  S   UNL     1      -4.496   0.487  25.697  0.00  0.00    -0.114 S 
BRANCH   1  15
ATOM     15  C   UNL     1      -3.471  -0.873  25.160  0.00  0.00    +0.008 A 
ATOM     16  C   UNL     1      -4.006  -1.873  24.350  0.00  0.00    +0.015 A 
ATOM     17  C   UNL     1      -2.133  -0.934  25.551  0.00  0.00    +0.015 A 
ATOM     19  C   UNL     1      -3.205  -2.935  23.930  0.00  0.00    +0.001 A 
ATOM     20  C   UNL     1      -1.331  -1.995  25.131  0.00  0.00    +0.001 A 
ATOM     21  C   UNL     1      -1.867  -2.996  24.321  0.00  0.00    +0.000 A 
ENDBRANCH   1  15
ENDBRANCH  11   1
TORSDOF 6
ENDMDL
MODEL 7
REMARK VINA RESULT:      -3.6      2.551      4.643
REMARK  Name = 25314446
REMARK  6 active torsions:
REMARK  status: ('A' for Active; 'I' for Inactive)
REMARK    1  A    between atoms: S_1  and  C_11
REMARK    2  A    between atoms: S_1  and  C_15
REMARK    3  A    between atoms: O_4  and  C_10
REMARK    4  A    between atoms: N_6  and  C_8
REMARK    5  A    between atoms: N_7  and  C_18
REMARK    6  A    between atoms: C_18  and  C_22
REMARK                            x       y       z     vdW  Elec       q    Type
REMARK                         _______ _______ _______ _____ _____    ______ ____
ROOT
ATOM      2  O   UNL     1      -2.183  -1.049  23.268  0.00  0.00    -0.343 OA
ATOM      3  O   UNL     1      -3.007  -2.037  25.200  0.00  0.00    -0.347 OA
ATOM      8  C   UNL     1      -0.186  -0.985  24.620  0.00  0.00    +0.135 C 
ATOM      9  C   UNL     1      -1.145  -1.876  23.802  0.00  0.00    +0.170 C 
ATOM     10  C   UNL     1      -0.904  -0.083  25.652  0.00  0.00    +0.155 C 
ATOM     11  C   UNL     1      -2.357   0.280  25.276  0.00  0.00    +0.138 C 
ATOM     12  C   UNL     1      -3.000  -0.825  24.424  0.00  0.00    +0.266 C 
ATOM     13  C   UNL     1      -1.963  -2.842  24.635  0.00  0.00    +0.196 C 
ENDROOT
BRANCH   8   6
ATOM      5  O   UNL     1       2.559  -1.422  23.850  0.00  0.00    -0.253 OA
ATOM      6  N   UNL     1       0.607  -0.174  23.717  0.00  0.00    -0.291 N 
ATOM      7  N   UNL     1       2.450   0.474  22.518  0.00  0.00    -0.296 N 
ATOM     14  C   UNL     1       1.928  -0.465  23.405  0.00  0.00    +0.300 C 
ATOM     24  H   UNL     1       0.203   0.686  23.360  0.00  0.00    +0.151 HD
ATOM     26  H   UNL     1       1.860   1.244  22.219  0.00  0.00    +0.151 HD
BRANCH   7  18
ATOM     18  C   UNL     1       3.805   0.415  22.024  0.00  0.00    +0.132 C 
BRANCH  18  22
ATOM     22  C   UNL     1       4.744   0.762  23.132  0.00  0.00    -0.016 C 
ATOM     23  C   UNL     1       5.626  -0.096  23.657  0.00  0.00    +0.005 C 
ENDBRANCH  18  22
ENDBRANCH   7  18
ENDBRANCH   8   6
BRANCH  10   4
ATOM      4  O   UNL     1      -0.917  -0.766  26.915  0.00  0.00    -0.389 OA
ATOM     25  H   UNL     1      -1.694  -1.349  26.927  0.00  0.00    +0.210 HD
ENDBRANCH  10   4
BRANCH  11   1
ATOM      1  S   UNL     1      -2.405   1.869  24.370  0.00  0.00    -0.114 S 
BRANCH   1  15
ATOM     15  C   UNL     1      -3.977   2.520  24.913  0.00  0.00    +0.008 A 
ATOM     16  C   UNL     1      -4.145   3.895  25.076  0.00  0.00    +0.015 A 
ATOM     17  C   UNL     1      -5.038   1.653  25.174  0.00  0.00    +0.015 A 
ATOM     19  C   UNL     1      -5.373   4.403  25.500  0.00  0.00    +0.001 A 
ATOM     20  C   UNL     1      -6.267   2.160  25.597  0.00  0.00    +0.001 A 
ATOM     21  C   UNL     1      -6.434   3.536  25.760  0.00  0.00    +0.000 A 
ENDBRANCH   1  15
ENDBRANCH  11   1
TORSDOF 6
ENDMDL
MODEL 8
REMARK VINA RESULT:      -3.4     18.420     19.874
REMARK  Name = 25314446
REMARK  6 active torsions:
REMARK  status: ('A' for Active; 'I' for Inactive)
REMARK    1  A    between atoms: S_1  and  C_11
REMARK    2  A    between atoms: S_1  and  C_15
REMARK    3  A    between atoms: O_4  and  C_10
REMARK    4  A    between atoms: N_6  and  C_8
REMARK    5  A    between atoms: N_7  and  C_18
REMARK    6  A    between atoms: C_18  and  C_22
REMARK                            x       y       z     vdW  Elec       q    Type
REMARK                         _______ _______ _______ _____ _____    ______ ____
ROOT
ATOM      2  O   UNL     1      12.541  -8.469  30.667  0.00  0.00    -0.343 OA
ATOM      3  O   UNL     1      13.262  -8.534  32.873  0.00  0.00    -0.347 OA
ATOM      8  C   UNL     1      14.428  -9.952  30.417  0.00  0.00    +0.135 C 
ATOM      9  C   UNL     1      12.982  -9.804  30.935  0.00  0.00    +0.170 C 
ATOM     10  C   UNL     1      15.381  -8.835  30.907  0.00  0.00    +0.155 C 
ATOM     11  C   UNL     1      14.679  -7.496  31.226  0.00  0.00    +0.138 C 
ATOM     12  C   UNL     1      13.231  -7.727  31.681  0.00  0.00    +0.266 C 
ATOM     13  C   UNL     1      12.852  -9.839  32.444  0.00  0.00    +0.196 C 
ENDROOT
BRANCH   8   6
ATOM      5  O   UNL     1      16.642 -10.602  28.687  0.00  0.00    -0.253 OA
ATOM      6  N   UNL     1      14.419  -9.998  28.968  0.00  0.00    -0.291 N 
ATOM      7  N   UNL     1      15.254 -10.293  26.854  0.00  0.00    -0.296 N 
ATOM     14  C   UNL     1      15.541 -10.324  28.217  0.00  0.00    +0.300 C 
ATOM     24  H   UNL     1      13.578  -9.705  28.481  0.00  0.00    +0.151 HD
ATOM     26  H   UNL     1      14.319 -10.032  26.557  0.00  0.00    +0.151 HD
BRANCH   7  18
ATOM     18  C   UNL     1      16.239 -10.590  25.841  0.00  0.00    +0.132 C 
BRANCH  18  22
ATOM     22  C   UNL     1      16.900  -9.321  25.416  0.00  0.00    -0.016 C 
ATOM     23  C   UNL     1      16.299  -8.126  25.431  0.00  0.00    +0.005 C 
ENDBRANCH  18  22
ENDBRANCH   7  18
ENDBRANCH   8   6
BRANCH  10   4
ATOM      4  O   UNL     1      16.044  -9.298  32.094  0.00  0.00    -0.389 OA
ATOM     25  H   UNL     1      15.579 -10.095  32.399  0.00  0.00    +0.210 HD
ENDBRANCH  10   4
BRANCH  11   1
ATOM      1  S   UNL     1      14.703  -6.398  29.763  0.00  0.00    -0.114 S 
BRANCH   1  15
ATOM     15  C   UNL     1      15.293  -4.878  30.492  0.00  0.00    +0.008 A 
ATOM     16  C   UNL     1      14.740  -4.414  31.684  0.00  0.00    +0.015 A 
ATOM     17  C   UNL     1      16.310  -4.154  29.867  0.00  0.00    +0.015 A 
ATOM     19  C   UNL     1      15.201  -3.227  32.253  0.00  0.00    +0.001 A 
ATOM     20  C   UNL     1      16.773  -2.968  30.436  0.00  0.00    +0.001 A 
ATOM     21  C   UNL     1      16.217  -2.504  31.629  0.00  0.00    +0.000 A 
ENDBRANCH   1  15
ENDBRANCH  11   1
TORSDOF 6
ENDMDL
MODEL 9
REMARK VINA RESULT:      -2.9      2.171      5.463
REMARK  Name = 25314446
REMARK  6 active torsions:
REMARK  status: ('A' for Active; 'I' for Inactive)
REMARK    1  A    between atoms: S_1  and  C_11
REMARK    2  A    between atoms: S_1  and  C_15
REMARK    3  A    between atoms: O_4  and  C_10
REMARK    4  A    between atoms: N_6  and  C_8
REMARK    5  A    between atoms: N_7  and  C_18
REMARK    6  A    between atoms: C_18  and  C_22
REMARK                            x       y       z     vdW  Elec       q    Type
REMARK                         _______ _______ _______ _____ _____    ______ ____
ROOT
ATOM      2  O   UNL     1      -1.486   3.138  23.397  0.00  0.00    -0.343 OA
ATOM      3  O   UNL     1      -0.125   4.331  24.852  0.00  0.00    -0.347 OA
ATOM      8  C   UNL     1      -2.042   2.015  25.458  0.00  0.00    +0.135 C 
ATOM      9  C   UNL     1      -2.207   3.302  24.622  0.00  0.00    +0.170 C 
ATOM     10  C   UNL     1      -0.571   1.563  25.618  0.00  0.00    +0.155 C 
ATOM     11  C   UNL     1       0.358   2.003  24.466  0.00  0.00    +0.138 C 
ATOM     12  C   UNL     1      -0.131   3.314  23.833  0.00  0.00    +0.266 C 
ATOM     13  C   UNL     1      -1.505   4.515  25.196  0.00  0.00    +0.196 C 
ENDROOT
BRANCH   8   6
ATOM      5  O   UNL     1      -2.131  -0.745  26.290  0.00  0.00    -0.253 OA
ATOM      6  N   UNL     1      -2.829   0.950  24.868  0.00  0.00    -0.291 N 
ATOM      7  N   UNL     1      -3.652  -1.170  24.592  0.00  0.00    -0.296 N 
ATOM     14  C   UNL     1      -2.806  -0.355  25.340  0.00  0.00    +0.300 C 
ATOM     24  H   UNL     1      -3.358   1.152  24.026  0.00  0.00    +0.151 HD
ATOM     26  H   UNL     1      -4.156  -0.764  23.809  0.00  0.00    +0.151 HD
BRANCH   7  18
ATOM     18  C   UNL     1      -3.824  -2.578  24.863  0.00  0.00    +0.132 C 
BRANCH  18  22
ATOM     22  C   UNL     1      -2.729  -3.341  24.192  0.00  0.00    -0.016 C 
ATOM     23  C   UNL     1      -1.509  -2.844  23.959  0.00  0.00    +0.005 C 
ENDBRANCH  18  22
ENDBRANCH   7  18
ENDBRANCH   8   6
BRANCH  10   4
ATOM      4  O   UNL     1      -0.063   2.107  26.847  0.00  0.00    -0.389 OA
ATOM     25  H   UNL     1      -0.429   3.002  26.946  0.00  0.00    +0.210 HD
ENDBRANCH  10   4
BRANCH  11   1
ATOM      1  S   UNL     1       0.457   0.696  23.189  0.00  0.00    -0.114 S 
BRANCH   1  15
ATOM     15  C   UNL     1       2.206   0.332  23.214  0.00  0.00    +0.008 A 
ATOM     16  C   UNL     1       2.649  -0.937  23.584  0.00  0.00    +0.015 A 
ATOM     17  C   UNL     1       3.128   1.318  22.862  0.00  0.00    +0.015 A 
ATOM     19  C   UNL     1       4.014  -1.221  23.602  0.00  0.00    +0.001 A 
ATOM     20  C   UNL     1       4.493   1.034  22.880  0.00  0.00    +0.001 A 
ATOM     21  C   UNL     1       4.936  -0.235  23.250  0.00  0.00    +0.000 A 
ENDBRANCH   1  15
ENDBRANCH  11   1
TORSDOF 6
ENDMDL
MODEL 10
REMARK VINA RESULT:      -2.8      3.104      6.751
REMARK  Name = 25314446
REMARK  6 active torsions:
REMARK  status: ('A' for Active; 'I' for Inactive)
REMARK    1  A    between atoms: S_1  and  C_11
REMARK    2  A    between atoms: S_1  and  C_15
REMARK    3  A    between atoms: O_4  and  C_10
REMARK    4  A    between atoms: N_6  and  C_8
REMARK    5  A    between atoms: N_7  and  C_18
REMARK    6  A    between atoms: C_18  and  C_22
REMARK                            x       y       z     vdW  Elec       q    Type
REMARK                         _______ _______ _______ _____ _____    ______ ____
ROOT
ATOM      2  O   UNL     1      -1.725  -1.567  25.920  0.00  0.00    -0.343 OA
ATOM      3  O   UNL     1      -0.330  -1.884  24.092  0.00  0.00    -0.347 OA
ATOM      8  C   UNL     1      -2.979  -0.348  24.259  0.00  0.00    +0.135 C 
ATOM      9  C   UNL     1      -2.558  -1.742  24.771  0.00  0.00    +0.170 C 
ATOM     10  C   UNL     1      -1.793   0.627  24.068  0.00  0.00    +0.155 C 
ATOM     11  C   UNL     1      -0.581   0.340  24.981  0.00  0.00    +0.138 C 
ATOM     12  C   UNL     1      -0.489  -1.154  25.323  0.00  0.00    +0.266 C 
ATOM     13  C   UNL     1      -1.610  -2.485  23.853  0.00  0.00    +0.196 C 
ENDROOT
BRANCH   8   6
ATOM      5  O   UNL     1      -4.629   1.972  23.794  0.00  0.00    -0.253 OA
ATOM      6  N   UNL     1      -3.954   0.226  25.166  0.00  0.00    -0.291 N 
ATOM      7  N   UNL     1      -5.561   1.686  25.899  0.00  0.00    -0.296 N 
ATOM     14  C   UNL     1      -4.705   1.350  24.852  0.00  0.00    +0.300 C 
ATOM     24  H   UNL     1      -4.033  -0.166  26.099  0.00  0.00    +0.151 HD
ATOM     26  H   UNL     1      -5.541   1.125  26.746  0.00  0.00    +0.151 HD
BRANCH   7  18
ATOM     18  C   UNL     1      -6.459   2.815  25.844  0.00  0.00    +0.132 C 
BRANCH  18  22
ATOM     22  C   UNL     1      -5.658   4.071  25.748  0.00  0.00    -0.016 C 
ATOM     23  C   UNL     1      -6.166   5.252  25.376  0.00  0.00    +0.005 C 
ENDBRANCH  18  22
ENDBRANCH   7  18
ENDBRANCH   8   6
BRANCH  10   4
ATOM      4  O   UNL     1      -1.362   0.550  22.699  0.00  0.00    -0.389 OA
ATOM     25  H   UNL     1      -1.482   1.430  22.303  0.00  0.00    +0.210 HD
ENDBRANCH  10   4
BRANCH  11   1
ATOM      1  S   UNL     1      -0.692   1.324  26.519  0.00  0.00    -0.114 S 
BRANCH   1  15
ATOM     15  C   UNL     1      -1.025   2.949  25.859  0.00  0.00    +0.008 A 
ATOM     16  C   UNL     1      -0.101   3.563  25.015  0.00  0.00    +0.015 A 
ATOM     17  C   UNL     1      -2.212   3.604  26.187  0.00  0.00    +0.015 A 
ATOM     19  C   UNL     1      -0.361   4.832  24.498  0.00  0.00    +0.001 A 
ATOM     20  C   UNL     1      -2.474   4.874  25.670  0.00  0.00    +0.001 A 
ATOM     21  C   UNL     1      -1.548   5.487  24.826  0.00  0.00    +0.000 A 
ENDBRANCH   1  15
ENDBRANCH  11   1
TORSDOF 6
ENDMDL
