MODEL 1
REMARK VINA RESULT:      -5.6      0.000      0.000
REMARK  Name = 26742985
REMARK  8 active torsions:
REMARK  status: ('A' for Active; 'I' for Inactive)
REMARK    1  A    between atoms: C_7  and  C_11
REMARK    2  A    between atoms: C_8  and  C_12
REMARK    3  A    between atoms: C_11  and  C_14
REMARK    4  A    between atoms: C_12  and  C_15
REMARK    5  A    between atoms: C_21  and  C_22
REMARK    6  A    between atoms: C_22  and  C_23
REMARK    7  A    between atoms: C_23  and  C_24
REMARK    8  A    between atoms: C_24  and  C_25
REMARK                            x       y       z     vdW  Elec       q    Type
REMARK                         _______ _______ _______ _____ _____    ______ ____
ROOT
ATOM      4  N   UNL     1      -2.540  -3.195  24.373  0.00  0.00    -0.316 NA
ATOM      7  C   UNL     1      -3.468  -0.407  24.106  0.00  0.00    +0.004 C 
ATOM      8  C   UNL     1      -1.975  -0.779  24.276  0.00  0.00    +0.012 C 
ATOM      9  C   UNL     1      -4.218  -1.605  23.501  0.00  0.00    +0.019 C 
ATOM     10  C   UNL     1      -1.804  -2.111  25.024  0.00  0.00    +0.085 C 
ATOM     13  C   UNL     1      -3.968  -2.900  24.274  0.00  0.00    +0.081 C 
ATOM     26  H   UNL     1      -2.410  -4.056  24.901  0.00  0.00    +0.122 HD
ENDROOT
BRANCH   7  11
ATOM     11  C   UNL     1      -4.144   0.066  25.398  0.00  0.00    +0.100 C 
BRANCH  11  14
ATOM      1  O   UNL     1      -6.108   1.341  25.027  0.00  0.00    -0.276 OA
ATOM      2  O   UNL     1      -2.747   4.909  25.689  0.00  0.00    -0.377 OA
ATOM      5  N   UNL     1      -4.105   2.514  25.089  0.00  0.00    -0.297 N 
ATOM     14  C   UNL     1      -4.881   1.359  25.154  0.00  0.00    +0.216 C 
ATOM     16  C   UNL     1      -4.740   3.811  24.860  0.00  0.00    +0.136 C 
ATOM     17  C   UNL     1      -2.639   2.556  25.108  0.00  0.00    +0.136 C 
ATOM     19  C   UNL     1      -4.172   4.855  25.810  0.00  0.00    +0.179 C 
ATOM     20  C   UNL     1      -2.155   3.657  26.042  0.00  0.00    +0.179 C 
ENDBRANCH  11  14
ENDBRANCH   7  11
BRANCH   8  12
ATOM     12  C   UNL     1      -1.156   0.324  24.948  0.00  0.00    +0.064 C 
BRANCH  12  15
ATOM      3  O   UNL     1       1.912   1.609  23.568  0.00  0.00    -0.359 OA
ATOM      6  N   UNL     1       0.766   1.731  24.344  0.00  0.00    -0.083 NA
ATOM     15  C   UNL     1       0.141   0.557  24.228  0.00  0.00    +0.084 A 
ATOM     18  C   UNL     1       0.838  -0.338  23.397  0.00  0.00    +0.071 A 
ATOM     21  C   UNL     1       1.944   0.372  23.009  0.00  0.00    +0.138 A 
BRANCH  21  22
ATOM     22  C   UNL     1       3.095   0.070  22.151  0.00  0.00    +0.077 C 
BRANCH  22  23
ATOM     23  C   UNL     1       4.338   0.928  22.483  0.00  0.00    +0.007 C 
BRANCH  23  24
ATOM     24  C   UNL     1       5.061   0.453  23.742  0.00  0.00    -0.003 C 
ATOM     25  C   UNL     1       5.070  -1.065  23.839  0.00  0.00    +0.004 C 
ENDBRANCH  23  24
ENDBRANCH  22  23
ENDBRANCH  21  22
ENDBRANCH  12  15
ENDBRANCH   8  12
TORSDOF 7
ENDMDL
MODEL 2
REMARK VINA RESULT:      -5.0     14.661     17.690
REMARK  Name = 26742985
REMARK  8 active torsions:
REMARK  status: ('A' for Active; 'I' for Inactive)
REMARK    1  A    between atoms: C_7  and  C_11
REMARK    2  A    between atoms: C_8  and  C_12
REMARK    3  A    between atoms: C_11  and  C_14
REMARK    4  A    between atoms: C_12  and  C_15
REMARK    5  A    between atoms: C_21  and  C_22
REMARK    6  A    between atoms: C_22  and  C_23
REMARK    7  A    between atoms: C_23  and  C_24
REMARK    8  A    between atoms: C_24  and  C_25
REMARK                            x       y       z     vdW  Elec       q    Type
REMARK                         _______ _______ _______ _____ _____    ______ ____
ROOT
ATOM      4  N   UNL     1      -3.839  -9.677  11.358  0.00  0.00    -0.316 NA
ATOM      7  C   UNL     1      -6.663  -8.862  11.092  0.00  0.00    +0.004 C 
ATOM      8  C   UNL     1      -6.167  -9.805  12.215  0.00  0.00    +0.012 C 
ATOM      9  C   UNL     1      -5.488  -7.997  10.607  0.00  0.00    +0.019 C 
ATOM     10  C   UNL     1      -4.907 -10.578  11.791  0.00  0.00    +0.085 C 
ATOM     13  C   UNL     1      -4.261  -8.832  10.242  0.00  0.00    +0.081 C 
ATOM     26  H   UNL     1      -3.028 -10.225  11.077  0.00  0.00    +0.122 HD
ENDROOT
BRANCH   7  11
ATOM     11  C   UNL     1      -7.328  -9.588   9.917  0.00  0.00    +0.100 C 
BRANCH  11  14
ATOM      1  O   UNL     1      -9.620  -9.883  10.449  0.00  0.00    -0.276 OA
ATOM      2  O   UNL     1      -9.717  -5.508   8.146  0.00  0.00    -0.377 OA
ATOM      5  N   UNL     1      -9.099  -8.103   9.053  0.00  0.00    -0.297 N 
ATOM     14  C   UNL     1      -8.786  -9.212   9.834  0.00  0.00    +0.216 C 
ATOM     16  C   UNL     1     -10.490  -7.667   8.922  0.00  0.00    +0.136 C 
ATOM     17  C   UNL     1      -8.155  -7.362   8.209  0.00  0.00    +0.136 C 
ATOM     19  C   UNL     1     -10.589  -6.157   9.076  0.00  0.00    +0.179 C 
ATOM     20  C   UNL     1      -8.353  -5.863   8.387  0.00  0.00    +0.179 C 
ENDBRANCH  11  14
ENDBRANCH   7  11
BRANCH   8  12
ATOM     12  C   UNL     1      -7.247 -10.767  12.710  0.00  0.00    +0.064 C 
BRANCH  12  15
ATOM      3  O   UNL     1      -9.453  -9.378  15.195  0.00  0.00    -0.359 OA
ATOM      6  N   UNL     1      -9.150  -9.757  13.893  0.00  0.00    -0.083 NA
ATOM     15  C   UNL     1      -7.910 -10.250  13.954  0.00  0.00    +0.084 A 
ATOM     18  C   UNL     1      -7.383 -10.207  15.258  0.00  0.00    +0.071 A 
ATOM     21  C   UNL     1      -8.393  -9.651  15.998  0.00  0.00    +0.138 A 
BRANCH  21  22
ATOM     22  C   UNL     1      -8.542  -9.312  17.418  0.00  0.00    +0.077 C 
BRANCH  22  23
ATOM     23  C   UNL     1      -7.936 -10.377  18.361  0.00  0.00    +0.007 C 
BRANCH  23  24
ATOM     24  C   UNL     1      -6.419 -10.247  18.495  0.00  0.00    -0.003 C 
ATOM     25  C   UNL     1      -5.959 -10.526  19.917  0.00  0.00    +0.004 C 
ENDBRANCH  23  24
ENDBRANCH  22  23
ENDBRANCH  21  22
ENDBRANCH  12  15
ENDBRANCH   8  12
TORSDOF 7
ENDMDL
MODEL 3
REMARK VINA RESULT:      -4.2      1.941      4.578
REMARK  Name = 26742985
REMARK  8 active torsions:
REMARK  status: ('A' for Active; 'I' for Inactive)
REMARK    1  A    between atoms: C_7  and  C_11
REMARK    2  A    between atoms: C_8  and  C_12
REMARK    3  A    between atoms: C_11  and  C_14
REMARK    4  A    between atoms: C_12  and  C_15
REMARK    5  A    between atoms: C_21  and  C_22
REMARK    6  A    between atoms: C_22  and  C_23
REMARK    7  A    between atoms: C_23  and  C_24
REMARK    8  A    between atoms: C_24  and  C_25
REMARK                            x       y       z     vdW  Elec       q    Type
REMARK                         _______ _______ _______ _____ _____    ______ ____
ROOT
ATOM      4  N   UNL     1      -6.173   3.770  25.765  0.00  0.00    -0.316 NA
ATOM      7  C   UNL     1      -3.776   2.077  25.455  0.00  0.00    +0.004 C 
ATOM      8  C   UNL     1      -3.723   3.622  25.387  0.00  0.00    +0.012 C 
ATOM      9  C   UNL     1      -5.006   1.652  26.274  0.00  0.00    +0.019 C 
ATOM     10  C   UNL     1      -5.063   4.216  24.923  0.00  0.00    +0.085 C 
ATOM     13  C   UNL     1      -6.292   2.313  25.779  0.00  0.00    +0.081 C 
ATOM     26  H   UNL     1      -7.042   4.176  25.422  0.00  0.00    +0.122 HD
ENDROOT
BRANCH   7  11
ATOM     11  C   UNL     1      -3.770   1.392  24.083  0.00  0.00    +0.100 C 
BRANCH  11  14
ATOM      1  O   UNL     1      -5.206  -0.481  23.859  0.00  0.00    -0.276 OA
ATOM      2  O   UNL     1      -0.975  -2.661  25.200  0.00  0.00    -0.377 OA
ATOM      5  N   UNL     1      -3.119  -0.879  24.795  0.00  0.00    -0.297 N 
ATOM     14  C   UNL     1      -4.104  -0.071  24.233  0.00  0.00    +0.216 C 
ATOM     16  C   UNL     1      -3.360  -2.311  24.973  0.00  0.00    +0.136 C 
ATOM     17  C   UNL     1      -1.853  -0.407  25.366  0.00  0.00    +0.136 C 
ATOM     19  C   UNL     1      -2.149  -3.113  24.518  0.00  0.00    +0.179 C 
ATOM     20  C   UNL     1      -0.703  -1.290  24.901  0.00  0.00    +0.179 C 
ENDBRANCH  11  14
ENDBRANCH   7  11
BRANCH   8  12
ATOM     12  C   UNL     1      -2.575   4.145  24.523  0.00  0.00    +0.064 C 
BRANCH  12  15
ATOM      3  O   UNL     1       0.325   2.404  25.759  0.00  0.00    -0.359 OA
ATOM      6  N   UNL     1      -0.793   3.210  25.934  0.00  0.00    -0.083 NA
ATOM     15  C   UNL     1      -1.329   3.329  24.717  0.00  0.00    +0.084 A 
ATOM     18  C   UNL     1      -0.598   2.628  23.741  0.00  0.00    +0.071 A 
ATOM     21  C   UNL     1       0.431   2.064  24.449  0.00  0.00    +0.138 A 
BRANCH  21  22
ATOM     22  C   UNL     1       1.565   1.207  24.083  0.00  0.00    +0.077 C 
BRANCH  22  23
ATOM     23  C   UNL     1       1.327   0.414  22.777  0.00  0.00    +0.007 C 
BRANCH  23  24
ATOM     24  C   UNL     1       2.630  -0.031  22.115  0.00  0.00    -0.003 C 
ATOM     25  C   UNL     1       3.818   0.768  22.630  0.00  0.00    +0.004 C 
ENDBRANCH  23  24
ENDBRANCH  22  23
ENDBRANCH  21  22
ENDBRANCH  12  15
ENDBRANCH   8  12
TORSDOF 7
ENDMDL
MODEL 4
REMARK VINA RESULT:      -4.1      1.824      4.083
REMARK  Name = 26742985
REMARK  8 active torsions:
REMARK  status: ('A' for Active; 'I' for Inactive)
REMARK    1  A    between atoms: C_7  and  C_11
REMARK    2  A    between atoms: C_8  and  C_12
REMARK    3  A    between atoms: C_11  and  C_14
REMARK    4  A    between atoms: C_12  and  C_15
REMARK    5  A    between atoms: C_21  and  C_22
REMARK    6  A    between atoms: C_22  and  C_23
REMARK    7  A    between atoms: C_23  and  C_24
REMARK    8  A    between atoms: C_24  and  C_25
REMARK                            x       y       z     vdW  Elec       q    Type
REMARK                         _______ _______ _______ _____ _____    ______ ____
ROOT
ATOM      4  N   UNL     1      -4.328   4.161  24.417  0.00  0.00    -0.316 NA
ATOM      7  C   UNL     1      -3.647   1.377  25.115  0.00  0.00    +0.004 C 
ATOM      8  C   UNL     1      -2.871   2.185  24.048  0.00  0.00    +0.012 C 
ATOM      9  C   UNL     1      -4.310   2.353  26.100  0.00  0.00    +0.019 C 
ATOM     10  C   UNL     1      -3.750   3.273  23.409  0.00  0.00    +0.085 C 
ATOM     13  C   UNL     1      -5.134   3.427  25.391  0.00  0.00    +0.081 C 
ATOM     26  H   UNL     1      -4.910   4.861  23.958  0.00  0.00    +0.122 HD
ENDROOT
BRANCH   7  11
ATOM     11  C   UNL     1      -4.679   0.404  24.531  0.00  0.00    +0.100 C 
BRANCH  11  14
ATOM      1  O   UNL     1      -4.408  -1.476  23.111  0.00  0.00    -0.276 OA
ATOM      2  O   UNL     1      -0.379  -1.826  25.958  0.00  0.00    -0.377 OA
ATOM      5  N   UNL     1      -2.939  -1.307  24.901  0.00  0.00    -0.297 N 
ATOM     14  C   UNL     1      -4.003  -0.878  24.112  0.00  0.00    +0.216 C 
ATOM     16  C   UNL     1      -2.225  -2.538  24.563  0.00  0.00    +0.136 C 
ATOM     17  C   UNL     1      -2.514  -0.693  26.164  0.00  0.00    +0.136 C 
ATOM     19  C   UNL     1      -0.722  -2.324  24.662  0.00  0.00    +0.179 C 
ATOM     20  C   UNL     1      -0.997  -0.560  26.201  0.00  0.00    +0.179 C 
ENDBRANCH  11  14
ENDBRANCH   7  11
BRANCH   8  12
ATOM     12  C   UNL     1      -2.239   1.304  22.970  0.00  0.00    +0.064 C 
BRANCH  12  15
ATOM      3  O   UNL     1       1.216   1.584  23.947  0.00  0.00    -0.359 OA
ATOM      6  N   UNL     1      -0.104   2.020  23.953  0.00  0.00    -0.083 NA
ATOM     15  C   UNL     1      -0.762   1.144  23.191  0.00  0.00    +0.084 A 
ATOM     18  C   UNL     1       0.081   0.141  22.680  0.00  0.00    +0.071 A 
ATOM     21  C   UNL     1       1.313   0.464  23.186  0.00  0.00    +0.138 A 
BRANCH  21  22
ATOM     22  C   UNL     1       2.647  -0.136  23.070  0.00  0.00    +0.077 C 
BRANCH  22  23
ATOM     23  C   UNL     1       3.755   0.904  22.781  0.00  0.00    +0.007 C 
BRANCH  23  24
ATOM     24  C   UNL     1       5.087   0.540  23.436  0.00  0.00    -0.003 C 
ATOM     25  C   UNL     1       5.067  -0.878  23.988  0.00  0.00    +0.004 C 
ENDBRANCH  23  24
ENDBRANCH  22  23
ENDBRANCH  21  22
ENDBRANCH  12  15
ENDBRANCH   8  12
TORSDOF 7
ENDMDL
MODEL 5
REMARK VINA RESULT:      -3.9      2.010      4.311
REMARK  Name = 26742985
REMARK  8 active torsions:
REMARK  status: ('A' for Active; 'I' for Inactive)
REMARK    1  A    between atoms: C_7  and  C_11
REMARK    2  A    between atoms: C_8  and  C_12
REMARK    3  A    between atoms: C_11  and  C_14
REMARK    4  A    between atoms: C_12  and  C_15
REMARK    5  A    between atoms: C_21  and  C_22
REMARK    6  A    between atoms: C_22  and  C_23
REMARK    7  A    between atoms: C_23  and  C_24
REMARK    8  A    between atoms: C_24  and  C_25
REMARK                            x       y       z     vdW  Elec       q    Type
REMARK                         _______ _______ _______ _____ _____    ______ ____
ROOT
ATOM      4  N   UNL     1      -0.338   4.578  24.786  0.00  0.00    -0.316 NA
ATOM      7  C   UNL     1      -2.257   2.410  25.354  0.00  0.00    +0.004 C 
ATOM      8  C   UNL     1      -0.864   2.151  24.731  0.00  0.00    +0.012 C 
ATOM      9  C   UNL     1      -2.217   3.727  26.145  0.00  0.00    +0.019 C 
ATOM     10  C   UNL     1      -0.355   3.376  23.952  0.00  0.00    +0.085 C 
ATOM     13  C   UNL     1      -1.663   4.887  25.319  0.00  0.00    +0.081 C 
ATOM     26  H   UNL     1      -0.004   5.367  24.234  0.00  0.00    +0.122 HD
ENDROOT
BRANCH   7  11
ATOM     11  C   UNL     1      -3.403   2.420  24.335  0.00  0.00    +0.100 C 
BRANCH  11  14
ATOM      1  O   UNL     1      -3.108   1.202  22.322  0.00  0.00    -0.276 OA
ATOM      2  O   UNL     1      -3.547  -2.462  25.615  0.00  0.00    -0.377 OA
ATOM      5  N   UNL     1      -3.690  -0.027  24.204  0.00  0.00    -0.297 N 
ATOM     14  C   UNL     1      -3.387   1.149  23.523  0.00  0.00    +0.216 C 
ATOM     16  C   UNL     1      -3.693  -1.305  23.493  0.00  0.00    +0.136 C 
ATOM     17  C   UNL     1      -4.148  -0.112  25.595  0.00  0.00    +0.136 C 
ATOM     19  C   UNL     1      -2.971  -2.368  24.309  0.00  0.00    +0.179 C 
ATOM     20  C   UNL     1      -3.413  -1.228  26.325  0.00  0.00    +0.179 C 
ENDBRANCH  11  14
ENDBRANCH   7  11
BRANCH   8  12
ATOM     12  C   UNL     1      -0.823   0.900  23.853  0.00  0.00    +0.064 C 
BRANCH  12  15
ATOM      3  O   UNL     1       2.102  -0.225  22.080  0.00  0.00    -0.359 OA
ATOM      6  N   UNL     1       0.746  -0.285  22.380  0.00  0.00    -0.083 NA
ATOM     15  C   UNL     1       0.550   0.671  23.292  0.00  0.00    +0.084 A 
ATOM     18  C   UNL     1       1.736   1.360  23.605  0.00  0.00    +0.071 A 
ATOM     21  C   UNL     1       2.680   0.758  22.816  0.00  0.00    +0.138 A 
BRANCH  21  22
ATOM     22  C   UNL     1       4.121   0.961  22.623  0.00  0.00    +0.077 C 
BRANCH  22  23
ATOM     23  C   UNL     1       4.941   0.743  23.915  0.00  0.00    +0.007 C 
BRANCH  23  24
ATOM     24  C   UNL     1       5.639  -0.616  23.945  0.00  0.00    -0.003 C 
ATOM     25  C   UNL     1       4.635  -1.759  23.918  0.00  0.00    +0.004 C 
ENDBRANCH  23  24
ENDBRANCH  22  23
ENDBRANCH  21  22
ENDBRANCH  12  15
ENDBRANCH   8  12
TORSDOF 7
ENDMDL
MODEL 6
REMARK VINA RESULT:      -3.7      2.786      5.238
REMARK  Name = 26742985
REMARK  8 active torsions:
REMARK  status: ('A' for Active; 'I' for Inactive)
REMARK    1  A    between atoms: C_7  and  C_11
REMARK    2  A    between atoms: C_8  and  C_12
REMARK    3  A    between atoms: C_11  and  C_14
REMARK    4  A    between atoms: C_12  and  C_15
REMARK    5  A    between atoms: C_21  and  C_22
REMARK    6  A    between atoms: C_22  and  C_23
REMARK    7  A    between atoms: C_23  and  C_24
REMARK    8  A    between atoms: C_24  and  C_25
REMARK                            x       y       z     vdW  Elec       q    Type
REMARK                         _______ _______ _______ _____ _____    ______ ____
ROOT
ATOM      4  N   UNL     1      -6.332   3.639  25.733  0.00  0.00    -0.316 NA
ATOM      7  C   UNL     1      -4.069   1.781  25.369  0.00  0.00    +0.004 C 
ATOM      8  C   UNL     1      -3.909   3.319  25.294  0.00  0.00    +0.012 C 
ATOM      9  C   UNL     1      -5.304   1.446  26.221  0.00  0.00    +0.019 C 
ATOM     10  C   UNL     1      -5.216   4.004  24.861  0.00  0.00    +0.085 C 
ATOM     13  C   UNL     1      -6.553   2.195  25.756  0.00  0.00    +0.081 C 
ATOM     26  H   UNL     1      -7.179   4.104  25.410  0.00  0.00    +0.122 HD
ENDROOT
BRANCH   7  11
ATOM     11  C   UNL     1      -4.146   1.094  24.001  0.00  0.00    +0.100 C 
BRANCH  11  14
ATOM      1  O   UNL     1      -5.028  -1.097  23.795  0.00  0.00    -0.276 OA
ATOM      2  O   UNL     1      -0.378  -2.052  25.181  0.00  0.00    -0.377 OA
ATOM      5  N   UNL     1      -2.917  -0.912  24.744  0.00  0.00    -0.297 N 
ATOM     14  C   UNL     1      -4.078  -0.403  24.168  0.00  0.00    +0.216 C 
ATOM     16  C   UNL     1      -2.768  -2.354  24.940  0.00  0.00    +0.136 C 
ATOM     17  C   UNL     1      -1.828  -0.112  25.314  0.00  0.00    +0.136 C 
ATOM     19  C   UNL     1      -1.383  -2.808  24.501  0.00  0.00    +0.179 C 
ATOM     20  C   UNL     1      -0.480  -0.662  24.865  0.00  0.00    +0.179 C 
ENDBRANCH  11  14
ENDBRANCH   7  11
BRANCH   8  12
ATOM     12  C   UNL     1      -2.750   3.757  24.399  0.00  0.00    +0.064 C 
BRANCH  12  15
ATOM      3  O   UNL     1       0.611   2.591  24.957  0.00  0.00    -0.359 OA
ATOM      6  N   UNL     1      -0.451   2.934  24.128  0.00  0.00    -0.083 NA
ATOM     15  C   UNL     1      -1.429   3.310  24.955  0.00  0.00    +0.084 A 
ATOM     18  C   UNL     1      -1.048   3.224  26.306  0.00  0.00    +0.071 A 
ATOM     21  C   UNL     1       0.242   2.767  26.251  0.00  0.00    +0.138 A 
BRANCH  21  22
ATOM     22  C   UNL     1       1.251   2.449  27.269  0.00  0.00    +0.077 C 
BRANCH  22  23
ATOM     23  C   UNL     1       0.647   2.259  28.680  0.00  0.00    +0.007 C 
BRANCH  23  24
ATOM     24  C   UNL     1       1.658   2.533  29.793  0.00  0.00    -0.003 C 
ATOM     25  C   UNL     1       2.990   3.007  29.231  0.00  0.00    +0.004 C 
ENDBRANCH  23  24
ENDBRANCH  22  23
ENDBRANCH  21  22
ENDBRANCH  12  15
ENDBRANCH   8  12
TORSDOF 7
ENDMDL
MODEL 7
REMARK VINA RESULT:      -3.7      2.752      5.329
REMARK  Name = 26742985
REMARK  8 active torsions:
REMARK  status: ('A' for Active; 'I' for Inactive)
REMARK    1  A    between atoms: C_7  and  C_11
REMARK    2  A    between atoms: C_8  and  C_12
REMARK    3  A    between atoms: C_11  and  C_14
REMARK    4  A    between atoms: C_12  and  C_15
REMARK    5  A    between atoms: C_21  and  C_22
REMARK    6  A    between atoms: C_22  and  C_23
REMARK    7  A    between atoms: C_23  and  C_24
REMARK    8  A    between atoms: C_24  and  C_25
REMARK                            x       y       z     vdW  Elec       q    Type
REMARK                         _______ _______ _______ _____ _____    ______ ____
ROOT
ATOM      4  N   UNL     1      -0.343   5.692  24.802  0.00  0.00    -0.316 NA
ATOM      7  C   UNL     1      -1.804   3.133  24.957  0.00  0.00    +0.004 C 
ATOM      8  C   UNL     1      -0.272   3.210  24.754  0.00  0.00    +0.012 C 
ATOM      9  C   UNL     1      -2.284   4.419  25.648  0.00  0.00    +0.019 C 
ATOM     10  C   UNL     1       0.145   4.523  24.070  0.00  0.00    +0.085 C 
ATOM     13  C   UNL     1      -1.799   5.681  24.935  0.00  0.00    +0.081 C 
ATOM     26  H   UNL     1      -0.056   6.539  24.316  0.00  0.00    +0.122 HD
ENDROOT
BRANCH   7  11
ATOM     11  C   UNL     1      -2.592   2.880  23.666  0.00  0.00    +0.100 C 
BRANCH  11  14
ATOM      1  O   UNL     1      -3.388   0.659  23.426  0.00  0.00    -0.276 OA
ATOM      2  O   UNL     1      -6.649   2.514  26.648  0.00  0.00    -0.377 OA
ATOM      5  N   UNL     1      -4.744   2.126  24.609  0.00  0.00    -0.297 N 
ATOM     14  C   UNL     1      -3.606   1.784  23.884  0.00  0.00    +0.216 C 
ATOM     16  C   UNL     1      -5.776   1.122  24.870  0.00  0.00    +0.136 C 
ATOM     17  C   UNL     1      -5.094   3.479  25.056  0.00  0.00    +0.136 C 
ATOM     19  C   UNL     1      -6.224   1.187  26.322  0.00  0.00    +0.179 C 
ATOM     20  C   UNL     1      -5.577   3.447  26.501  0.00  0.00    +0.179 C 
ENDBRANCH  11  14
ENDBRANCH   7  11
BRANCH   8  12
ATOM     12  C   UNL     1       0.294   2.007  23.998  0.00  0.00    +0.064 C 
BRANCH  12  15
ATOM      3  O   UNL     1      -1.036  -0.636  26.050  0.00  0.00    -0.359 OA
ATOM      6  N   UNL     1      -0.688   0.691  25.825  0.00  0.00    -0.083 NA
ATOM     15  C   UNL     1      -0.190   0.714  24.586  0.00  0.00    +0.084 A 
ATOM     18  C   UNL     1      -0.197  -0.557  23.985  0.00  0.00    +0.071 A 
ATOM     21  C   UNL     1      -0.738  -1.369  24.947  0.00  0.00    +0.138 A 
BRANCH  21  22
ATOM     22  C   UNL     1      -1.044  -2.803  25.011  0.00  0.00    +0.077 C 
BRANCH  22  23
ATOM     23  C   UNL     1      -2.313  -3.187  24.216  0.00  0.00    +0.007 C 
BRANCH  23  24
ATOM     24  C   UNL     1      -3.579  -2.552  24.789  0.00  0.00    -0.003 C 
ATOM     25  C   UNL     1      -4.580  -2.218  23.693  0.00  0.00    +0.004 C 
ENDBRANCH  23  24
ENDBRANCH  22  23
ENDBRANCH  21  22
ENDBRANCH  12  15
ENDBRANCH   8  12
TORSDOF 7
ENDMDL
MODEL 8
REMARK VINA RESULT:      -3.5      2.058      6.392
REMARK  Name = 26742985
REMARK  8 active torsions:
REMARK  status: ('A' for Active; 'I' for Inactive)
REMARK    1  A    between atoms: C_7  and  C_11
REMARK    2  A    between atoms: C_8  and  C_12
REMARK    3  A    between atoms: C_11  and  C_14
REMARK    4  A    between atoms: C_12  and  C_15
REMARK    5  A    between atoms: C_21  and  C_22
REMARK    6  A    between atoms: C_22  and  C_23
REMARK    7  A    between atoms: C_23  and  C_24
REMARK    8  A    between atoms: C_24  and  C_25
REMARK                            x       y       z     vdW  Elec       q    Type
REMARK                         _______ _______ _______ _____ _____    ______ ____
ROOT
ATOM      4  N   UNL     1      -2.198   5.659  25.442  0.00  0.00    -0.316 NA
ATOM      7  C   UNL     1      -2.025   2.894  24.429  0.00  0.00    +0.004 C 
ATOM      8  C   UNL     1      -3.345   3.513  24.946  0.00  0.00    +0.012 C 
ATOM      9  C   UNL     1      -1.090   4.021  23.962  0.00  0.00    +0.019 C 
ATOM     10  C   UNL     1      -3.085   4.625  25.975  0.00  0.00    +0.085 C 
ATOM     13  C   UNL     1      -0.912   5.108  25.022  0.00  0.00    +0.081 C 
ATOM     26  H   UNL     1      -2.043   6.371  26.154  0.00  0.00    +0.122 HD
ENDROOT
BRANCH   7  11
ATOM     11  C   UNL     1      -1.321   1.987  25.445  0.00  0.00    +0.100 C 
BRANCH  11  14
ATOM      1  O   UNL     1       0.925   2.468  26.030  0.00  0.00    -0.276 OA
ATOM      2  O   UNL     1       1.554  -0.373  22.031  0.00  0.00    -0.377 OA
ATOM      5  N   UNL     1       0.588   1.400  23.996  0.00  0.00    -0.297 N 
ATOM     14  C   UNL     1       0.165   1.978  25.190  0.00  0.00    +0.216 C 
ATOM     16  C   UNL     1       2.013   1.347  23.672  0.00  0.00    +0.136 C 
ATOM     17  C   UNL     1      -0.291   0.925  22.922  0.00  0.00    +0.136 C 
ATOM     19  C   UNL     1       2.386  -0.031  23.143  0.00  0.00    +0.179 C 
ATOM     20  C   UNL     1       0.179  -0.433  22.418  0.00  0.00    +0.179 C 
ENDBRANCH  11  14
ENDBRANCH   7  11
BRANCH   8  12
ATOM     12  C   UNL     1      -4.314   2.474  25.510  0.00  0.00    +0.064 C 
BRANCH  12  15
ATOM      3  O   UNL     1      -3.860  -0.200  23.141  0.00  0.00    -0.359 OA
ATOM      6  N   UNL     1      -3.896   1.146  23.485  0.00  0.00    -0.083 NA
ATOM     15  C   UNL     1      -4.193   1.164  24.787  0.00  0.00    +0.084 A 
ATOM     18  C   UNL     1      -4.356  -0.130  25.315  0.00  0.00    +0.071 A 
ATOM     21  C   UNL     1      -4.136  -0.949  24.239  0.00  0.00    +0.138 A 
BRANCH  21  22
ATOM     22  C   UNL     1      -4.140  -2.405  24.055  0.00  0.00    +0.077 C 
BRANCH  22  23
ATOM     23  C   UNL     1      -2.962  -3.108  24.770  0.00  0.00    +0.007 C 
BRANCH  23  24
ATOM     24  C   UNL     1      -1.605  -2.526  24.376  0.00  0.00    -0.003 C 
ATOM     25  C   UNL     1      -0.973  -1.758  25.527  0.00  0.00    +0.004 C 
ENDBRANCH  23  24
ENDBRANCH  22  23
ENDBRANCH  21  22
ENDBRANCH  12  15
ENDBRANCH   8  12
TORSDOF 7
ENDMDL
MODEL 9
REMARK VINA RESULT:      -3.5     14.604     16.789
REMARK  Name = 26742985
REMARK  8 active torsions:
REMARK  status: ('A' for Active; 'I' for Inactive)
REMARK    1  A    between atoms: C_7  and  C_11
REMARK    2  A    between atoms: C_8  and  C_12
REMARK    3  A    between atoms: C_11  and  C_14
REMARK    4  A    between atoms: C_12  and  C_15
REMARK    5  A    between atoms: C_21  and  C_22
REMARK    6  A    between atoms: C_22  and  C_23
REMARK    7  A    between atoms: C_23  and  C_24
REMARK    8  A    between atoms: C_24  and  C_25
REMARK                            x       y       z     vdW  Elec       q    Type
REMARK                         _______ _______ _______ _____ _____    ______ ____
ROOT
ATOM      4  N   UNL     1      -5.208  -9.736  16.015  0.00  0.00    -0.316 NA
ATOM      7  C   UNL     1      -7.070 -10.763  13.969  0.00  0.00    +0.004 C 
ATOM      8  C   UNL     1      -5.533 -10.781  13.785  0.00  0.00    +0.012 C 
ATOM      9  C   UNL     1      -7.396 -10.747  15.472  0.00  0.00    +0.019 C 
ATOM     10  C   UNL     1      -4.852  -9.667  14.598  0.00  0.00    +0.085 C 
ATOM     13  C   UNL     1      -6.652  -9.640  16.218  0.00  0.00    +0.081 C 
ATOM     26  H   UNL     1      -4.746  -8.979  16.516  0.00  0.00    +0.122 HD
ENDROOT
BRANCH   7  11
ATOM     11  C   UNL     1      -7.771  -9.608  13.246  0.00  0.00    +0.100 C 
BRANCH  11  14
ATOM      1  O   UNL     1      -9.830 -10.754  12.979  0.00  0.00    -0.276 OA
ATOM      2  O   UNL     1      -9.236  -8.773   8.487  0.00  0.00    -0.377 OA
ATOM      5  N   UNL     1      -8.874  -9.875  11.054  0.00  0.00    -0.297 N 
ATOM     14  C   UNL     1      -8.920 -10.134  12.422  0.00  0.00    +0.216 C 
ATOM     16  C   UNL     1      -9.950 -10.346  10.182  0.00  0.00    +0.136 C 
ATOM     17  C   UNL     1      -7.750  -9.256  10.342  0.00  0.00    +0.136 C 
ATOM     19  C   UNL     1     -10.370  -9.248   9.217  0.00  0.00    +0.179 C 
ATOM     20  C   UNL     1      -8.260  -8.206   9.364  0.00  0.00    +0.179 C 
ENDBRANCH  11  14
ENDBRANCH   7  11
BRANCH   8  12
ATOM     12  C   UNL     1      -5.104 -10.717  12.319  0.00  0.00    +0.064 C 
BRANCH  12  15
ATOM      3  O   UNL     1      -1.550 -10.273  12.685  0.00  0.00    -0.359 OA
ATOM      6  N   UNL     1      -2.775 -10.778  13.101  0.00  0.00    -0.083 NA
ATOM     15  C   UNL     1      -3.654 -10.352  12.189  0.00  0.00    +0.084 A 
ATOM     18  C   UNL     1      -3.046  -9.579  11.184  0.00  0.00    +0.071 A 
ATOM     21  C   UNL     1      -1.724  -9.561  11.542  0.00  0.00    +0.138 A 
BRANCH  21  22
ATOM     22  C   UNL     1      -0.522  -8.952  10.960  0.00  0.00    +0.077 C 
BRANCH  22  23
ATOM     23  C   UNL     1       0.256  -8.069  11.963  0.00  0.00    +0.007 C 
BRANCH  23  24
ATOM     24  C   UNL     1       1.643  -7.683  11.452  0.00  0.00    -0.003 C 
ATOM     25  C   UNL     1       2.181  -6.457  12.172  0.00  0.00    +0.004 C 
ENDBRANCH  23  24
ENDBRANCH  22  23
ENDBRANCH  21  22
ENDBRANCH  12  15
ENDBRANCH   8  12
TORSDOF 7
ENDMDL
MODEL 10
REMARK VINA RESULT:      -2.7     14.606     17.522
REMARK  Name = 26742985
REMARK  8 active torsions:
REMARK  status: ('A' for Active; 'I' for Inactive)
REMARK    1  A    between atoms: C_7  and  C_11
REMARK    2  A    between atoms: C_8  and  C_12
REMARK    3  A    between atoms: C_11  and  C_14
REMARK    4  A    between atoms: C_12  and  C_15
REMARK    5  A    between atoms: C_21  and  C_22
REMARK    6  A    between atoms: C_22  and  C_23
REMARK    7  A    between atoms: C_23  and  C_24
REMARK    8  A    between atoms: C_24  and  C_25
REMARK                            x       y       z     vdW  Elec       q    Type
REMARK                         _______ _______ _______ _____ _____    ______ ____
ROOT
ATOM      4  N   UNL     1      -3.762  -9.270  11.918  0.00  0.00    -0.316 NA
ATOM      7  C   UNL     1      -6.597  -9.317  12.735  0.00  0.00    +0.004 C 
ATOM      8  C   UNL     1      -5.448  -9.750  13.677  0.00  0.00    +0.012 C 
ATOM      9  C   UNL     1      -6.042  -8.348  11.679  0.00  0.00    +0.019 C 
ATOM     10  C   UNL     1      -4.229 -10.259  12.889  0.00  0.00    +0.085 C 
ATOM     13  C   UNL     1      -4.810  -8.905  10.966  0.00  0.00    +0.081 C 
ATOM     26  H   UNL     1      -2.962  -9.645  11.410  0.00  0.00    +0.122 HD
ENDROOT
BRANCH   7  11
ATOM     11  C   UNL     1      -7.333 -10.486  12.071  0.00  0.00    +0.100 C 
BRANCH  11  14
ATOM      1  O   UNL     1      -9.616 -10.215  12.649  0.00  0.00    -0.276 OA
ATOM      2  O   UNL     1      -9.460  -7.967   8.247  0.00  0.00    -0.377 OA
ATOM      5  N   UNL     1      -9.014  -9.614  10.489  0.00  0.00    -0.297 N 
ATOM     14  C   UNL     1      -8.759 -10.096  11.770  0.00  0.00    +0.216 C 
ATOM     16  C   UNL     1     -10.370  -9.210  10.115  0.00  0.00    +0.136 C 
ATOM     17  C   UNL     1      -8.050  -9.580   9.384  0.00  0.00    +0.136 C 
ATOM     19  C   UNL     1     -10.341  -7.883   9.371  0.00  0.00    +0.179 C 
ATOM     20  C   UNL     1      -8.120  -8.240   8.664  0.00  0.00    +0.179 C 
ENDBRANCH  11  14
ENDBRANCH   7  11
BRANCH   8  12
ATOM     12  C   UNL     1      -5.883 -10.781  14.718  0.00  0.00    +0.064 C 
BRANCH  12  15
ATOM      3  O   UNL     1      -7.985  -9.646  17.413  0.00  0.00    -0.359 OA
ATOM      6  N   UNL     1      -6.802 -10.181  16.917  0.00  0.00    -0.083 NA
ATOM     15  C   UNL     1      -6.978 -10.245  15.594  0.00  0.00    +0.084 A 
ATOM     18  C   UNL     1      -8.242  -9.770  15.201  0.00  0.00    +0.071 A 
ATOM     21  C   UNL     1      -8.834  -9.406  16.381  0.00  0.00    +0.138 A 
BRANCH  21  22
ATOM     22  C   UNL     1     -10.141  -8.835  16.727  0.00  0.00    +0.077 C 
BRANCH  22  23
ATOM     23  C   UNL     1     -10.081  -7.316  17.014  0.00  0.00    +0.007 C 
BRANCH  23  24
ATOM     24  C   UNL     1     -10.578  -6.477  15.838  0.00  0.00    -0.003 C 
ATOM     25  C   UNL     1     -10.703  -7.310  14.572  0.00  0.00    +0.004 C 
ENDBRANCH  23  24
ENDBRANCH  22  23
ENDBRANCH  21  22
ENDBRANCH  12  15
ENDBRANCH   8  12
TORSDOF 7
ENDMDL
