MODEL 1
REMARK VINA RESULT:       1.2      0.000      0.000
REMARK  Name = 11911940
REMARK  6 active torsions:
REMARK  status: ('A' for Active; 'I' for Inactive)
REMARK    1  A    between atoms: N_4  and  C_10
REMARK    2  A    between atoms: N_5  and  C_11
REMARK    3  A    between atoms: C_14  and  C_17
REMARK    4  A    between atoms: C_17  and  C_21
REMARK    5  A    between atoms: C_23  and  C_24
REMARK    6  A    between atoms: C_29  and  C_30
REMARK                            x       y       z     vdW  Elec       q    Type
REMARK                         _______ _______ _______ _____ _____    ______ ____
ROOT
ATOM      1  O   UNL     1      -3.488  -1.089  23.083  0.00  0.00    -0.370 OA
ATOM      2  O   UNL     1      -2.167  -1.966  25.799  0.00  0.00    -0.370 OA
ATOM      8  C   UNL     1      -2.529  -0.695  25.230  0.00  0.00    +0.175 C 
ATOM      9  C   UNL     1      -2.250  -0.774  23.742  0.00  0.00    +0.171 C 
ATOM     10  C   UNL     1      -4.029  -0.494  25.332  0.00  0.00    +0.166 C 
ATOM     11  C   UNL     1      -1.277  -1.923  23.604  0.00  0.00    +0.130 C 
ATOM     12  C   UNL     1      -4.548  -1.132  24.048  0.00  0.00    +0.190 C 
ATOM     13  C   UNL     1      -1.673  -2.824  24.760  0.00  0.00    +0.185 C 
ENDROOT
BRANCH  10   4
ATOM      4  N   UNL     1      -4.396   0.913  25.518  0.00  0.00    -0.244 N 
ATOM      6  N   UNL     1      -5.680   1.268  25.688  0.00  0.00    -0.065 NA
ATOM      7  N   UNL     1      -5.708   2.589  25.824  0.00  0.00    -0.134 NA
ATOM     20  C   UNL     1      -3.569   1.992  25.540  0.00  0.00    +0.134 A 
ATOM     21  C   UNL     1      -4.429   3.022  25.734  0.00  0.00    +0.083 A 
BRANCH  21  17
ATOM     17  C   UNL     1      -4.115   4.480  25.848  0.00  0.00    +0.062 C 
BRANCH  17  14
ATOM     14  C   UNL     1      -2.612   4.753  25.810  0.00  0.00    -0.005 C 
ATOM     15  C   UNL     1      -1.820   3.442  25.891  0.00  0.00    +0.004 C 
ATOM     16  C   UNL     1      -2.237   5.542  24.547  0.00  0.00    +0.004 C 
ATOM     18  C   UNL     1      -0.316   3.685  25.800  0.00  0.00    +0.000 C 
ATOM     19  C   UNL     1      -0.732   5.781  24.458  0.00  0.00    +0.000 C 
ATOM     22  C   UNL     1       0.052   4.475  24.548  0.00  0.00    +0.000 C 
ENDBRANCH  17  14
ENDBRANCH  21  17
ENDBRANCH  10   4
BRANCH  11   5
ATOM      3  O   UNL     1       0.268  -0.521  21.632  0.00  0.00    -0.270 OA
ATOM      5  N   UNL     1       0.087  -1.472  23.739  0.00  0.00    -0.304 N 
ATOM     23  C   UNL     1       0.753  -0.798  22.725  0.00  0.00    +0.244 C 
ATOM     31  H   UNL     1       0.587  -1.767  24.571  0.00  0.00    +0.149 HD
BRANCH  23  24
ATOM     24  C   UNL     1       2.162  -0.423  23.011  0.00  0.00    +0.037 A 
ATOM     25  C   UNL     1       3.005  -1.365  23.561  0.00  0.00    +0.013 A 
ATOM     26  C   UNL     1       2.583   0.857  22.714  0.00  0.00    +0.013 A 
ATOM     27  C   UNL     1       4.328  -1.012  23.827  0.00  0.00    +0.004 A 
ATOM     28  C   UNL     1       3.906   1.210  22.980  0.00  0.00    +0.004 A 
ATOM     29  C   UNL     1       4.778   0.275  23.536  0.00  0.00    -0.050 A 
ATOM     30  C   UNL     1       6.193   0.652  23.822  0.00  0.00    +0.044 C 
ENDBRANCH  23  24
ENDBRANCH  11   5
TORSDOF 5
ENDMDL
MODEL 2
REMARK VINA RESULT:       5.1      2.246      4.941
REMARK  Name = 11911940
REMARK  6 active torsions:
REMARK  status: ('A' for Active; 'I' for Inactive)
REMARK    1  A    between atoms: N_4  and  C_10
REMARK    2  A    between atoms: N_5  and  C_11
REMARK    3  A    between atoms: C_14  and  C_17
REMARK    4  A    between atoms: C_17  and  C_21
REMARK    5  A    between atoms: C_23  and  C_24
REMARK    6  A    between atoms: C_29  and  C_30
REMARK                            x       y       z     vdW  Elec       q    Type
REMARK                         _______ _______ _______ _____ _____    ______ ____
ROOT
ATOM      1  O   UNL     1      -2.457   3.824  26.901  0.00  0.00    -0.370 OA
ATOM      2  O   UNL     1      -2.064   4.834  23.949  0.00  0.00    -0.370 OA
ATOM      8  C   UNL     1      -2.566   3.617  24.529  0.00  0.00    +0.175 C 
ATOM      9  C   UNL     1      -1.733   3.331  25.763  0.00  0.00    +0.171 C 
ATOM     10  C   UNL     1      -3.971   3.838  25.055  0.00  0.00    +0.166 C 
ATOM     11  C   UNL     1      -0.470   4.136  25.556  0.00  0.00    +0.130 C 
ATOM     12  C   UNL     1      -3.731   4.329  26.478  0.00  0.00    +0.190 C 
ATOM     13  C   UNL     1      -0.967   5.315  24.739  0.00  0.00    +0.185 C 
ENDROOT
BRANCH  10   4
ATOM      4  N   UNL     1      -4.808   2.640  24.945  0.00  0.00    -0.244 N 
ATOM      6  N   UNL     1      -6.121   2.695  25.219  0.00  0.00    -0.065 NA
ATOM      7  N   UNL     1      -6.612   1.473  25.041  0.00  0.00    -0.134 NA
ATOM     20  C   UNL     1      -4.422   1.386  24.585  0.00  0.00    +0.134 A 
ATOM     21  C   UNL     1      -5.581   0.686  24.657  0.00  0.00    +0.083 A 
BRANCH  21  17
ATOM     17  C   UNL     1      -5.803  -0.766  24.373  0.00  0.00    +0.062 C 
BRANCH  17  14
ATOM     14  C   UNL     1      -4.599  -1.622  24.761  0.00  0.00    -0.005 C 
ATOM     15  C   UNL     1      -3.986  -2.290  23.523  0.00  0.00    +0.004 C 
ATOM     16  C   UNL     1      -3.552  -0.780  25.503  0.00  0.00    +0.004 C 
ATOM     18  C   UNL     1      -2.748  -3.108  23.879  0.00  0.00    +0.000 C 
ATOM     19  C   UNL     1      -2.314  -1.600  25.855  0.00  0.00    +0.000 C 
ATOM     22  C   UNL     1      -1.713  -2.269  24.623  0.00  0.00    +0.000 C 
ENDBRANCH  17  14
ENDBRANCH  21  17
ENDBRANCH  10   4
BRANCH  11   5
ATOM      3  O   UNL     1      -0.679   1.397  24.722  0.00  0.00    -0.270 OA
ATOM      5  N   UNL     1       0.520   3.379  24.829  0.00  0.00    -0.304 N 
ATOM     23  C   UNL     1       0.327   2.053  24.468  0.00  0.00    +0.244 C 
ATOM     31  H   UNL     1       1.422   3.821  24.687  0.00  0.00    +0.149 HD
BRANCH  23  24
ATOM     24  C   UNL     1       1.452   1.406  23.744  0.00  0.00    +0.037 A 
ATOM     25  C   UNL     1       2.610   2.125  23.531  0.00  0.00    +0.013 A 
ATOM     26  C   UNL     1       1.303   0.105  23.310  0.00  0.00    +0.013 A 
ATOM     27  C   UNL     1       3.666   1.516  22.854  0.00  0.00    +0.004 A 
ATOM     28  C   UNL     1       2.360  -0.504  22.632  0.00  0.00    +0.004 A 
ATOM     29  C   UNL     1       3.541   0.202  22.405  0.00  0.00    -0.050 A 
ATOM     30  C   UNL     1       4.670  -0.448  21.679  0.00  0.00    +0.044 C 
ENDBRANCH  23  24
ENDBRANCH  11   5
TORSDOF 5
ENDMDL
