MODEL 1
REMARK VINA RESULT:      -4.2      0.000      0.000
REMARK  Name = 38027134
REMARK  15 active torsions:
REMARK  status: ('A' for Active; 'I' for Inactive)
REMARK    1  A    between atoms: S_1  and  N_5
REMARK    2  A    between atoms: S_1  and  C_20
REMARK    3  A    between atoms: N_5  and  C_14
REMARK    4  A    between atoms: N_6  and  C_21
REMARK    5  A    between atoms: N_6  and  C_23
REMARK    6  A    between atoms: C_7  and  C_11
REMARK    7  A    between atoms: C_8  and  C_14
REMARK    8  A    between atoms: C_10  and  C_15
REMARK    9  A    between atoms: C_11  and  C_16
REMARK   10  A    between atoms: C_11  and  C_17
REMARK   11  A    between atoms: C_12  and  C_18
REMARK   12  A    between atoms: C_15  and  C_19
REMARK   13  A    between atoms: C_20  and  C_22
REMARK   14  A    between atoms: C_21  and  C_24
REMARK   15  A    between atoms: C_22  and  C_25
REMARK                            x       y       z     vdW  Elec       q    Type
REMARK                         _______ _______ _______ _____ _____    ______ ____
ROOT
ATOM      7  C   UNL     1      -0.927   0.432  24.600  0.00  0.00    +0.000 C 
ATOM      8  C   UNL     1      -0.171  -0.919  24.605  0.00  0.00    +0.030 C 
ATOM      9  C   UNL     1      -2.131   0.376  25.553  0.00  0.00    +0.012 C 
ATOM     10  C   UNL     1      -3.122  -0.740  25.175  0.00  0.00    +0.023 C 
ATOM     12  C   UNL     1      -2.416  -2.051  24.900  0.00  0.00    -0.073 C 
ATOM     13  C   UNL     1      -1.093  -2.113  24.661  0.00  0.00    -0.023 C 
ATOM     18  C   UNL     1      -3.256  -3.297  24.950  0.00  0.00    +0.039 C 
ENDROOT
BRANCH   7  11
ATOM     11  C   UNL     1      -0.013   1.599  24.989  0.00  0.00    -0.013 C 
ATOM     16  C   UNL     1      -0.239   2.785  24.059  0.00  0.00    +0.007 C 
ATOM     17  C   UNL     1      -0.246   1.997  26.443  0.00  0.00    +0.007 C 
ENDBRANCH   7  11
BRANCH   8  14
ATOM     14  C   UNL     1       0.751  -1.042  23.386  0.00  0.00    +0.113 C 
BRANCH  14   5
ATOM      5  N   UNL     1       1.345   0.273  23.099  0.00  0.00    -0.194 NA
ATOM     31  H   UNL     1       0.699   0.930  22.643  0.00  0.00    +0.148 HD
BRANCH   5   1
ATOM      1  S   UNL     1       2.970   0.360  22.580  0.00  0.00    +0.029 S 
ATOM      3  O   UNL     1       3.575   1.586  23.066  0.00  0.00    -0.158 OA
ATOM      4  O   UNL     1       3.026   0.014  21.173  0.00  0.00    -0.158 OA
BRANCH   1  20
ATOM     20  C   UNL     1       3.676  -0.995  23.489  0.00  0.00    +0.185 C 
BRANCH  20  22
ATOM     22  C   UNL     1       4.981  -0.595  24.157  0.00  0.00    +0.021 C 
ATOM     25  C   UNL     1       6.049  -0.253  23.131  0.00  0.00    +0.005 C 
ENDBRANCH  20  22
ENDBRANCH   1  20
ENDBRANCH   5   1
ENDBRANCH  14   5
ENDBRANCH   8  14
BRANCH  10  15
ATOM     15  C   UNL     1      -3.992  -0.325  23.982  0.00  0.00    +0.103 C 
BRANCH  15  19
ATOM      2  O   UNL     1      -3.446   1.818  23.055  0.00  0.00    -0.276 OA
ATOM      6  N   UNL     1      -5.054   1.780  24.726  0.00  0.00    -0.300 N 
ATOM     19  C   UNL     1      -4.126   1.183  23.865  0.00  0.00    +0.216 C 
ATOM     23  C   UNL     1      -5.847   1.008  25.675  0.00  0.00    +0.132 C 
BRANCH   6  21
ATOM     21  C   UNL     1      -5.299   3.219  24.735  0.00  0.00    +0.142 C 
BRANCH  21  24
ATOM     24  C   UNL     1      -4.034   4.005  24.923  0.00  0.00    -0.030 A 
ATOM     26  C   UNL     1      -3.317   3.898  26.115  0.00  0.00    +0.005 A 
ATOM     27  C   UNL     1      -3.574   4.841  23.906  0.00  0.00    +0.005 A 
ATOM     28  C   UNL     1      -2.141   4.628  26.290  0.00  0.00    +0.000 A 
ATOM     29  C   UNL     1      -2.398   5.571  24.080  0.00  0.00    +0.000 A 
ATOM     30  C   UNL     1      -1.682   5.464  25.273  0.00  0.00    +0.000 A 
ENDBRANCH  21  24
ENDBRANCH   6  21
ENDBRANCH  15  19
ENDBRANCH  10  15
TORSDOF 10
ENDMDL
MODEL 2
REMARK VINA RESULT:      -3.1      1.415      3.158
REMARK  Name = 38027134
REMARK  15 active torsions:
REMARK  status: ('A' for Active; 'I' for Inactive)
REMARK    1  A    between atoms: S_1  and  N_5
REMARK    2  A    between atoms: S_1  and  C_20
REMARK    3  A    between atoms: N_5  and  C_14
REMARK    4  A    between atoms: N_6  and  C_21
REMARK    5  A    between atoms: N_6  and  C_23
REMARK    6  A    between atoms: C_7  and  C_11
REMARK    7  A    between atoms: C_8  and  C_14
REMARK    8  A    between atoms: C_10  and  C_15
REMARK    9  A    between atoms: C_11  and  C_16
REMARK   10  A    between atoms: C_11  and  C_17
REMARK   11  A    between atoms: C_12  and  C_18
REMARK   12  A    between atoms: C_15  and  C_19
REMARK   13  A    between atoms: C_20  and  C_22
REMARK   14  A    between atoms: C_21  and  C_24
REMARK   15  A    between atoms: C_22  and  C_25
REMARK                            x       y       z     vdW  Elec       q    Type
REMARK                         _______ _______ _______ _____ _____    ______ ____
ROOT
ATOM      7  C   UNL     1      -2.714  -1.091  24.578  0.00  0.00    +0.000 C 
ATOM      8  C   UNL     1      -1.605  -0.345  23.796  0.00  0.00    +0.030 C 
ATOM      9  C   UNL     1      -4.061  -0.966  23.850  0.00  0.00    +0.012 C 
ATOM     10  C   UNL     1      -4.493   0.502  23.672  0.00  0.00    +0.023 C 
ATOM     12  C   UNL     1      -3.360   1.363  23.153  0.00  0.00    -0.073 C 
ATOM     13  C   UNL     1      -2.076   0.962  23.204  0.00  0.00    -0.023 C 
ATOM     18  C   UNL     1      -3.739   2.679  22.530  0.00  0.00    +0.039 C 
ENDROOT
BRANCH   7  11
ATOM     11  C   UNL     1      -2.371  -2.571  24.780  0.00  0.00    -0.013 C 
ATOM     16  C   UNL     1      -3.644  -3.399  24.910  0.00  0.00    +0.007 C 
ATOM     17  C   UNL     1      -1.509  -3.080  23.628  0.00  0.00    +0.007 C 
ENDBRANCH   7  11
BRANCH   8  14
ATOM     14  C   UNL     1      -0.379  -0.092  24.680  0.00  0.00    +0.113 C 
BRANCH  14   5
ATOM      5  N   UNL     1       0.794  -0.738  24.070  0.00  0.00    -0.194 NA
ATOM     31  H   UNL     1       1.317  -1.344  24.716  0.00  0.00    +0.148 HD
BRANCH   5   1
ATOM      1  S   UNL     1       1.744   0.139  22.953  0.00  0.00    +0.029 S 
ATOM      3  O   UNL     1       1.840   1.524  23.373  0.00  0.00    -0.158 OA
ATOM      4  O   UNL     1       1.312  -0.201  21.612  0.00  0.00    -0.158 OA
BRANCH   1  20
ATOM     20  C   UNL     1       3.331  -0.621  23.209  0.00  0.00    +0.185 C 
BRANCH  20  22
ATOM     22  C   UNL     1       4.454   0.399  23.121  0.00  0.00    +0.021 C 
ATOM     25  C   UNL     1       5.651  -0.018  23.959  0.00  0.00    +0.005 C 
ENDBRANCH  20  22
ENDBRANCH   1  20
ENDBRANCH   5   1
ENDBRANCH  14   5
ENDBRANCH   8  14
BRANCH  10  15
ATOM     15  C   UNL     1      -5.061   1.072  24.977  0.00  0.00    +0.103 C 
BRANCH  15  19
ATOM      2  O   UNL     1      -2.997   1.460  26.132  0.00  0.00    -0.276 OA
ATOM      6  N   UNL     1      -4.411   3.280  25.876  0.00  0.00    -0.300 N 
ATOM     19  C   UNL     1      -4.054   1.937  25.713  0.00  0.00    +0.216 C 
ATOM     23  C   UNL     1      -5.668   3.821  25.372  0.00  0.00    +0.132 C 
BRANCH   6  21
ATOM     21  C   UNL     1      -3.551   4.241  26.562  0.00  0.00    +0.142 C 
BRANCH  21  24
ATOM     24  C   UNL     1      -2.239   4.425  25.857  0.00  0.00    -0.030 A 
ATOM     26  C   UNL     1      -1.973   5.614  25.178  0.00  0.00    +0.005 A 
ATOM     27  C   UNL     1      -1.285   3.407  25.882  0.00  0.00    +0.005 A 
ATOM     28  C   UNL     1      -0.753   5.785  24.523  0.00  0.00    +0.000 A 
ATOM     29  C   UNL     1      -0.065   3.579  25.228  0.00  0.00    +0.000 A 
ATOM     30  C   UNL     1       0.201   4.768  24.548  0.00  0.00    +0.000 A 
ENDBRANCH  21  24
ENDBRANCH   6  21
ENDBRANCH  15  19
ENDBRANCH  10  15
TORSDOF 10
ENDMDL
MODEL 3
REMARK VINA RESULT:      -3.1      2.206      7.404
REMARK  Name = 38027134
REMARK  15 active torsions:
REMARK  status: ('A' for Active; 'I' for Inactive)
REMARK    1  A    between atoms: S_1  and  N_5
REMARK    2  A    between atoms: S_1  and  C_20
REMARK    3  A    between atoms: N_5  and  C_14
REMARK    4  A    between atoms: N_6  and  C_21
REMARK    5  A    between atoms: N_6  and  C_23
REMARK    6  A    between atoms: C_7  and  C_11
REMARK    7  A    between atoms: C_8  and  C_14
REMARK    8  A    between atoms: C_10  and  C_15
REMARK    9  A    between atoms: C_11  and  C_16
REMARK   10  A    between atoms: C_11  and  C_17
REMARK   11  A    between atoms: C_12  and  C_18
REMARK   12  A    between atoms: C_15  and  C_19
REMARK   13  A    between atoms: C_20  and  C_22
REMARK   14  A    between atoms: C_21  and  C_24
REMARK   15  A    between atoms: C_22  and  C_25
REMARK                            x       y       z     vdW  Elec       q    Type
REMARK                         _______ _______ _______ _____ _____    ______ ____
ROOT
ATOM      7  C   UNL     1      -2.953  -1.060  24.557  0.00  0.00    +0.000 C 
ATOM      8  C   UNL     1      -3.451  -0.085  25.653  0.00  0.00    +0.030 C 
ATOM      9  C   UNL     1      -1.471  -1.399  24.775  0.00  0.00    +0.012 C 
ATOM     10  C   UNL     1      -0.577  -0.145  24.755  0.00  0.00    +0.023 C 
ATOM     12  C   UNL     1      -1.149   0.967  25.610  0.00  0.00    -0.073 C 
ATOM     13  C   UNL     1      -2.432   0.970  26.013  0.00  0.00    -0.023 C 
ATOM     18  C   UNL     1      -0.200   2.056  26.029  0.00  0.00    +0.039 C 
ENDROOT
BRANCH   7  11
ATOM     11  C   UNL     1      -3.780  -2.350  24.524  0.00  0.00    -0.013 C 
ATOM     16  C   UNL     1      -4.686  -2.370  23.299  0.00  0.00    +0.007 C 
ATOM     17  C   UNL     1      -2.864  -3.571  24.541  0.00  0.00    +0.007 C 
ENDBRANCH   7  11
BRANCH   8  14
ATOM     14  C   UNL     1      -4.763   0.591  25.237  0.00  0.00    +0.113 C 
BRANCH  14   5
ATOM      5  N   UNL     1      -4.914   1.847  25.988  0.00  0.00    -0.194 NA
ATOM     31  H   UNL     1      -5.594   1.791  26.758  0.00  0.00    +0.148 HD
BRANCH   5   1
ATOM      1  S   UNL     1      -4.878   3.333  25.146  0.00  0.00    +0.029 S 
ATOM      3  O   UNL     1      -5.982   4.168  25.578  0.00  0.00    -0.158 OA
ATOM      4  O   UNL     1      -4.660   3.062  23.738  0.00  0.00    -0.158 OA
BRANCH   1  20
ATOM     20  C   UNL     1      -3.377   4.035  25.789  0.00  0.00    +0.185 C 
BRANCH  20  22
ATOM     22  C   UNL     1      -2.380   4.326  24.680  0.00  0.00    +0.021 C 
ATOM     25  C   UNL     1      -1.365   5.374  25.104  0.00  0.00    +0.005 C 
ENDBRANCH  20  22
ENDBRANCH   1  20
ENDBRANCH   5   1
ENDBRANCH  14   5
ENDBRANCH   8  14
BRANCH  10  15
ATOM     15  C   UNL     1      -0.332   0.336  23.320  0.00  0.00    +0.103 C 
BRANCH  15  19
ATOM      2  O   UNL     1       1.652   1.586  23.817  0.00  0.00    -0.276 OA
ATOM      6  N   UNL     1       1.758   0.125  22.018  0.00  0.00    -0.300 N 
ATOM     19  C   UNL     1       1.110   0.749  23.090  0.00  0.00    +0.216 C 
ATOM     23  C   UNL     1       1.096  -0.861  21.173  0.00  0.00    +0.132 C 
BRANCH   6  21
ATOM     21  C   UNL     1       3.146   0.414  21.667  0.00  0.00    +0.142 C 
BRANCH  21  24
ATOM     24  C   UNL     1       4.100  -0.020  22.742  0.00  0.00    -0.030 A 
ATOM     26  C   UNL     1       4.059  -1.328  23.225  0.00  0.00    +0.005 A 
ATOM     27  C   UNL     1       5.030   0.884  23.256  0.00  0.00    +0.005 A 
ATOM     28  C   UNL     1       4.946  -1.731  24.223  0.00  0.00    +0.000 A 
ATOM     29  C   UNL     1       5.918   0.480  24.253  0.00  0.00    +0.000 A 
ATOM     30  C   UNL     1       5.875  -0.828  24.736  0.00  0.00    +0.000 A 
ENDBRANCH  21  24
ENDBRANCH   6  21
ENDBRANCH  15  19
ENDBRANCH  10  15
TORSDOF 10
ENDMDL
MODEL 4
REMARK VINA RESULT:      -2.8     17.322     19.703
REMARK  Name = 38027134
REMARK  15 active torsions:
REMARK  status: ('A' for Active; 'I' for Inactive)
REMARK    1  A    between atoms: S_1  and  N_5
REMARK    2  A    between atoms: S_1  and  C_20
REMARK    3  A    between atoms: N_5  and  C_14
REMARK    4  A    between atoms: N_6  and  C_21
REMARK    5  A    between atoms: N_6  and  C_23
REMARK    6  A    between atoms: C_7  and  C_11
REMARK    7  A    between atoms: C_8  and  C_14
REMARK    8  A    between atoms: C_10  and  C_15
REMARK    9  A    between atoms: C_11  and  C_16
REMARK   10  A    between atoms: C_11  and  C_17
REMARK   11  A    between atoms: C_12  and  C_18
REMARK   12  A    between atoms: C_15  and  C_19
REMARK   13  A    between atoms: C_20  and  C_22
REMARK   14  A    between atoms: C_21  and  C_24
REMARK   15  A    between atoms: C_22  and  C_25
REMARK                            x       y       z     vdW  Elec       q    Type
REMARK                         _______ _______ _______ _____ _____    ______ ____
ROOT
ATOM      7  C   UNL     1      15.565  -9.073  27.165  0.00  0.00    +0.000 C 
ATOM      8  C   UNL     1      15.274  -9.408  28.649  0.00  0.00    +0.030 C 
ATOM      9  C   UNL     1      17.012  -8.587  26.999  0.00  0.00    +0.012 C 
ATOM     10  C   UNL     1      17.309  -7.338  27.849  0.00  0.00    +0.023 C 
ATOM     12  C   UNL     1      16.806  -7.491  29.270  0.00  0.00    -0.073 C 
ATOM     13  C   UNL     1      15.906  -8.431  29.611  0.00  0.00    -0.023 C 
ATOM     18  C   UNL     1      17.394  -6.567  30.300  0.00  0.00    +0.039 C 
ENDROOT
BRANCH   7  11
ATOM     11  C   UNL     1      15.314 -10.276  26.250  0.00  0.00    -0.013 C 
ATOM     16  C   UNL     1      14.097 -10.027  25.366  0.00  0.00    +0.007 C 
ATOM     17  C   UNL     1      16.549 -10.568  25.403  0.00  0.00    +0.007 C 
ENDBRANCH   7  11
BRANCH   8  14
ATOM     14  C   UNL     1      13.766  -9.483  28.914  0.00  0.00    +0.113 C 
BRANCH  14   5
ATOM      5  N   UNL     1      13.527 -10.330  30.093  0.00  0.00    -0.194 NA
ATOM     31  H   UNL     1      13.231 -11.289  29.863  0.00  0.00    +0.148 HD
BRANCH   5   1
ATOM      1  S   UNL     1      12.796  -9.648  31.479  0.00  0.00    +0.029 S 
ATOM      3  O   UNL     1      13.736  -9.658  32.583  0.00  0.00    -0.158 OA
ATOM      4  O   UNL     1      11.470 -10.215  31.629  0.00  0.00    -0.158 OA
BRANCH   1  20
ATOM     20  C   UNL     1      12.597  -7.964  30.945  0.00  0.00    +0.185 C 
BRANCH  20  22
ATOM     22  C   UNL     1      13.374  -7.006  31.832  0.00  0.00    +0.021 C 
ATOM     25  C   UNL     1      12.527  -5.811  32.236  0.00  0.00    +0.005 C 
ENDBRANCH  20  22
ENDBRANCH   1  20
ENDBRANCH   5   1
ENDBRANCH  14   5
ENDBRANCH   8  14
BRANCH  10  15
ATOM     15  C   UNL     1      16.733  -6.076  27.196  0.00  0.00    +0.103 C 
BRANCH  15  19
ATOM      2  O   UNL     1      16.855  -7.119  25.040  0.00  0.00    -0.276 OA
ATOM      6  N   UNL     1      17.170  -4.823  25.111  0.00  0.00    -0.300 N 
ATOM     19  C   UNL     1      16.921  -6.072  25.689  0.00  0.00    +0.216 C 
ATOM     23  C   UNL     1      17.243  -3.598  25.899  0.00  0.00    +0.132 C 
BRANCH   6  21
ATOM     21  C   UNL     1      17.372  -4.651  23.675  0.00  0.00    +0.142 C 
BRANCH  21  24
ATOM     24  C   UNL     1      16.676  -3.428  23.151  0.00  0.00    -0.030 A 
ATOM     26  C   UNL     1      17.405  -2.266  22.898  0.00  0.00    +0.005 A 
ATOM     27  C   UNL     1      15.302  -3.454  22.915  0.00  0.00    +0.005 A 
ATOM     28  C   UNL     1      16.759  -1.130  22.410  0.00  0.00    +0.000 A 
ATOM     29  C   UNL     1      14.656  -2.319  22.426  0.00  0.00    +0.000 A 
ATOM     30  C   UNL     1      15.385  -1.156  22.175  0.00  0.00    +0.000 A 
ENDBRANCH  21  24
ENDBRANCH   6  21
ENDBRANCH  15  19
ENDBRANCH  10  15
TORSDOF 10
ENDMDL
MODEL 5
REMARK VINA RESULT:      -1.8      2.479      6.786
REMARK  Name = 38027134
REMARK  15 active torsions:
REMARK  status: ('A' for Active; 'I' for Inactive)
REMARK    1  A    between atoms: S_1  and  N_5
REMARK    2  A    between atoms: S_1  and  C_20
REMARK    3  A    between atoms: N_5  and  C_14
REMARK    4  A    between atoms: N_6  and  C_21
REMARK    5  A    between atoms: N_6  and  C_23
REMARK    6  A    between atoms: C_7  and  C_11
REMARK    7  A    between atoms: C_8  and  C_14
REMARK    8  A    between atoms: C_10  and  C_15
REMARK    9  A    between atoms: C_11  and  C_16
REMARK   10  A    between atoms: C_11  and  C_17
REMARK   11  A    between atoms: C_12  and  C_18
REMARK   12  A    between atoms: C_15  and  C_19
REMARK   13  A    between atoms: C_20  and  C_22
REMARK   14  A    between atoms: C_21  and  C_24
REMARK   15  A    between atoms: C_22  and  C_25
REMARK                            x       y       z     vdW  Elec       q    Type
REMARK                         _______ _______ _______ _____ _____    ______ ____
ROOT
ATOM      7  C   UNL     1      -3.367   1.557  23.638  0.00  0.00    +0.000 C 
ATOM      8  C   UNL     1      -4.647   1.116  24.392  0.00  0.00    +0.030 C 
ATOM      9  C   UNL     1      -2.522   0.333  23.257  0.00  0.00    +0.012 C 
ATOM     10  C   UNL     1      -2.103  -0.493  24.488  0.00  0.00    +0.023 C 
ATOM     12  C   UNL     1      -3.269  -0.741  25.422  0.00  0.00    -0.073 C 
ATOM     13  C   UNL     1      -4.403  -0.021  25.356  0.00  0.00    -0.023 C 
ATOM     18  C   UNL     1      -3.120  -1.867  26.408  0.00  0.00    +0.039 C 
ENDROOT
BRANCH   7  11
ATOM     11  C   UNL     1      -3.698   2.370  22.382  0.00  0.00    -0.013 C 
ATOM     16  C   UNL     1      -4.009   3.816  22.750  0.00  0.00    +0.007 C 
ATOM     17  C   UNL     1      -2.546   2.300  21.384  0.00  0.00    +0.007 C 
ENDBRANCH   7  11
BRANCH   8  14
ATOM     14  C   UNL     1      -5.281   2.294  25.141  0.00  0.00    +0.113 C 
BRANCH  14   5
ATOM      5  N   UNL     1      -4.483   2.586  26.342  0.00  0.00    -0.194 NA
ATOM     31  H   UNL     1      -4.896   2.224  27.212  0.00  0.00    +0.148 HD
BRANCH   5   1
ATOM      1  S   UNL     1      -3.694   4.095  26.474  0.00  0.00    +0.029 S 
ATOM      3  O   UNL     1      -3.519   4.435  27.873  0.00  0.00    -0.158 OA
ATOM      4  O   UNL     1      -4.320   5.027  25.558  0.00  0.00    -0.158 OA
BRANCH   1  20
ATOM     20  C   UNL     1      -2.097   3.686  25.808  0.00  0.00    +0.185 C 
BRANCH  20  22
ATOM     22  C   UNL     1      -1.377   4.922  25.295  0.00  0.00    +0.021 C 
ATOM     25  C   UNL     1      -0.618   4.630  24.011  0.00  0.00    +0.005 C 
ENDBRANCH  20  22
ENDBRANCH   1  20
ENDBRANCH   5   1
ENDBRANCH  14   5
ENDBRANCH   8  14
BRANCH  10  15
ATOM     15  C   UNL     1      -0.938   0.174  25.229  0.00  0.00    +0.103 C 
BRANCH  15  19
ATOM      2  O   UNL     1       0.507   1.861  24.328  0.00  0.00    -0.276 OA
ATOM      6  N   UNL     1       0.634  -0.246  23.369  0.00  0.00    -0.300 N 
ATOM     19  C   UNL     1       0.129   0.688  24.279  0.00  0.00    +0.216 C 
ATOM     23  C   UNL     1       0.172  -1.629  23.331  0.00  0.00    +0.132 C 
BRANCH   6  21
ATOM     21  C   UNL     1       1.664   0.092  22.391  0.00  0.00    +0.142 C 
BRANCH  21  24
ATOM     24  C   UNL     1       3.048  -0.091  22.944  0.00  0.00    -0.030 A 
ATOM     26  C   UNL     1       3.954   0.969  22.921  0.00  0.00    +0.005 A 
ATOM     27  C   UNL     1       3.427  -1.321  23.483  0.00  0.00    +0.005 A 
ATOM     28  C   UNL     1       5.240   0.799  23.435  0.00  0.00    +0.000 A 
ATOM     29  C   UNL     1       4.713  -1.490  23.998  0.00  0.00    +0.000 A 
ATOM     30  C   UNL     1       5.619  -0.430  23.973  0.00  0.00    +0.000 A 
ENDBRANCH  21  24
ENDBRANCH   6  21
ENDBRANCH  15  19
ENDBRANCH  10  15
TORSDOF 10
ENDMDL
MODEL 6
REMARK VINA RESULT:      -1.5      2.566      7.390
REMARK  Name = 38027134
REMARK  15 active torsions:
REMARK  status: ('A' for Active; 'I' for Inactive)
REMARK    1  A    between atoms: S_1  and  N_5
REMARK    2  A    between atoms: S_1  and  C_20
REMARK    3  A    between atoms: N_5  and  C_14
REMARK    4  A    between atoms: N_6  and  C_21
REMARK    5  A    between atoms: N_6  and  C_23
REMARK    6  A    between atoms: C_7  and  C_11
REMARK    7  A    between atoms: C_8  and  C_14
REMARK    8  A    between atoms: C_10  and  C_15
REMARK    9  A    between atoms: C_11  and  C_16
REMARK   10  A    between atoms: C_11  and  C_17
REMARK   11  A    between atoms: C_12  and  C_18
REMARK   12  A    between atoms: C_15  and  C_19
REMARK   13  A    between atoms: C_20  and  C_22
REMARK   14  A    between atoms: C_21  and  C_24
REMARK   15  A    between atoms: C_22  and  C_25
REMARK                            x       y       z     vdW  Elec       q    Type
REMARK                         _______ _______ _______ _____ _____    ______ ____
ROOT
ATOM      7  C   UNL     1      -2.402   3.568  25.151  0.00  0.00    +0.000 C 
ATOM      8  C   UNL     1      -3.529   3.844  24.125  0.00  0.00    +0.030 C 
ATOM      9  C   UNL     1      -1.097   3.205  24.428  0.00  0.00    +0.012 C 
ATOM     10  C   UNL     1      -1.254   1.964  23.530  0.00  0.00    +0.023 C 
ATOM     12  C   UNL     1      -2.502   2.042  22.675  0.00  0.00    -0.073 C 
ATOM     13  C   UNL     1      -3.502   2.898  22.949  0.00  0.00    -0.023 C 
ATOM     18  C   UNL     1      -2.554   1.144  21.470  0.00  0.00    +0.039 C 
ENDROOT
BRANCH   7  11
ATOM     11  C   UNL     1      -2.166   4.769  26.074  0.00  0.00    -0.013 C 
ATOM     16  C   UNL     1      -2.075   6.055  25.261  0.00  0.00    +0.007 C 
ATOM     17  C   UNL     1      -3.275   4.865  27.118  0.00  0.00    +0.007 C 
ENDBRANCH   7  11
BRANCH   8  14
ATOM     14  C   UNL     1      -4.909   3.791  24.792  0.00  0.00    +0.113 C 
BRANCH  14   5
ATOM      5  N   UNL     1      -4.892   2.772  25.852  0.00  0.00    -0.194 NA
ATOM     31  H   UNL     1      -3.964   2.625  26.273  0.00  0.00    +0.148 HD
BRANCH   5   1
ATOM      1  S   UNL     1      -5.848   1.367  25.676  0.00  0.00    +0.029 S 
ATOM      3  O   UNL     1      -6.588   1.431  24.431  0.00  0.00    -0.158 OA
ATOM      4  O   UNL     1      -6.529   1.110  26.930  0.00  0.00    -0.158 OA
BRANCH   1  20
ATOM     20  C   UNL     1      -4.582   0.132  25.496  0.00  0.00    +0.185 C 
BRANCH  20  22
ATOM     22  C   UNL     1      -4.631  -0.516  24.122  0.00  0.00    +0.021 C 
ATOM     25  C   UNL     1      -3.970  -1.884  24.129  0.00  0.00    +0.005 C 
ENDBRANCH  20  22
ENDBRANCH   1  20
ENDBRANCH   5   1
ENDBRANCH  14   5
ENDBRANCH   8  14
BRANCH  10  15
ATOM     15  C   UNL     1      -1.238   0.675  24.362  0.00  0.00    +0.103 C 
BRANCH  15  19
ATOM      2  O   UNL     1      -0.722  -1.563  23.676  0.00  0.00    -0.276 OA
ATOM      6  N   UNL     1       0.905   0.048  23.304  0.00  0.00    -0.300 N 
ATOM     19  C   UNL     1      -0.345  -0.391  23.754  0.00  0.00    +0.216 C 
ATOM     23  C   UNL     1       1.328   1.439  23.407  0.00  0.00    +0.132 C 
BRANCH   6  21
ATOM     21  C   UNL     1       1.878  -0.855  22.695  0.00  0.00    +0.142 C 
BRANCH  21  24
ATOM     24  C   UNL     1       3.283  -0.538  23.119  0.00  0.00    -0.030 A 
ATOM     26  C   UNL     1       3.839   0.705  22.817  0.00  0.00    +0.005 A 
ATOM     27  C   UNL     1       4.032  -1.486  23.816  0.00  0.00    +0.005 A 
ATOM     28  C   UNL     1       5.144   0.999  23.212  0.00  0.00    +0.000 A 
ATOM     29  C   UNL     1       5.337  -1.192  24.211  0.00  0.00    +0.000 A 
ATOM     30  C   UNL     1       5.893   0.051  23.908  0.00  0.00    +0.000 A 
ENDBRANCH  21  24
ENDBRANCH   6  21
ENDBRANCH  15  19
ENDBRANCH  10  15
TORSDOF 10
ENDMDL
MODEL 7
REMARK VINA RESULT:      -1.1      1.549      4.744
REMARK  Name = 38027134
REMARK  15 active torsions:
REMARK  status: ('A' for Active; 'I' for Inactive)
REMARK    1  A    between atoms: S_1  and  N_5
REMARK    2  A    between atoms: S_1  and  C_20
REMARK    3  A    between atoms: N_5  and  C_14
REMARK    4  A    between atoms: N_6  and  C_21
REMARK    5  A    between atoms: N_6  and  C_23
REMARK    6  A    between atoms: C_7  and  C_11
REMARK    7  A    between atoms: C_8  and  C_14
REMARK    8  A    between atoms: C_10  and  C_15
REMARK    9  A    between atoms: C_11  and  C_16
REMARK   10  A    between atoms: C_11  and  C_17
REMARK   11  A    between atoms: C_12  and  C_18
REMARK   12  A    between atoms: C_15  and  C_19
REMARK   13  A    between atoms: C_20  and  C_22
REMARK   14  A    between atoms: C_21  and  C_24
REMARK   15  A    between atoms: C_22  and  C_25
REMARK                            x       y       z     vdW  Elec       q    Type
REMARK                         _______ _______ _______ _____ _____    ______ ____
ROOT
ATOM      7  C   UNL     1      -1.501   2.043  23.665  0.00  0.00    +0.000 C 
ATOM      8  C   UNL     1      -0.086   2.672  23.635  0.00  0.00    +0.030 C 
ATOM      9  C   UNL     1      -2.565   3.100  23.335  0.00  0.00    +0.012 C 
ATOM     10  C   UNL     1      -2.536   4.284  24.321  0.00  0.00    +0.023 C 
ATOM     12  C   UNL     1      -1.127   4.790  24.551  0.00  0.00    -0.073 C 
ATOM     13  C   UNL     1      -0.044   4.061  24.225  0.00  0.00    -0.023 C 
ATOM     18  C   UNL     1      -0.989   6.174  25.122  0.00  0.00    +0.039 C 
ENDROOT
BRANCH   7  11
ATOM     11  C   UNL     1      -1.622   0.866  22.691  0.00  0.00    -0.013 C 
ATOM     16  C   UNL     1      -1.208  -0.433  23.373  0.00  0.00    +0.007 C 
ATOM     17  C   UNL     1      -3.045   0.765  22.151  0.00  0.00    +0.007 C 
ENDBRANCH   7  11
BRANCH   8  14
ATOM     14  C   UNL     1       0.932   1.779  24.355  0.00  0.00    +0.113 C 
BRANCH  14   5
ATOM      5  N   UNL     1       2.113   1.609  23.496  0.00  0.00    -0.194 NA
ATOM     31  H   UNL     1       2.318   2.426  22.905  0.00  0.00    +0.148 HD
BRANCH   5   1
ATOM      1  S   UNL     1       2.412   0.089  22.777  0.00  0.00    +0.029 S 
ATOM      3  O   UNL     1       1.654  -0.029  21.547  0.00  0.00    -0.158 OA
ATOM      4  O   UNL     1       2.325  -0.933  23.802  0.00  0.00    -0.158 OA
BRANCH   1  20
ATOM     20  C   UNL     1       4.128   0.264  22.347  0.00  0.00    +0.185 C 
BRANCH  20  22
ATOM     22  C   UNL     1       4.973   0.604  23.563  0.00  0.00    +0.021 C 
ATOM     25  C   UNL     1       5.653  -0.631  24.130  0.00  0.00    +0.005 C 
ENDBRANCH  20  22
ENDBRANCH   1  20
ENDBRANCH   5   1
ENDBRANCH  14   5
ENDBRANCH   8  14
BRANCH  10  15
ATOM     15  C   UNL     1      -3.209   3.914  25.648  0.00  0.00    +0.103 C 
BRANCH  15  19
ATOM      2  O   UNL     1      -5.497   3.355  25.201  0.00  0.00    -0.276 OA
ATOM      6  N   UNL     1      -4.046   1.589  25.591  0.00  0.00    -0.300 N 
ATOM     19  C   UNL     1      -4.362   2.945  25.457  0.00  0.00    +0.216 C 
ATOM     23  C   UNL     1      -2.696   1.128  25.892  0.00  0.00    +0.132 C 
BRANCH   6  21
ATOM     21  C   UNL     1      -5.043   0.533  25.436  0.00  0.00    +0.142 C 
BRANCH  21  24
ATOM     24  C   UNL     1      -4.415  -0.792  25.114  0.00  0.00    -0.030 A 
ATOM     26  C   UNL     1      -3.569  -1.406  26.038  0.00  0.00    +0.005 A 
ATOM     27  C   UNL     1      -4.679  -1.410  23.892  0.00  0.00    +0.005 A 
ATOM     28  C   UNL     1      -2.986  -2.637  25.739  0.00  0.00    +0.000 A 
ATOM     29  C   UNL     1      -4.096  -2.642  23.593  0.00  0.00    +0.000 A 
ATOM     30  C   UNL     1      -3.250  -3.255  24.517  0.00  0.00    +0.000 A 
ENDBRANCH  21  24
ENDBRANCH   6  21
ENDBRANCH  15  19
ENDBRANCH  10  15
TORSDOF 10
ENDMDL
MODEL 8
REMARK VINA RESULT:      -0.7      2.788      5.795
REMARK  Name = 38027134
REMARK  15 active torsions:
REMARK  status: ('A' for Active; 'I' for Inactive)
REMARK    1  A    between atoms: S_1  and  N_5
REMARK    2  A    between atoms: S_1  and  C_20
REMARK    3  A    between atoms: N_5  and  C_14
REMARK    4  A    between atoms: N_6  and  C_21
REMARK    5  A    between atoms: N_6  and  C_23
REMARK    6  A    between atoms: C_7  and  C_11
REMARK    7  A    between atoms: C_8  and  C_14
REMARK    8  A    between atoms: C_10  and  C_15
REMARK    9  A    between atoms: C_11  and  C_16
REMARK   10  A    between atoms: C_11  and  C_17
REMARK   11  A    between atoms: C_12  and  C_18
REMARK   12  A    between atoms: C_15  and  C_19
REMARK   13  A    between atoms: C_20  and  C_22
REMARK   14  A    between atoms: C_21  and  C_24
REMARK   15  A    between atoms: C_22  and  C_25
REMARK                            x       y       z     vdW  Elec       q    Type
REMARK                         _______ _______ _______ _____ _____    ______ ____
ROOT
ATOM      7  C   UNL     1      -0.849   2.128  24.900  0.00  0.00    +0.000 C 
ATOM      8  C   UNL     1       0.058   3.129  25.659  0.00  0.00    +0.030 C 
ATOM      9  C   UNL     1      -1.417   2.778  23.629  0.00  0.00    +0.012 C 
ATOM     10  C   UNL     1      -2.238   4.044  23.939  0.00  0.00    +0.023 C 
ATOM     12  C   UNL     1      -1.516   4.962  24.903  0.00  0.00    -0.073 C 
ATOM     13  C   UNL     1      -0.483   4.539  25.654  0.00  0.00    -0.023 C 
ATOM     18  C   UNL     1      -1.978   6.392  24.953  0.00  0.00    +0.039 C 
ENDROOT
BRANCH   7  11
ATOM     11  C   UNL     1      -0.098   0.844  24.533  0.00  0.00    -0.013 C 
ATOM     16  C   UNL     1      -0.950  -0.027  23.618  0.00  0.00    +0.007 C 
ATOM     17  C   UNL     1       1.238   1.177  23.875  0.00  0.00    +0.007 C 
ENDBRANCH   7  11
BRANCH   8  14
ATOM     14  C   UNL     1       0.291   2.676  27.105  0.00  0.00    +0.113 C 
BRANCH  14   5
ATOM      5  N   UNL     1       1.681   2.214  27.246  0.00  0.00    -0.194 NA
ATOM     31  H   UNL     1       1.822   1.233  26.973  0.00  0.00    +0.148 HD
BRANCH   5   1
ATOM      1  S   UNL     1       2.608   2.747  28.578  0.00  0.00    +0.029 S 
ATOM      3  O   UNL     1       2.435   4.176  28.756  0.00  0.00    -0.158 OA
ATOM      4  O   UNL     1       3.933   2.168  28.481  0.00  0.00    -0.158 OA
BRANCH   1  20
ATOM     20  C   UNL     1       1.765   1.925  29.910  0.00  0.00    +0.185 C 
BRANCH  20  22
ATOM     22  C   UNL     1       0.676   2.803  30.504  0.00  0.00    +0.021 C 
ATOM     25  C   UNL     1       0.410   2.453  31.958  0.00  0.00    +0.005 C 
ENDBRANCH  20  22
ENDBRANCH   1  20
ENDBRANCH   5   1
ENDBRANCH  14   5
ENDBRANCH   8  14
BRANCH  10  15
ATOM     15  C   UNL     1      -3.632   3.682  24.466  0.00  0.00    +0.103 C 
BRANCH  15  19
ATOM      2  O   UNL     1      -3.622   1.804  22.975  0.00  0.00    -0.276 OA
ATOM      6  N   UNL     1      -5.039   1.680  24.806  0.00  0.00    -0.300 N 
ATOM     19  C   UNL     1      -4.084   2.309  24.002  0.00  0.00    +0.216 C 
ATOM     23  C   UNL     1      -5.570   2.296  26.016  0.00  0.00    +0.132 C 
BRANCH   6  21
ATOM     21  C   UNL     1      -5.574   0.357  24.497  0.00  0.00    +0.142 C 
BRANCH  21  24
ATOM     24  C   UNL     1      -4.561  -0.728  24.724  0.00  0.00    -0.030 A 
ATOM     26  C   UNL     1      -4.441  -1.773  23.808  0.00  0.00    +0.005 A 
ATOM     27  C   UNL     1      -3.740  -0.690  25.851  0.00  0.00    +0.005 A 
ATOM     28  C   UNL     1      -3.500  -2.781  24.020  0.00  0.00    +0.000 A 
ATOM     29  C   UNL     1      -2.798  -1.697  26.062  0.00  0.00    +0.000 A 
ATOM     30  C   UNL     1      -2.679  -2.743  25.146  0.00  0.00    +0.000 A 
ENDBRANCH  21  24
ENDBRANCH   6  21
ENDBRANCH  15  19
ENDBRANCH  10  15
TORSDOF 10
ENDMDL
