MODEL 1
REMARK VINA RESULT:      -3.3      0.000      0.000
REMARK  Name = 11912458
REMARK  10 active torsions:
REMARK  status: ('A' for Active; 'I' for Inactive)
REMARK    1  A    between atoms: S_1  and  N_6
REMARK    2  A    between atoms: S_1  and  C_17
REMARK    3  A    between atoms: O_5  and  C_23
REMARK    4  A    between atoms: O_5  and  C_26
REMARK    5  A    between atoms: N_7  and  C_20
REMARK    6  A    between atoms: C_8  and  C_13
REMARK    7  A    between atoms: C_9  and  C_14
REMARK    8  A    between atoms: C_13  and  C_15
REMARK    9  A    between atoms: C_14  and  C_16
REMARK   10  A    between atoms: C_20  and  C_24
REMARK                            x       y       z     vdW  Elec       q    Type
REMARK                         _______ _______ _______ _____ _____    ______ ____
ROOT
ATOM      6  N   UNL     1      -1.827   0.059  24.353  0.00  0.00    -0.176 NA
ATOM      8  C   UNL     1      -0.037   1.713  24.834  0.00  0.00    +0.008 C 
ATOM      9  C   UNL     1       0.945   0.863  23.992  0.00  0.00    +0.003 C 
ATOM     10  C   UNL     1       0.201   0.015  22.949  0.00  0.00    +0.021 C 
ATOM     11  C   UNL     1      -1.126   0.811  25.435  0.00  0.00    +0.113 C 
ATOM     12  C   UNL     1      -0.897  -0.826  23.594  0.00  0.00    +0.110 C 
ENDROOT
BRANCH   6   1
ATOM      1  S   UNL     1      -3.315  -0.661  24.806  0.00  0.00    +0.061 S 
ATOM      2  O   UNL     1      -3.142  -1.344  26.071  0.00  0.00    -0.153 OA
ATOM      3  O   UNL     1      -3.876  -1.342  23.660  0.00  0.00    -0.153 OA
BRANCH   1  17
ATOM     17  C   UNL     1      -4.278   0.788  25.103  0.00  0.00    +0.106 A 
ATOM     18  C   UNL     1      -3.971   1.978  24.441  0.00  0.00    +0.032 A 
ATOM     19  C   UNL     1      -5.348   0.744  25.997  0.00  0.00    +0.032 A 
ATOM     21  C   UNL     1      -4.733   3.122  24.675  0.00  0.00    +0.047 A 
ATOM     22  C   UNL     1      -6.109   1.890  26.231  0.00  0.00    +0.047 A 
ATOM     23  C   UNL     1      -5.802   3.079  25.569  0.00  0.00    +0.120 A 
BRANCH  23   5
ATOM      5  O   UNL     1      -6.544   4.196  25.798  0.00  0.00    -0.495 OA
ATOM     26  C   UNL     1      -6.017   5.434  25.324  0.00  0.00    +0.277 C 
ENDBRANCH  23   5
ENDBRANCH   1  17
ENDBRANCH   6   1
BRANCH   8  13
ATOM     13  C   UNL     1      -0.668   2.882  24.067  0.00  0.00    +0.002 C 
ATOM     15  C   UNL     1      -0.883   4.077  24.972  0.00  0.00    +0.004 C 
ENDBRANCH   8  13
BRANCH   9  14
ATOM     14  C   UNL     1       2.043   1.693  23.328  0.00  0.00    +0.099 C 
BRANCH  14  16
ATOM      4  O   UNL     1       3.074   0.133  21.794  0.00  0.00    -0.276 OA
ATOM      7  N   UNL     1       4.302   0.944  23.592  0.00  0.00    -0.312 N 
ATOM     16  C   UNL     1       3.170   0.833  22.798  0.00  0.00    +0.214 C 
ATOM     27  H   UNL     1       4.284   1.565  24.396  0.00  0.00    +0.149 HD
BRANCH   7  20
ATOM     20  C   UNL     1       5.529   0.231  23.323  0.00  0.00    +0.131 C 
BRANCH  20  24
ATOM     24  C   UNL     1       5.550  -1.027  24.127  0.00  0.00    -0.016 C 
ATOM     25  C   UNL     1       4.677  -2.028  23.967  0.00  0.00    +0.005 C 
ENDBRANCH  20  24
ENDBRANCH   7  20
ENDBRANCH  14  16
ENDBRANCH   9  14
TORSDOF 8
ENDMDL
MODEL 2
REMARK VINA RESULT:      -2.0      2.232      7.163
REMARK  Name = 11912458
REMARK  10 active torsions:
REMARK  status: ('A' for Active; 'I' for Inactive)
REMARK    1  A    between atoms: S_1  and  N_6
REMARK    2  A    between atoms: S_1  and  C_17
REMARK    3  A    between atoms: O_5  and  C_23
REMARK    4  A    between atoms: O_5  and  C_26
REMARK    5  A    between atoms: N_7  and  C_20
REMARK    6  A    between atoms: C_8  and  C_13
REMARK    7  A    between atoms: C_9  and  C_14
REMARK    8  A    between atoms: C_13  and  C_15
REMARK    9  A    between atoms: C_14  and  C_16
REMARK   10  A    between atoms: C_20  and  C_24
REMARK                            x       y       z     vdW  Elec       q    Type
REMARK                         _______ _______ _______ _____ _____    ______ ____
ROOT
ATOM      6  N   UNL     1      -2.578  -0.757  24.633  0.00  0.00    -0.176 NA
ATOM      8  C   UNL     1      -4.167   0.716  23.415  0.00  0.00    +0.008 C 
ATOM      9  C   UNL     1      -5.133   0.634  24.621  0.00  0.00    +0.003 C 
ATOM     10  C   UNL     1      -4.379   0.326  25.924  0.00  0.00    +0.021 C 
ATOM     11  C   UNL     1      -3.309  -0.557  23.345  0.00  0.00    +0.113 C 
ATOM     12  C   UNL     1      -3.510  -0.920  25.785  0.00  0.00    +0.110 C 
ENDROOT
BRANCH   6   1
ATOM      1  S   UNL     1      -1.283  -1.878  24.574  0.00  0.00    +0.061 S 
ATOM      2  O   UNL     1      -1.526  -2.823  23.504  0.00  0.00    -0.153 OA
ATOM      3  O   UNL     1      -0.992  -2.328  25.916  0.00  0.00    -0.153 OA
BRANCH   1  17
ATOM     17  C   UNL     1       0.025  -0.808  24.062  0.00  0.00    +0.106 A 
ATOM     18  C   UNL     1       1.058  -1.302  23.266  0.00  0.00    +0.032 A 
ATOM     19  C   UNL     1       0.023   0.532  24.452  0.00  0.00    +0.032 A 
ATOM     21  C   UNL     1       2.091  -0.456  22.861  0.00  0.00    +0.047 A 
ATOM     22  C   UNL     1       1.057   1.376  24.046  0.00  0.00    +0.047 A 
ATOM     23  C   UNL     1       2.091   0.882  23.251  0.00  0.00    +0.120 A 
BRANCH  23   5
ATOM      5  O   UNL     1       3.099   1.707  22.856  0.00  0.00    -0.495 OA
ATOM     26  C   UNL     1       4.389   1.121  22.689  0.00  0.00    +0.277 C 
ENDBRANCH  23   5
ENDBRANCH   1  17
ENDBRANCH   6   1
BRANCH   8  13
ATOM     13  C   UNL     1      -3.278   1.966  23.409  0.00  0.00    +0.002 C 
ATOM     15  C   UNL     1      -2.521   2.092  22.104  0.00  0.00    +0.004 C 
ENDBRANCH   8  13
BRANCH   9  14
ATOM     14  C   UNL     1      -6.002   1.881  24.782  0.00  0.00    +0.099 C 
BRANCH  14  16
ATOM      4  O   UNL     1      -5.935   2.954  26.949  0.00  0.00    -0.276 OA
ATOM      7  N   UNL     1      -4.355   3.526  25.344  0.00  0.00    -0.312 N 
ATOM     16  C   UNL     1      -5.454   2.830  25.826  0.00  0.00    +0.214 C 
ATOM     27  H   UNL     1      -4.025   3.339  24.401  0.00  0.00    +0.149 HD
BRANCH   7  20
ATOM     20  C   UNL     1      -3.633   4.503  26.126  0.00  0.00    +0.131 C 
BRANCH  20  24
ATOM     24  C   UNL     1      -2.167   4.301  25.927  0.00  0.00    -0.016 C 
ATOM     25  C   UNL     1      -1.425   5.016  25.075  0.00  0.00    +0.005 C 
ENDBRANCH  20  24
ENDBRANCH   7  20
ENDBRANCH  14  16
ENDBRANCH   9  14
TORSDOF 8
ENDMDL
MODEL 3
REMARK VINA RESULT:      -0.3      3.359      5.458
REMARK  Name = 11912458
REMARK  10 active torsions:
REMARK  status: ('A' for Active; 'I' for Inactive)
REMARK    1  A    between atoms: S_1  and  N_6
REMARK    2  A    between atoms: S_1  and  C_17
REMARK    3  A    between atoms: O_5  and  C_23
REMARK    4  A    between atoms: O_5  and  C_26
REMARK    5  A    between atoms: N_7  and  C_20
REMARK    6  A    between atoms: C_8  and  C_13
REMARK    7  A    between atoms: C_9  and  C_14
REMARK    8  A    between atoms: C_13  and  C_15
REMARK    9  A    between atoms: C_14  and  C_16
REMARK   10  A    between atoms: C_20  and  C_24
REMARK                            x       y       z     vdW  Elec       q    Type
REMARK                         _______ _______ _______ _____ _____    ______ ____
ROOT
ATOM      6  N   UNL     1      -4.619   2.630  25.287  0.00  0.00    -0.176 NA
ATOM      8  C   UNL     1      -3.392   4.201  23.803  0.00  0.00    +0.008 C 
ATOM      9  C   UNL     1      -3.024   5.051  25.043  0.00  0.00    +0.003 C 
ATOM     10  C   UNL     1      -3.027   4.203  26.325  0.00  0.00    +0.021 C 
ATOM     11  C   UNL     1      -4.717   3.462  24.051  0.00  0.00    +0.113 C 
ATOM     12  C   UNL     1      -4.347   3.458  26.497  0.00  0.00    +0.110 C 
ENDROOT
BRANCH   6   1
ATOM      1  S   UNL     1      -5.843   1.444  25.471  0.00  0.00    +0.061 S 
ATOM      2  O   UNL     1      -6.803   1.588  24.397  0.00  0.00    -0.153 OA
ATOM      3  O   UNL     1      -6.266   1.418  26.853  0.00  0.00    -0.153 OA
BRANCH   1  17
ATOM     17  C   UNL     1      -4.902  -0.017  25.162  0.00  0.00    +0.106 A 
ATOM     18  C   UNL     1      -3.975  -0.463  26.105  0.00  0.00    +0.032 A 
ATOM     19  C   UNL     1      -5.086  -0.728  23.976  0.00  0.00    +0.032 A 
ATOM     21  C   UNL     1      -3.233  -1.618  25.861  0.00  0.00    +0.047 A 
ATOM     22  C   UNL     1      -4.343  -1.883  23.733  0.00  0.00    +0.047 A 
ATOM     23  C   UNL     1      -3.417  -2.328  24.676  0.00  0.00    +0.120 A 
BRANCH  23   5
ATOM      5  O   UNL     1      -2.691  -3.455  24.438  0.00  0.00    -0.495 OA
ATOM     26  C   UNL     1      -1.345  -3.281  23.999  0.00  0.00    +0.277 C 
ENDBRANCH  23   5
ENDBRANCH   1  17
ENDBRANCH   6   1
BRANCH   8  13
ATOM     13  C   UNL     1      -2.298   3.215  23.372  0.00  0.00    +0.002 C 
ATOM     15  C   UNL     1      -2.884   2.054  22.598  0.00  0.00    +0.004 C 
ENDBRANCH   8  13
BRANCH   9  14
ATOM     14  C   UNL     1      -1.697   5.793  24.891  0.00  0.00    +0.099 C 
BRANCH  14  16
ATOM      4  O   UNL     1       0.372   5.007  23.913  0.00  0.00    -0.276 OA
ATOM      7  N   UNL     1      -0.610   3.794  25.635  0.00  0.00    -0.312 N 
ATOM     16  C   UNL     1      -0.525   4.847  24.736  0.00  0.00    +0.214 C 
ATOM     27  H   UNL     1      -1.387   3.760  26.287  0.00  0.00    +0.149 HD
BRANCH   7  20
ATOM     20  C   UNL     1       0.374   2.737  25.708  0.00  0.00    +0.131 C 
BRANCH  20  24
ATOM     24  C   UNL     1      -0.327   1.422  25.791  0.00  0.00    -0.016 C 
ATOM     25  C   UNL     1      -0.384   0.543  24.784  0.00  0.00    +0.005 C 
ENDBRANCH  20  24
ENDBRANCH   7  20
ENDBRANCH  14  16
ENDBRANCH   9  14
TORSDOF 8
ENDMDL
MODEL 4
REMARK VINA RESULT:       0.2      2.277      3.310
REMARK  Name = 11912458
REMARK  10 active torsions:
REMARK  status: ('A' for Active; 'I' for Inactive)
REMARK    1  A    between atoms: S_1  and  N_6
REMARK    2  A    between atoms: S_1  and  C_17
REMARK    3  A    between atoms: O_5  and  C_23
REMARK    4  A    between atoms: O_5  and  C_26
REMARK    5  A    between atoms: N_7  and  C_20
REMARK    6  A    between atoms: C_8  and  C_13
REMARK    7  A    between atoms: C_9  and  C_14
REMARK    8  A    between atoms: C_13  and  C_15
REMARK    9  A    between atoms: C_14  and  C_16
REMARK   10  A    between atoms: C_20  and  C_24
REMARK                            x       y       z     vdW  Elec       q    Type
REMARK                         _______ _______ _______ _____ _____    ______ ____
ROOT
ATOM      6  N   UNL     1      -1.877   2.954  24.211  0.00  0.00    -0.176 NA
ATOM      8  C   UNL     1      -1.425   0.707  23.250  0.00  0.00    +0.008 C 
ATOM      9  C   UNL     1       0.077   1.068  23.168  0.00  0.00    +0.003 C 
ATOM     10  C   UNL     1       0.453   2.144  24.199  0.00  0.00    +0.021 C 
ATOM     11  C   UNL     1      -2.276   1.983  23.149  0.00  0.00    +0.113 C 
ATOM     12  C   UNL     1      -0.450   3.368  24.083  0.00  0.00    +0.110 C 
ENDROOT
BRANCH   6   1
ATOM      1  S   UNL     1      -2.987   4.229  24.492  0.00  0.00    +0.061 S 
ATOM      2  O   UNL     1      -3.455   4.736  23.219  0.00  0.00    -0.153 OA
ATOM      3  O   UNL     1      -2.438   5.116  25.494  0.00  0.00    -0.153 OA
BRANCH   1  17
ATOM     17  C   UNL     1      -4.310   3.325  25.232  0.00  0.00    +0.106 A 
ATOM     18  C   UNL     1      -5.028   2.396  24.478  0.00  0.00    +0.032 A 
ATOM     19  C   UNL     1      -4.637   3.537  26.572  0.00  0.00    +0.032 A 
ATOM     21  C   UNL     1      -6.073   1.681  25.064  0.00  0.00    +0.047 A 
ATOM     22  C   UNL     1      -5.682   2.822  27.157  0.00  0.00    +0.047 A 
ATOM     23  C   UNL     1      -6.400   1.894  26.402  0.00  0.00    +0.120 A 
BRANCH  23   5
ATOM      5  O   UNL     1      -7.420   1.197  26.973  0.00  0.00    -0.495 OA
ATOM     26  C   UNL     1      -7.184   0.640  28.265  0.00  0.00    +0.277 C 
ENDBRANCH  23   5
ENDBRANCH   1  17
ENDBRANCH   6   1
BRANCH   8  13
ATOM     13  C   UNL     1      -1.808  -0.098  24.499  0.00  0.00    +0.002 C 
ATOM     15  C   UNL     1      -3.203  -0.672  24.372  0.00  0.00    +0.004 C 
ENDBRANCH   8  13
BRANCH   9  14
ATOM     14  C   UNL     1       0.996  -0.147  23.297  0.00  0.00    +0.099 C 
BRANCH  14  16
ATOM      4  O   UNL     1       2.330  -0.348  21.289  0.00  0.00    -0.276 OA
ATOM      7  N   UNL     1       3.284   0.551  23.208  0.00  0.00    -0.312 N 
ATOM     16  C   UNL     1       2.253  -0.006  22.466  0.00  0.00    +0.214 C 
ATOM     27  H   UNL     1       3.113   0.815  24.174  0.00  0.00    +0.149 HD
BRANCH   7  20
ATOM     20  C   UNL     1       4.602   0.798  22.668  0.00  0.00    +0.131 C 
BRANCH  20  24
ATOM     24  C   UNL     1       5.616   0.115  23.523  0.00  0.00    -0.016 C 
ATOM     25  C   UNL     1       5.359  -0.967  24.266  0.00  0.00    +0.005 C 
ENDBRANCH  20  24
ENDBRANCH   7  20
ENDBRANCH  14  16
ENDBRANCH   9  14
TORSDOF 8
ENDMDL
MODEL 5
REMARK VINA RESULT:       0.4      2.268      7.945
REMARK  Name = 11912458
REMARK  10 active torsions:
REMARK  status: ('A' for Active; 'I' for Inactive)
REMARK    1  A    between atoms: S_1  and  N_6
REMARK    2  A    between atoms: S_1  and  C_17
REMARK    3  A    between atoms: O_5  and  C_23
REMARK    4  A    between atoms: O_5  and  C_26
REMARK    5  A    between atoms: N_7  and  C_20
REMARK    6  A    between atoms: C_8  and  C_13
REMARK    7  A    between atoms: C_9  and  C_14
REMARK    8  A    between atoms: C_13  and  C_15
REMARK    9  A    between atoms: C_14  and  C_16
REMARK   10  A    between atoms: C_20  and  C_24
REMARK                            x       y       z     vdW  Elec       q    Type
REMARK                         _______ _______ _______ _____ _____    ______ ____
ROOT
ATOM      6  N   UNL     1      -0.244   0.894  23.777  0.00  0.00    -0.176 NA
ATOM      8  C   UNL     1       0.169   2.912  25.167  0.00  0.00    +0.008 C 
ATOM      9  C   UNL     1      -1.002   3.622  24.445  0.00  0.00    +0.003 C 
ATOM     10  C   UNL     1      -2.014   2.609  23.886  0.00  0.00    +0.021 C 
ATOM     11  C   UNL     1       0.796   1.862  24.237  0.00  0.00    +0.113 C 
ATOM     12  C   UNL     1      -1.330   1.565  23.008  0.00  0.00    +0.110 C 
ENDROOT
BRANCH   6   1
ATOM      1  S   UNL     1       0.359  -0.553  23.084  0.00  0.00    +0.061 S 
ATOM      2  O   UNL     1       0.004  -0.586  21.680  0.00  0.00    -0.153 OA
ATOM      3  O   UNL     1       0.043  -1.659  23.960  0.00  0.00    -0.153 OA
BRANCH   1  17
ATOM     17  C   UNL     1       2.094  -0.247  23.195  0.00  0.00    +0.106 A 
ATOM     18  C   UNL     1       2.937  -1.210  23.750  0.00  0.00    +0.032 A 
ATOM     19  C   UNL     1       2.622   0.956  22.726  0.00  0.00    +0.032 A 
ATOM     21  C   UNL     1       4.308  -0.969  23.837  0.00  0.00    +0.047 A 
ATOM     22  C   UNL     1       3.993   1.196  22.814  0.00  0.00    +0.047 A 
ATOM     23  C   UNL     1       4.836   0.234  23.369  0.00  0.00    +0.120 A 
BRANCH  23   5
ATOM      5  O   UNL     1       6.174   0.469  23.455  0.00  0.00    -0.495 OA
ATOM     26  C   UNL     1       7.045  -0.550  22.967  0.00  0.00    +0.277 C 
ENDBRANCH  23   5
ENDBRANCH   1  17
ENDBRANCH   6   1
BRANCH   8  13
ATOM     13  C   UNL     1      -0.216   2.280  26.511  0.00  0.00    +0.002 C 
ATOM     15  C   UNL     1       0.800   2.614  27.582  0.00  0.00    +0.004 C 
ENDBRANCH   8  13
BRANCH   9  14
ATOM     14  C   UNL     1      -1.706   4.661  25.317  0.00  0.00    +0.099 C 
BRANCH  14  16
ATOM      4  O   UNL     1      -2.978   3.819  27.194  0.00  0.00    -0.276 OA
ATOM      7  N   UNL     1      -3.981   3.948  25.101  0.00  0.00    -0.312 N 
ATOM     16  C   UNL     1      -2.934   4.100  25.999  0.00  0.00    +0.214 C 
ATOM     27  H   UNL     1      -3.847   4.225  24.133  0.00  0.00    +0.149 HD
BRANCH   7  20
ATOM     20  C   UNL     1      -5.276   3.429  25.478  0.00  0.00    +0.131 C 
BRANCH  20  24
ATOM     24  C   UNL     1      -5.493   2.118  24.798  0.00  0.00    -0.016 C 
ATOM     25  C   UNL     1      -4.827   0.999  25.105  0.00  0.00    +0.005 C 
ENDBRANCH  20  24
ENDBRANCH   7  20
ENDBRANCH  14  16
ENDBRANCH   9  14
TORSDOF 8
ENDMDL
MODEL 6
REMARK VINA RESULT:       0.4      2.294      8.149
REMARK  Name = 11912458
REMARK  10 active torsions:
REMARK  status: ('A' for Active; 'I' for Inactive)
REMARK    1  A    between atoms: S_1  and  N_6
REMARK    2  A    between atoms: S_1  and  C_17
REMARK    3  A    between atoms: O_5  and  C_23
REMARK    4  A    between atoms: O_5  and  C_26
REMARK    5  A    between atoms: N_7  and  C_20
REMARK    6  A    between atoms: C_8  and  C_13
REMARK    7  A    between atoms: C_9  and  C_14
REMARK    8  A    between atoms: C_13  and  C_15
REMARK    9  A    between atoms: C_14  and  C_16
REMARK   10  A    between atoms: C_20  and  C_24
REMARK                            x       y       z     vdW  Elec       q    Type
REMARK                         _______ _______ _______ _____ _____    ______ ____
ROOT
ATOM      6  N   UNL     1      -0.014   0.786  23.468  0.00  0.00    -0.176 NA
ATOM      8  C   UNL     1      -2.052   2.042  24.133  0.00  0.00    +0.008 C 
ATOM      9  C   UNL     1      -1.216   2.792  25.198  0.00  0.00    +0.003 C 
ATOM     10  C   UNL     1       0.273   2.831  24.817  0.00  0.00    +0.021 C 
ATOM     11  C   UNL     1      -1.445   0.654  23.874  0.00  0.00    +0.113 C 
ATOM     12  C   UNL     1       0.811   1.433  24.528  0.00  0.00    +0.110 C 
ENDROOT
BRANCH   6   1
ATOM      1  S   UNL     1       0.676  -0.611  22.754  0.00  0.00    +0.061 S 
ATOM      2  O   UNL     1       0.436  -0.579  21.326  0.00  0.00    -0.153 OA
ATOM      3  O   UNL     1       0.319  -1.768  23.545  0.00  0.00    -0.153 OA
BRANCH   1  17
ATOM     17  C   UNL     1       2.389  -0.278  23.021  0.00  0.00    +0.106 A 
ATOM     18  C   UNL     1       2.938   0.934  22.600  0.00  0.00    +0.032 A 
ATOM     19  C   UNL     1       3.194  -1.225  23.655  0.00  0.00    +0.032 A 
ATOM     21  C   UNL     1       4.290   1.198  22.813  0.00  0.00    +0.047 A 
ATOM     22  C   UNL     1       4.547  -0.960  23.866  0.00  0.00    +0.047 A 
ATOM     23  C   UNL     1       5.095   0.251  23.445  0.00  0.00    +0.120 A 
BRANCH  23   5
ATOM      5  O   UNL     1       6.416   0.509  23.651  0.00  0.00    -0.495 OA
ATOM     26  C   UNL     1       7.351  -0.426  23.117  0.00  0.00    +0.277 C 
ENDBRANCH  23   5
ENDBRANCH   1  17
ENDBRANCH   6   1
BRANCH   8  13
ATOM     13  C   UNL     1      -2.221   2.810  22.816  0.00  0.00    +0.002 C 
ATOM     15  C   UNL     1      -2.779   1.915  21.729  0.00  0.00    +0.004 C 
ENDBRANCH   8  13
BRANCH   9  14
ATOM     14  C   UNL     1      -1.735   4.199  25.489  0.00  0.00    +0.099 C 
BRANCH  14  16
ATOM      4  O   UNL     1      -3.288   4.447  27.326  0.00  0.00    -0.276 OA
ATOM      7  N   UNL     1      -4.087   3.833  25.232  0.00  0.00    -0.312 N 
ATOM     16  C   UNL     1      -3.100   4.183  26.142  0.00  0.00    +0.214 C 
ATOM     27  H   UNL     1      -3.828   3.648  24.267  0.00  0.00    +0.149 HD
BRANCH   7  20
ATOM     20  C   UNL     1      -5.485   3.736  25.581  0.00  0.00    +0.131 C 
BRANCH  20  24
ATOM     24  C   UNL     1      -5.865   2.296  25.682  0.00  0.00    -0.016 C 
ATOM     25  C   UNL     1      -5.307   1.325  24.951  0.00  0.00    +0.005 C 
ENDBRANCH  20  24
ENDBRANCH   7  20
ENDBRANCH  14  16
ENDBRANCH   9  14
TORSDOF 8
ENDMDL
MODEL 7
REMARK VINA RESULT:       0.4      2.235      3.205
REMARK  Name = 11912458
REMARK  10 active torsions:
REMARK  status: ('A' for Active; 'I' for Inactive)
REMARK    1  A    between atoms: S_1  and  N_6
REMARK    2  A    between atoms: S_1  and  C_17
REMARK    3  A    between atoms: O_5  and  C_23
REMARK    4  A    between atoms: O_5  and  C_26
REMARK    5  A    between atoms: N_7  and  C_20
REMARK    6  A    between atoms: C_8  and  C_13
REMARK    7  A    between atoms: C_9  and  C_14
REMARK    8  A    between atoms: C_13  and  C_15
REMARK    9  A    between atoms: C_14  and  C_16
REMARK   10  A    between atoms: C_20  and  C_24
REMARK                            x       y       z     vdW  Elec       q    Type
REMARK                         _______ _______ _______ _____ _____    ______ ____
ROOT
ATOM      6  N   UNL     1      -0.639   2.253  24.844  0.00  0.00    -0.176 NA
ATOM      8  C   UNL     1      -0.746   0.187  23.467  0.00  0.00    +0.008 C 
ATOM      9  C   UNL     1       0.627   0.552  22.852  0.00  0.00    +0.003 C 
ATOM     10  C   UNL     1       1.444   1.447  23.797  0.00  0.00    +0.021 C 
ATOM     11  C   UNL     1      -1.482   1.466  23.896  0.00  0.00    +0.113 C 
ATOM     12  C   UNL     1       0.650   2.677  24.226  0.00  0.00    +0.110 C 
ENDROOT
BRANCH   6   1
ATOM      1  S   UNL     1      -1.465   3.470  25.723  0.00  0.00    +0.061 S 
ATOM      2  O   UNL     1      -1.342   4.728  25.016  0.00  0.00    -0.153 OA
ATOM      3  O   UNL     1      -1.111   3.362  27.121  0.00  0.00    -0.153 OA
BRANCH   1  17
ATOM     17  C   UNL     1      -3.128   2.907  25.536  0.00  0.00    +0.106 A 
ATOM     18  C   UNL     1      -4.180   3.823  25.552  0.00  0.00    +0.032 A 
ATOM     19  C   UNL     1      -3.389   1.547  25.370  0.00  0.00    +0.032 A 
ATOM     21  C   UNL     1      -5.494   3.378  25.403  0.00  0.00    +0.047 A 
ATOM     22  C   UNL     1      -4.703   1.103  25.222  0.00  0.00    +0.047 A 
ATOM     23  C   UNL     1      -5.756   2.019  25.239  0.00  0.00    +0.120 A 
BRANCH  23   5
ATOM      5  O   UNL     1      -7.038   1.585  25.095  0.00  0.00    -0.495 OA
ATOM     26  C   UNL     1      -7.555   1.517  23.767  0.00  0.00    +0.277 C 
ENDBRANCH  23   5
ENDBRANCH   1  17
ENDBRANCH   6   1
BRANCH   8  13
ATOM     13  C   UNL     1      -0.666  -0.805  24.634  0.00  0.00    +0.002 C 
ATOM     15  C   UNL     1      -1.806  -1.800  24.584  0.00  0.00    +0.004 C 
ENDBRANCH   8  13
BRANCH   9  14
ATOM     14  C   UNL     1       1.441  -0.671  22.430  0.00  0.00    +0.099 C 
BRANCH  14  16
ATOM      4  O   UNL     1       3.535   0.421  21.908  0.00  0.00    -0.276 OA
ATOM      7  N   UNL     1       3.507  -1.310  23.458  0.00  0.00    -0.312 N 
ATOM     16  C   UNL     1       2.931  -0.436  22.547  0.00  0.00    +0.214 C 
ATOM     27  H   UNL     1       2.915  -1.975  23.948  0.00  0.00    +0.149 HD
BRANCH   7  20
ATOM     20  C   UNL     1       4.918  -1.312  23.767  0.00  0.00    +0.131 C 
BRANCH  20  24
ATOM     24  C   UNL     1       5.268  -0.039  24.464  0.00  0.00    -0.016 C 
ATOM     25  C   UNL     1       6.072   0.897  23.948  0.00  0.00    +0.005 C 
ENDBRANCH  20  24
ENDBRANCH   7  20
ENDBRANCH  14  16
ENDBRANCH   9  14
TORSDOF 8
ENDMDL
MODEL 8
REMARK VINA RESULT:       0.6      2.120      7.311
REMARK  Name = 11912458
REMARK  10 active torsions:
REMARK  status: ('A' for Active; 'I' for Inactive)
REMARK    1  A    between atoms: S_1  and  N_6
REMARK    2  A    between atoms: S_1  and  C_17
REMARK    3  A    between atoms: O_5  and  C_23
REMARK    4  A    between atoms: O_5  and  C_26
REMARK    5  A    between atoms: N_7  and  C_20
REMARK    6  A    between atoms: C_8  and  C_13
REMARK    7  A    between atoms: C_9  and  C_14
REMARK    8  A    between atoms: C_13  and  C_15
REMARK    9  A    between atoms: C_14  and  C_16
REMARK   10  A    between atoms: C_20  and  C_24
REMARK                            x       y       z     vdW  Elec       q    Type
REMARK                         _______ _______ _______ _____ _____    ______ ____
ROOT
ATOM      6  N   UNL     1      -1.969  -0.907  24.782  0.00  0.00    -0.176 NA
ATOM      8  C   UNL     1      -4.303  -0.242  25.318  0.00  0.00    +0.008 C 
ATOM      9  C   UNL     1      -3.859   1.241  25.308  0.00  0.00    +0.003 C 
ATOM     10  C   UNL     1      -2.613   1.448  24.432  0.00  0.00    +0.021 C 
ATOM     11  C   UNL     1      -3.118  -1.140  25.708  0.00  0.00    +0.113 C 
ATOM     12  C   UNL     1      -1.486   0.502  24.833  0.00  0.00    +0.110 C 
ENDROOT
BRANCH   6   1
ATOM      1  S   UNL     1      -0.743  -2.104  24.822  0.00  0.00    +0.061 S 
ATOM      2  O   UNL     1      -1.136  -3.210  23.973  0.00  0.00    -0.153 OA
ATOM      3  O   UNL     1      -0.344  -2.322  26.194  0.00  0.00    -0.153 OA
BRANCH   1  17
ATOM     17  C   UNL     1       0.560  -1.236  24.007  0.00  0.00    +0.106 A 
ATOM     18  C   UNL     1       1.888  -1.591  24.242  0.00  0.00    +0.032 A 
ATOM     19  C   UNL     1       0.261  -0.196  23.126  0.00  0.00    +0.032 A 
ATOM     21  C   UNL     1       2.918  -0.905  23.597  0.00  0.00    +0.047 A 
ATOM     22  C   UNL     1       1.291   0.490  22.482  0.00  0.00    +0.047 A 
ATOM     23  C   UNL     1       2.620   0.135  22.718  0.00  0.00    +0.120 A 
BRANCH  23   5
ATOM      5  O   UNL     1       3.625   0.804  22.089  0.00  0.00    -0.495 OA
ATOM     26  C   UNL     1       4.882   0.867  22.760  0.00  0.00    +0.277 C 
ENDBRANCH  23   5
ENDBRANCH   1  17
ENDBRANCH   6   1
BRANCH   8  13
ATOM     13  C   UNL     1      -4.927  -0.717  23.999  0.00  0.00    +0.002 C 
ATOM     15  C   UNL     1      -4.504  -2.134  23.674  0.00  0.00    +0.004 C 
ENDBRANCH   8  13
BRANCH   9  14
ATOM     14  C   UNL     1      -4.974   2.200  24.894  0.00  0.00    +0.099 C 
BRANCH  14  16
ATOM      4  O   UNL     1      -5.596   4.388  25.718  0.00  0.00    -0.276 OA
ATOM      7  N   UNL     1      -3.358   3.918  25.304  0.00  0.00    -0.312 N 
ATOM     16  C   UNL     1      -4.711   3.618  25.354  0.00  0.00    +0.214 C 
ATOM     27  H   UNL     1      -2.703   3.203  25.001  0.00  0.00    +0.149 HD
BRANCH   7  20
ATOM     20  C   UNL     1      -2.819   5.203  25.685  0.00  0.00    +0.131 C 
BRANCH  20  24
ATOM     24  C   UNL     1      -1.449   5.348  25.111  0.00  0.00    -0.016 C 
ATOM     25  C   UNL     1      -0.610   4.324  24.915  0.00  0.00    +0.005 C 
ENDBRANCH  20  24
ENDBRANCH   7  20
ENDBRANCH  14  16
ENDBRANCH   9  14
TORSDOF 8
ENDMDL
