MODEL 1
REMARK VINA RESULT:      -3.6      0.000      0.000
REMARK  Name = 7663180
REMARK  5 active torsions:
REMARK  status: ('A' for Active; 'I' for Inactive)
REMARK    1  A    between atoms: O_1  and  C_12
REMARK    2  A    between atoms: O_1  and  C_19
REMARK    3  A    between atoms: C_8  and  C_12
REMARK    4  A    between atoms: C_13  and  C_16
REMARK    5  A    between atoms: C_14  and  C_15
REMARK                            x       y       z     vdW  Elec       q    Type
REMARK                         _______ _______ _______ _____ _____    ______ ____
ROOT
ATOM      3  O   UNL     1       0.314   4.434  25.079  0.00  0.00    -0.276 OA
ATOM      4  O   UNL     1      -5.813   0.765  24.448  0.00  0.00    -0.270 OA
ATOM      5  N   UNL     1      -1.867   3.669  24.806  0.00  0.00    -0.285 N 
ATOM      6  N   UNL     1      -3.640   1.557  24.114  0.00  0.00    -0.294 N 
ATOM      8  C   UNL     1      -3.314   3.935  24.724  0.00  0.00    +0.202 C 
ATOM      9  C   UNL     1      -4.057   2.931  23.840  0.00  0.00    +0.142 C 
ATOM     10  C   UNL     1      -1.470   2.265  24.994  0.00  0.00    +0.127 C 
ATOM     11  C   UNL     1      -2.194   1.342  24.025  0.00  0.00    +0.127 C 
ATOM     13  C   UNL     1      -0.882   4.659  24.872  0.00  0.00    +0.213 C 
ATOM     14  C   UNL     1      -4.599   0.577  24.374  0.00  0.00    +0.248 C 
ATOM     16  C   UNL     1      -1.337   6.083  24.662  0.00  0.00    +0.109 C 
ENDROOT
BRANCH  14  15
ATOM      7  N   UNL     1      -3.089  -2.406  26.058  0.00  0.00    -0.263 NA
ATOM     15  C   UNL     1      -4.139  -0.799  24.599  0.00  0.00    +0.055 A 
ATOM     17  C   UNL     1      -4.302  -1.771  23.622  0.00  0.00    +0.016 A 
ATOM     18  C   UNL     1      -3.533  -1.159  25.787  0.00  0.00    +0.123 A 
ATOM     20  C   UNL     1      -3.857  -3.065  23.863  0.00  0.00    +0.020 A 
ATOM     21  C   UNL     1      -3.262  -3.330  25.086  0.00  0.00    +0.111 A 
ENDBRANCH  14  15
BRANCH   8  12
ATOM      2  O   UNL     1      -3.153   4.184  27.116  0.00  0.00    -0.249 OA
ATOM     12  C   UNL     1      -3.831   3.915  26.134  0.00  0.00    +0.329 C 
BRANCH  12   1
ATOM      1  O   UNL     1      -5.146   3.553  26.131  0.00  0.00    -0.467 OA
ATOM     19  C   UNL     1      -6.060   4.562  25.688  0.00  0.00    +0.280 C 
ENDBRANCH  12   1
ENDBRANCH   8  12
TORSDOF 3
ENDMDL
MODEL 2
REMARK VINA RESULT:      -1.8      2.634      4.599
REMARK  Name = 7663180
REMARK  5 active torsions:
REMARK  status: ('A' for Active; 'I' for Inactive)
REMARK    1  A    between atoms: O_1  and  C_12
REMARK    2  A    between atoms: O_1  and  C_19
REMARK    3  A    between atoms: C_8  and  C_12
REMARK    4  A    between atoms: C_13  and  C_16
REMARK    5  A    between atoms: C_14  and  C_15
REMARK                            x       y       z     vdW  Elec       q    Type
REMARK                         _______ _______ _______ _____ _____    ______ ____
ROOT
ATOM      3  O   UNL     1       0.609  -1.617  24.457  0.00  0.00    -0.276 OA
ATOM      4  O   UNL     1      -3.679   4.057  23.550  0.00  0.00    -0.270 OA
ATOM      5  N   UNL     1      -0.443   0.374  23.871  0.00  0.00    -0.285 N 
ATOM      6  N   UNL     1      -2.842   1.875  23.601  0.00  0.00    -0.294 N 
ATOM      8  C   UNL     1      -0.396   1.710  23.250  0.00  0.00    +0.202 C 
ATOM      9  C   UNL     1      -1.745   2.149  22.675  0.00  0.00    +0.142 C 
ATOM     10  C   UNL     1      -1.603   0.093  24.729  0.00  0.00    +0.127 C 
ATOM     11  C   UNL     1      -2.910   0.484  24.054  0.00  0.00    +0.127 C 
ATOM     13  C   UNL     1       0.598  -0.559  23.822  0.00  0.00    +0.213 C 
ATOM     14  C   UNL     1      -3.741   2.890  23.934  0.00  0.00    +0.248 C 
ATOM     16  C   UNL     1       1.761  -0.230  22.918  0.00  0.00    +0.109 C 
ENDROOT
BRANCH  14  15
ATOM      7  N   UNL     1      -5.972   2.908  26.941  0.00  0.00    -0.263 NA
ATOM     15  C   UNL     1      -4.855   2.559  24.832  0.00  0.00    +0.055 A 
ATOM     17  C   UNL     1      -5.816   1.631  24.460  0.00  0.00    +0.016 A 
ATOM     18  C   UNL     1      -4.973   3.165  26.068  0.00  0.00    +0.123 A 
ATOM     20  C   UNL     1      -6.860   1.339  25.330  0.00  0.00    +0.020 A 
ATOM     21  C   UNL     1      -6.893   1.998  26.548  0.00  0.00    +0.111 A 
ENDBRANCH  14  15
BRANCH   8  12
ATOM      2  O   UNL     1       0.667   2.307  25.328  0.00  0.00    -0.249 OA
ATOM     12  C   UNL     1       0.084   2.657  24.311  0.00  0.00    +0.329 C 
BRANCH  12   1
ATOM      1  O   UNL     1      -0.236   3.935  23.960  0.00  0.00    -0.467 OA
ATOM     19  C   UNL     1      -0.778   4.744  25.009  0.00  0.00    +0.280 C 
ENDBRANCH  12   1
ENDBRANCH   8  12
TORSDOF 3
ENDMDL
MODEL 3
REMARK VINA RESULT:      -1.4      2.666      4.903
REMARK  Name = 7663180
REMARK  5 active torsions:
REMARK  status: ('A' for Active; 'I' for Inactive)
REMARK    1  A    between atoms: O_1  and  C_12
REMARK    2  A    between atoms: O_1  and  C_19
REMARK    3  A    between atoms: C_8  and  C_12
REMARK    4  A    between atoms: C_13  and  C_16
REMARK    5  A    between atoms: C_14  and  C_15
REMARK                            x       y       z     vdW  Elec       q    Type
REMARK                         _______ _______ _______ _____ _____    ______ ____
ROOT
ATOM      3  O   UNL     1      -6.065   1.206  24.249  0.00  0.00    -0.276 OA
ATOM      4  O   UNL     1       0.859   2.602  25.473  0.00  0.00    -0.270 OA
ATOM      5  N   UNL     1      -3.983   1.922  25.002  0.00  0.00    -0.285 N 
ATOM      6  N   UNL     1      -1.179   1.495  25.184  0.00  0.00    -0.294 N 
ATOM      8  C   UNL     1      -3.165   2.825  25.831  0.00  0.00    +0.202 C 
ATOM      9  C   UNL     1      -1.847   2.192  26.281  0.00  0.00    +0.142 C 
ATOM     10  C   UNL     1      -3.271   1.166  23.960  0.00  0.00    +0.127 C 
ATOM     11  C   UNL     1      -2.016   0.502  24.508  0.00  0.00    +0.127 C 
ATOM     13  C   UNL     1      -5.380   1.861  25.039  0.00  0.00    +0.213 C 
ATOM     14  C   UNL     1       0.161   1.767  24.901  0.00  0.00    +0.248 C 
ATOM     16  C   UNL     1      -6.064   2.645  26.132  0.00  0.00    +0.109 C 
ENDROOT
BRANCH  14  15
ATOM      7  N   UNL     1       2.787   0.566  22.516  0.00  0.00    -0.263 NA
ATOM     15  C   UNL     1       0.806   1.011  23.819  0.00  0.00    +0.055 A 
ATOM     17  C   UNL     1       0.099   0.062  23.095  0.00  0.00    +0.016 A 
ATOM     18  C   UNL     1       2.133   1.227  23.497  0.00  0.00    +0.123 A 
ATOM     20  C   UNL     1       0.737  -0.638  22.078  0.00  0.00    +0.020 A 
ATOM     21  C   UNL     1       2.069  -0.352  21.829  0.00  0.00    +0.111 A 
ENDBRANCH  14  15
BRANCH   8  12
ATOM      2  O   UNL     1      -3.530   4.321  23.977  0.00  0.00    -0.249 OA
ATOM     12  C   UNL     1      -2.929   4.060  25.010  0.00  0.00    +0.329 C 
BRANCH  12   1
ATOM      1  O   UNL     1      -1.958   4.818  25.596  0.00  0.00    -0.467 OA
ATOM     19  C   UNL     1      -0.958   5.329  24.707  0.00  0.00    +0.280 C 
ENDBRANCH  12   1
ENDBRANCH   8  12
TORSDOF 3
ENDMDL
MODEL 4
REMARK VINA RESULT:      -1.1      3.251      5.520
REMARK  Name = 7663180
REMARK  5 active torsions:
REMARK  status: ('A' for Active; 'I' for Inactive)
REMARK    1  A    between atoms: O_1  and  C_12
REMARK    2  A    between atoms: O_1  and  C_19
REMARK    3  A    between atoms: C_8  and  C_12
REMARK    4  A    between atoms: C_13  and  C_16
REMARK    5  A    between atoms: C_14  and  C_15
REMARK                            x       y       z     vdW  Elec       q    Type
REMARK                         _______ _______ _______ _____ _____    ______ ____
ROOT
ATOM      3  O   UNL     1      -4.773  -1.380  24.233  0.00  0.00    -0.276 OA
ATOM      4  O   UNL     1       0.799   3.130  24.345  0.00  0.00    -0.270 OA
ATOM      5  N   UNL     1      -3.254   0.359  24.520  0.00  0.00    -0.285 N 
ATOM      6  N   UNL     1      -0.555   1.246  24.625  0.00  0.00    -0.294 N 
ATOM      8  C   UNL     1      -2.963   1.751  24.909  0.00  0.00    +0.202 C 
ATOM      9  C   UNL     1      -1.544   1.935  25.452  0.00  0.00    +0.142 C 
ATOM     10  C   UNL     1      -2.206  -0.341  23.762  0.00  0.00    +0.127 C 
ATOM     11  C   UNL     1      -0.839  -0.175  24.411  0.00  0.00    +0.127 C 
ATOM     13  C   UNL     1      -4.494  -0.266  24.684  0.00  0.00    +0.213 C 
ATOM     14  C   UNL     1       0.566   1.936  24.161  0.00  0.00    +0.248 C 
ATOM     16  C   UNL     1      -5.533   0.488  25.477  0.00  0.00    +0.109 C 
ENDROOT
BRANCH  14  15
ATOM      7  N   UNL     1       2.030  -0.552  21.776  0.00  0.00    -0.263 NA
ATOM     15  C   UNL     1       1.558   1.194  23.372  0.00  0.00    +0.055 A 
ATOM     17  C   UNL     1       2.907   1.505  23.454  0.00  0.00    +0.016 A 
ATOM     18  C   UNL     1       1.170   0.169  22.530  0.00  0.00    +0.123 A 
ATOM     20  C   UNL     1       3.822   0.785  22.695  0.00  0.00    +0.020 A 
ATOM     21  C   UNL     1       3.338  -0.225  21.879  0.00  0.00    +0.111 A 
ENDBRANCH  14  15
BRANCH   8  12
ATOM      2  O   UNL     1      -2.890   2.255  22.553  0.00  0.00    -0.249 OA
ATOM     12  C   UNL     1      -3.198   2.593  23.688  0.00  0.00    +0.329 C 
BRANCH  12   1
ATOM      1  O   UNL     1      -3.793   3.765  24.051  0.00  0.00    -0.467 OA
ATOM     19  C   UNL     1      -4.522   3.729  25.283  0.00  0.00    +0.280 C 
ENDBRANCH  12   1
ENDBRANCH   8  12
TORSDOF 3
ENDMDL
MODEL 5
REMARK VINA RESULT:      -1.1      2.484      6.659
REMARK  Name = 7663180
REMARK  5 active torsions:
REMARK  status: ('A' for Active; 'I' for Inactive)
REMARK    1  A    between atoms: O_1  and  C_12
REMARK    2  A    between atoms: O_1  and  C_19
REMARK    3  A    between atoms: C_8  and  C_12
REMARK    4  A    between atoms: C_13  and  C_16
REMARK    5  A    between atoms: C_14  and  C_15
REMARK                            x       y       z     vdW  Elec       q    Type
REMARK                         _______ _______ _______ _____ _____    ______ ____
ROOT
ATOM      3  O   UNL     1      -5.067  -1.978  23.867  0.00  0.00    -0.276 OA
ATOM      4  O   UNL     1       0.756   2.046  25.008  0.00  0.00    -0.270 OA
ATOM      5  N   UNL     1      -2.944  -1.077  24.174  0.00  0.00    -0.285 N 
ATOM      6  N   UNL     1      -1.224   1.186  24.112  0.00  0.00    -0.294 N 
ATOM      8  C   UNL     1      -1.499  -1.259  24.400  0.00  0.00    +0.202 C 
ATOM      9  C   UNL     1      -0.655  -0.127  23.810  0.00  0.00    +0.142 C 
ATOM     10  C   UNL     1      -3.476   0.275  24.401  0.00  0.00    +0.127 C 
ATOM     11  C   UNL     1      -2.626   1.335  23.716  0.00  0.00    +0.127 C 
ATOM     13  C   UNL     1      -3.842  -2.118  23.918  0.00  0.00    +0.213 C 
ATOM     14  C   UNL     1      -0.422   2.178  24.678  0.00  0.00    +0.248 C 
ATOM     16  C   UNL     1      -3.247  -3.484  23.682  0.00  0.00    +0.109 C 
ENDROOT
BRANCH  14  15
ATOM      7  N   UNL     1      -2.766   4.805  25.954  0.00  0.00    -0.263 NA
ATOM     15  C   UNL     1      -1.022   3.496  24.922  0.00  0.00    +0.055 A 
ATOM     17  C   UNL     1      -0.456   4.645  24.388  0.00  0.00    +0.016 A 
ATOM     18  C   UNL     1      -2.164   3.624  25.690  0.00  0.00    +0.123 A 
ATOM     20  C   UNL     1      -1.046   5.878  24.636  0.00  0.00    +0.020 A 
ATOM     21  C   UNL     1      -2.190   5.905  25.418  0.00  0.00    +0.111 A 
ENDBRANCH  14  15
BRANCH   8  12
ATOM      2  O   UNL     1      -2.182  -1.118  26.707  0.00  0.00    -0.249 OA
ATOM     12  C   UNL     1      -1.310  -1.368  25.886  0.00  0.00    +0.329 C 
BRANCH  12   1
ATOM      1  O   UNL     1      -0.037  -1.778  26.155  0.00  0.00    -0.467 OA
ATOM     19  C   UNL     1       0.403  -2.930  25.428  0.00  0.00    +0.280 C 
ENDBRANCH  12   1
ENDBRANCH   8  12
TORSDOF 3
ENDMDL
MODEL 6
REMARK VINA RESULT:      -0.8      2.169      3.616
REMARK  Name = 7663180
REMARK  5 active torsions:
REMARK  status: ('A' for Active; 'I' for Inactive)
REMARK    1  A    between atoms: O_1  and  C_12
REMARK    2  A    between atoms: O_1  and  C_19
REMARK    3  A    between atoms: C_8  and  C_12
REMARK    4  A    between atoms: C_13  and  C_16
REMARK    5  A    between atoms: C_14  and  C_15
REMARK                            x       y       z     vdW  Elec       q    Type
REMARK                         _______ _______ _______ _____ _____    ______ ____
ROOT
ATOM      3  O   UNL     1      -3.586   5.277  23.875  0.00  0.00    -0.276 OA
ATOM      4  O   UNL     1      -0.525  -0.901  25.840  0.00  0.00    -0.270 OA
ATOM      5  N   UNL     1      -2.282   3.551  24.732  0.00  0.00    -0.285 N 
ATOM      6  N   UNL     1      -2.061   0.836  25.545  0.00  0.00    -0.294 N 
ATOM      8  C   UNL     1      -1.039   3.085  25.372  0.00  0.00    +0.202 C 
ATOM      9  C   UNL     1      -1.241   1.834  26.229  0.00  0.00    +0.142 C 
ATOM     10  C   UNL     1      -3.133   2.516  24.126  0.00  0.00    +0.127 C 
ATOM     11  C   UNL     1      -3.351   1.344  25.072  0.00  0.00    +0.127 C 
ATOM     13  C   UNL     1      -2.615   4.895  24.532  0.00  0.00    +0.213 C 
ATOM     14  C   UNL     1      -1.610  -0.481  25.440  0.00  0.00    +0.248 C 
ATOM     16  C   UNL     1      -1.718   5.919  25.183  0.00  0.00    +0.109 C 
ENDROOT
BRANCH  14  15
ATOM      7  N   UNL     1      -2.770  -3.669  23.855  0.00  0.00    -0.263 NA
ATOM     15  C   UNL     1      -2.485  -1.461  24.784  0.00  0.00    +0.055 A 
ATOM     17  C   UNL     1      -3.801  -1.146  24.478  0.00  0.00    +0.016 A 
ATOM     18  C   UNL     1      -2.019  -2.721  24.457  0.00  0.00    +0.123 A 
ATOM     20  C   UNL     1      -4.606  -2.095  23.858  0.00  0.00    +0.020 A 
ATOM     21  C   UNL     1      -4.048  -3.330  23.570  0.00  0.00    +0.111 A 
ENDBRANCH  14  15
BRANCH   8  12
ATOM      2  O   UNL     1      -0.045   3.457  23.209  0.00  0.00    -0.249 OA
ATOM     12  C   UNL     1      -0.056   2.840  24.264  0.00  0.00    +0.329 C 
BRANCH  12   1
ATOM      1  O   UNL     1       0.796   1.837  24.626  0.00  0.00    -0.467 OA
ATOM     19  C   UNL     1       1.215   0.974  23.563  0.00  0.00    +0.280 C 
ENDBRANCH  12   1
ENDBRANCH   8  12
TORSDOF 3
ENDMDL
MODEL 7
REMARK VINA RESULT:      -0.4      2.764      4.892
REMARK  Name = 7663180
REMARK  5 active torsions:
REMARK  status: ('A' for Active; 'I' for Inactive)
REMARK    1  A    between atoms: O_1  and  C_12
REMARK    2  A    between atoms: O_1  and  C_19
REMARK    3  A    between atoms: C_8  and  C_12
REMARK    4  A    between atoms: C_13  and  C_16
REMARK    5  A    between atoms: C_14  and  C_15
REMARK                            x       y       z     vdW  Elec       q    Type
REMARK                         _______ _______ _______ _____ _____    ______ ____
ROOT
ATOM      3  O   UNL     1       0.904  -0.538  22.649  0.00  0.00    -0.276 OA
ATOM      4  O   UNL     1      -2.849   4.474  26.140  0.00  0.00    -0.270 OA
ATOM      5  N   UNL     1       0.106   1.294  23.840  0.00  0.00    -0.285 N 
ATOM      6  N   UNL     1      -2.049   3.032  24.483  0.00  0.00    -0.294 N 
ATOM      8  C   UNL     1       0.355   2.473  24.688  0.00  0.00    +0.202 C 
ATOM      9  C   UNL     1      -0.692   3.574  24.503  0.00  0.00    +0.142 C 
ATOM     10  C   UNL     1      -1.284   0.821  23.769  0.00  0.00    +0.127 C 
ATOM     11  C   UNL     1      -2.253   1.964  23.503  0.00  0.00    +0.127 C 
ATOM     13  C   UNL     1       1.109   0.524  23.241  0.00  0.00    +0.213 C 
ATOM     14  C   UNL     1      -3.027   3.576  25.318  0.00  0.00    +0.248 C 
ATOM     16  C   UNL     1       2.518   1.057  23.332  0.00  0.00    +0.109 C 
ENDROOT
BRANCH  14  15
ATOM      7  N   UNL     1      -5.835   1.179  24.693  0.00  0.00    -0.263 NA
ATOM     15  C   UNL     1      -4.389   3.032  25.234  0.00  0.00    +0.055 A 
ATOM     17  C   UNL     1      -5.485   3.801  25.596  0.00  0.00    +0.016 A 
ATOM     18  C   UNL     1      -4.611   1.741  24.793  0.00  0.00    +0.123 A 
ATOM     20  C   UNL     1      -6.761   3.259  25.506  0.00  0.00    +0.020 A 
ATOM     21  C   UNL     1      -6.883   1.956  25.052  0.00  0.00    +0.111 A 
ENDBRANCH  14  15
BRANCH   8  12
ATOM      2  O   UNL     1      -0.229   1.000  26.504  0.00  0.00    -0.249 OA
ATOM     12  C   UNL     1       0.387   1.979  26.106  0.00  0.00    +0.329 C 
BRANCH  12   1
ATOM      1  O   UNL     1       1.194   2.787  26.852  0.00  0.00    -0.467 OA
ATOM     19  C   UNL     1       1.138   2.574  28.267  0.00  0.00    +0.280 C 
ENDBRANCH  12   1
ENDBRANCH   8  12
TORSDOF 3
ENDMDL
MODEL 8
REMARK VINA RESULT:      -0.2      2.355      5.868
REMARK  Name = 7663180
REMARK  5 active torsions:
REMARK  status: ('A' for Active; 'I' for Inactive)
REMARK    1  A    between atoms: O_1  and  C_12
REMARK    2  A    between atoms: O_1  and  C_19
REMARK    3  A    between atoms: C_8  and  C_12
REMARK    4  A    between atoms: C_13  and  C_16
REMARK    5  A    between atoms: C_14  and  C_15
REMARK                            x       y       z     vdW  Elec       q    Type
REMARK                         _______ _______ _______ _____ _____    ______ ____
ROOT
ATOM      3  O   UNL     1      -3.463  -3.257  24.880  0.00  0.00    -0.276 OA
ATOM      4  O   UNL     1      -2.014   3.731  24.198  0.00  0.00    -0.270 OA
ATOM      5  N   UNL     1      -2.582  -1.140  24.483  0.00  0.00    -0.285 N 
ATOM      6  N   UNL     1      -3.014   1.628  24.000  0.00  0.00    -0.294 N 
ATOM      8  C   UNL     1      -1.435  -0.273  24.161  0.00  0.00    +0.202 C 
ATOM      9  C   UNL     1      -1.837   0.995  23.406  0.00  0.00    +0.142 C 
ATOM     10  C   UNL     1      -3.785  -0.468  24.998  0.00  0.00    +0.127 C 
ATOM     11  C   UNL     1      -4.165   0.734  24.146  0.00  0.00    +0.127 C 
ATOM     13  C   UNL     1      -2.545  -2.538  24.478  0.00  0.00    +0.213 C 
ATOM     14  C   UNL     1      -2.985   2.986  24.323  0.00  0.00    +0.248 C 
ATOM     16  C   UNL     1      -1.294  -3.180  23.930  0.00  0.00    +0.109 C 
ENDROOT
BRANCH  14  15
ATOM      7  N   UNL     1      -6.114   3.406  26.335  0.00  0.00    -0.263 NA
ATOM     15  C   UNL     1      -4.203   3.591  24.876  0.00  0.00    +0.055 A 
ATOM     17  C   UNL     1      -4.599   4.865  24.495  0.00  0.00    +0.016 A 
ATOM     18  C   UNL     1      -4.984   2.907  25.788  0.00  0.00    +0.123 A 
ATOM     20  C   UNL     1      -5.756   5.413  25.035  0.00  0.00    +0.020 A 
ATOM     21  C   UNL     1      -6.473   4.650  25.943  0.00  0.00    +0.111 A 
ENDBRANCH  14  15
BRANCH   8  12
ATOM      2  O   UNL     1      -0.890  -0.616  26.483  0.00  0.00    -0.249 OA
ATOM     12  C   UNL     1      -0.768   0.052  25.466  0.00  0.00    +0.329 C 
BRANCH  12   1
ATOM      1  O   UNL     1      -0.027   1.189  25.327  0.00  0.00    -0.467 OA
ATOM     19  C   UNL     1      -0.107   2.112  26.419  0.00  0.00    +0.280 C 
ENDBRANCH  12   1
ENDBRANCH   8  12
TORSDOF 3
ENDMDL
