MODEL 1
REMARK VINA RESULT:      -4.2      0.000      0.000
REMARK  Name = 38028073
REMARK  10 active torsions:
REMARK  status: ('A' for Active; 'I' for Inactive)
REMARK    1  A    between atoms: S_2  and  N_7
REMARK    2  A    between atoms: S_2  and  C_26
REMARK    3  A    between atoms: N_7  and  C_16
REMARK    4  A    between atoms: C_9  and  C_13
REMARK    5  A    between atoms: C_10  and  C_16
REMARK    6  A    between atoms: C_12  and  C_17
REMARK    7  A    between atoms: C_13  and  C_18
REMARK    8  A    between atoms: C_13  and  C_19
REMARK    9  A    between atoms: C_14  and  C_20
REMARK   10  A    between atoms: C_17  and  C_21
REMARK                            x       y       z     vdW  Elec       q    Type
REMARK                         _______ _______ _______ _____ _____    ______ ____
ROOT
ATOM      9  C   UNL     1      -2.124  -1.381  24.364  0.00  0.00    +0.000 C 
ATOM     10  C   UNL     1      -2.853  -0.290  25.188  0.00  0.00    +0.030 C 
ATOM     11  C   UNL     1      -0.670  -1.527  24.836  0.00  0.00    +0.012 C 
ATOM     12  C   UNL     1       0.120  -0.210  24.709  0.00  0.00    +0.023 C 
ATOM     14  C   UNL     1      -0.656   0.967  25.264  0.00  0.00    -0.073 C 
ATOM     15  C   UNL     1      -1.982   0.908  25.483  0.00  0.00    -0.023 C 
ATOM     20  C   UNL     1       0.134   2.200  25.603  0.00  0.00    +0.039 C 
ENDROOT
BRANCH   9  13
ATOM     13  C   UNL     1      -2.837  -2.734  24.454  0.00  0.00    -0.013 C 
ATOM     18  C   UNL     1      -3.193  -3.052  25.902  0.00  0.00    +0.007 C 
ATOM     19  C   UNL     1      -4.084  -2.738  23.577  0.00  0.00    +0.007 C 
ENDBRANCH   9  13
BRANCH  10  16
ATOM     16  C   UNL     1      -4.135   0.171  24.483  0.00  0.00    +0.113 C 
BRANCH  16   7
ATOM      7  N   UNL     1      -5.171   0.433  25.494  0.00  0.00    -0.189 NA
ATOM     32  H   UNL     1      -5.739  -0.373  25.782  0.00  0.00    +0.148 HD
BRANCH   7   2
ATOM      2  S   UNL     1      -5.892   1.973  25.602  0.00  0.00    +0.058 S 
ATOM      5  O   UNL     1      -6.393   2.173  26.948  0.00  0.00    -0.153 OA
ATOM      6  O   UNL     1      -6.766   2.170  24.461  0.00  0.00    -0.153 OA
BRANCH   2  26
ATOM      1 CL   UNL     1      -0.947   5.757  24.796  0.00  0.00    -0.084 Cl
ATOM     26  C   UNL     1      -4.499   3.039  25.375  0.00  0.00    +0.105 A 
ATOM     27  C   UNL     1      -3.856   3.590  26.482  0.00  0.00    +0.030 A 
ATOM     28  C   UNL     1      -4.045   3.327  24.088  0.00  0.00    +0.030 A 
ATOM     29  C   UNL     1      -2.758   4.431  26.304  0.00  0.00    +0.022 A 
ATOM     30  C   UNL     1      -2.946   4.168  23.909  0.00  0.00    +0.022 A 
ATOM     31  C   UNL     1      -2.302   4.719  25.017  0.00  0.00    +0.041 A 
ENDBRANCH   2  26
ENDBRANCH   7   2
ENDBRANCH  16   7
ENDBRANCH  10  16
BRANCH  12  17
ATOM     17  C   UNL     1       0.540   0.045  23.257  0.00  0.00    +0.103 C 
BRANCH  17  21
ATOM      3  O   UNL     1       1.625   2.152  23.302  0.00  0.00    -0.276 OA
ATOM      4  O   UNL     1       5.480  -0.928  23.639  0.00  0.00    -0.377 OA
ATOM      8  N   UNL     1       2.991   0.285  23.112  0.00  0.00    -0.297 N 
ATOM     21  C   UNL     1       1.760   0.929  23.225  0.00  0.00    +0.216 C 
ATOM     22  C   UNL     1       4.227   1.067  23.078  0.00  0.00    +0.136 C 
ATOM     23  C   UNL     1       3.183  -1.153  22.891  0.00  0.00    +0.136 C 
ATOM     24  C   UNL     1       5.275   0.444  23.989  0.00  0.00    +0.179 C 
ATOM     25  C   UNL     1       4.278  -1.686  23.806  0.00  0.00    +0.179 C 
ENDBRANCH  17  21
ENDBRANCH  12  17
TORSDOF 7
ENDMDL
MODEL 2
REMARK VINA RESULT:      -1.0      2.842      7.259
REMARK  Name = 38028073
REMARK  10 active torsions:
REMARK  status: ('A' for Active; 'I' for Inactive)
REMARK    1  A    between atoms: S_2  and  N_7
REMARK    2  A    between atoms: S_2  and  C_26
REMARK    3  A    between atoms: N_7  and  C_16
REMARK    4  A    between atoms: C_9  and  C_13
REMARK    5  A    between atoms: C_10  and  C_16
REMARK    6  A    between atoms: C_12  and  C_17
REMARK    7  A    between atoms: C_13  and  C_18
REMARK    8  A    between atoms: C_13  and  C_19
REMARK    9  A    between atoms: C_14  and  C_20
REMARK   10  A    between atoms: C_17  and  C_21
REMARK                            x       y       z     vdW  Elec       q    Type
REMARK                         _______ _______ _______ _____ _____    ______ ____
ROOT
ATOM      9  C   UNL     1      -1.821  -0.621  25.202  0.00  0.00    +0.000 C 
ATOM     10  C   UNL     1      -1.581  -2.037  24.622  0.00  0.00    +0.030 C 
ATOM     11  C   UNL     1      -3.183  -0.554  25.909  0.00  0.00    +0.012 C 
ATOM     12  C   UNL     1      -4.348  -0.898  24.962  0.00  0.00    +0.023 C 
ATOM     14  C   UNL     1      -4.066  -2.148  24.153  0.00  0.00    -0.073 C 
ATOM     15  C   UNL     1      -2.825  -2.649  24.023  0.00  0.00    -0.023 C 
ATOM     20  C   UNL     1      -5.251  -2.835  23.532  0.00  0.00    +0.039 C 
ENDROOT
BRANCH   9  13
ATOM     13  C   UNL     1      -0.711  -0.208  26.174  0.00  0.00    -0.013 C 
ATOM     18  C   UNL     1      -0.656   1.310  26.305  0.00  0.00    +0.007 C 
ATOM     19  C   UNL     1      -0.926  -0.861  27.535  0.00  0.00    +0.007 C 
ENDBRANCH   9  13
BRANCH  10  16
ATOM     16  C   UNL     1      -0.462  -2.023  23.574  0.00  0.00    +0.113 C 
BRANCH  16   7
ATOM      7  N   UNL     1       0.571  -1.060  23.985  0.00  0.00    -0.189 NA
ATOM     32  H   UNL     1       0.585  -0.806  24.980  0.00  0.00    +0.148 HD
BRANCH   7   2
ATOM      2  S   UNL     1       1.156   0.094  22.878  0.00  0.00    +0.058 S 
ATOM      5  O   UNL     1       0.737   1.417  23.300  0.00  0.00    -0.153 OA
ATOM      6  O   UNL     1       0.882  -0.360  21.528  0.00  0.00    -0.153 OA
BRANCH   2  26
ATOM      1 CL   UNL     1       7.360  -0.340  23.736  0.00  0.00    -0.084 Cl
ATOM     26  C   UNL     1       2.903  -0.028  23.119  0.00  0.00    +0.105 A 
ATOM     27  C   UNL     1       3.726   1.058  22.820  0.00  0.00    +0.030 A 
ATOM     28  C   UNL     1       3.458  -1.210  23.609  0.00  0.00    +0.030 A 
ATOM     29  C   UNL     1       5.104   0.962  23.010  0.00  0.00    +0.022 A 
ATOM     30  C   UNL     1       4.836  -1.306  23.800  0.00  0.00    +0.022 A 
ATOM     31  C   UNL     1       5.659  -0.220  23.501  0.00  0.00    +0.041 A 
ENDBRANCH   2  26
ENDBRANCH   7   2
ENDBRANCH  16   7
ENDBRANCH  10  16
BRANCH  12  17
ATOM     17  C   UNL     1      -4.684   0.285  24.046  0.00  0.00    +0.103 C 
BRANCH  17  21
ATOM      3  O   UNL     1      -5.959   1.481  25.647  0.00  0.00    -0.276 OA
ATOM      4  O   UNL     1      -2.106   4.517  25.013  0.00  0.00    -0.377 OA
ATOM      8  N   UNL     1      -4.149   2.598  24.717  0.00  0.00    -0.297 N 
ATOM     21  C   UNL     1      -4.996   1.503  24.877  0.00  0.00    +0.216 C 
ATOM     22  C   UNL     1      -4.376   3.820  25.488  0.00  0.00    +0.136 C 
ATOM     23  C   UNL     1      -3.074   2.705  23.723  0.00  0.00    +0.136 C 
ATOM     24  C   UNL     1      -3.065   4.339  26.060  0.00  0.00    +0.179 C 
ATOM     25  C   UNL     1      -1.816   3.276  24.365  0.00  0.00    +0.179 C 
ENDBRANCH  17  21
ENDBRANCH  12  17
TORSDOF 7
ENDMDL
