MODEL 1
REMARK VINA RESULT:      15.3      0.000      0.000
REMARK  Name = 56776085
REMARK  5 active torsions:
REMARK  status: ('A' for Active; 'I' for Inactive)
REMARK    1  A    between atoms: N_6  and  C_25
REMARK    2  A    between atoms: N_8  and  C_27
REMARK    3  A    between atoms: C_11  and  C_16
REMARK    4  A    between atoms: C_16  and  C_19
REMARK    5  A    between atoms: C_25  and  C_30
REMARK                            x       y       z     vdW  Elec       q    Type
REMARK                         _______ _______ _______ _____ _____    ______ ____
ROOT
ATOM      1  O   UNL     1      -2.067   0.362  22.354  0.00  0.00    -0.492 OA
ATOM      2  O   UNL     1      -4.653  -1.701  23.845  0.00  0.00    -0.274 OA
ATOM      5  N   UNL     1      -4.953   0.042  25.341  0.00  0.00    -0.300 N 
ATOM      7  N   UNL     1      -1.987  -1.039  25.331  0.00  0.00    -0.304 NA
ATOM     10  C   UNL     1      -5.420   2.198  24.223  0.00  0.00    +0.010 C 
ATOM     11  C   UNL     1      -5.422   2.892  25.614  0.00  0.00    +0.004 C 
ATOM     12  C   UNL     1      -4.507   2.149  26.602  0.00  0.00    +0.023 C 
ATOM     13  C   UNL     1      -5.876   0.742  24.440  0.00  0.00    +0.111 C 
ATOM     14  C   UNL     1      -4.040   2.280  23.527  0.00  0.00    +0.008 C 
ATOM     15  C   UNL     1      -4.821   0.653  26.671  0.00  0.00    +0.108 C 
ATOM     17  C   UNL     1      -3.997   1.736  22.090  0.00  0.00    +0.041 C 
ATOM     18  C   UNL     1      -4.349  -1.138  24.904  0.00  0.00    +0.229 C 
ATOM     20  C   UNL     1      -2.544   1.515  21.655  0.00  0.00    +0.229 C 
ATOM     21  C   UNL     1      -3.219  -1.720  25.733  0.00  0.00    +0.178 C 
ATOM     22  C   UNL     1      -1.375  -1.668  24.155  0.00  0.00    +0.120 C 
ATOM     23  C   UNL     1      -0.723   0.234  22.580  0.00  0.00    +0.125 A 
ATOM     24  C   UNL     1      -0.347  -0.771  23.497  0.00  0.00    +0.010 A 
ATOM     26  C   UNL     1       1.011  -0.942  23.808  0.00  0.00    +0.031 A 
ATOM     27  C   UNL     1       1.983  -0.151  23.197  0.00  0.00    +0.030 A 
ATOM     28  C   UNL     1       0.261   1.007  21.956  0.00  0.00    +0.048 A 
ATOM     29  C   UNL     1       1.608   0.815  22.268  0.00  0.00    +0.027 A 
ATOM     40  H   UNL     1      -1.317  -1.075  26.100  0.00  0.00    +0.123 HD
ENDROOT
BRANCH  27   8
ATOM      4  O   UNL     1       6.092  -0.691  23.908  0.00  0.00    -0.377 OA
ATOM      8  N   UNL     1       3.332  -0.322  23.524  0.00  0.00    -0.326 N 
ATOM     31  C   UNL     1       4.286   0.709  23.093  0.00  0.00    +0.133 C 
ATOM     32  C   UNL     1       3.889  -1.673  23.653  0.00  0.00    +0.133 C 
ATOM     33  C   UNL     1       5.550   0.630  23.943  0.00  0.00    +0.178 C 
ATOM     34  C   UNL     1       5.173  -1.626  24.472  0.00  0.00    +0.178 C 
ENDBRANCH  27   8
BRANCH  11  16
ATOM     16  C   UNL     1      -5.064   4.377  25.554  0.00  0.00    +0.099 C 
BRANCH  16  19
ATOM      3  O   UNL     1      -3.230   4.495  27.128  0.00  0.00    -0.276 OA
ATOM      6  N   UNL     1      -2.863   5.057  24.903  0.00  0.00    -0.311 N 
ATOM     19  C   UNL     1      -3.634   4.639  25.977  0.00  0.00    +0.214 C 
ATOM     39  H   UNL     1      -3.287   5.162  23.987  0.00  0.00    +0.149 HD
BRANCH   6  25
ATOM     25  C   UNL     1      -1.459   5.380  25.018  0.00  0.00    +0.139 C 
BRANCH  25  30
ATOM      9  N   UNL     1       0.956   1.869  25.569  0.00  0.00    -0.263 NA
ATOM     30  C   UNL     1      -0.614   4.153  25.211  0.00  0.00    -0.027 A 
ATOM     35  C   UNL     1       0.208   3.703  24.184  0.00  0.00    +0.025 A 
ATOM     36  C   UNL     1      -0.653   3.462  26.416  0.00  0.00    +0.025 A 
ATOM     37  C   UNL     1       0.966   2.567  24.411  0.00  0.00    +0.111 A 
ATOM     38  C   UNL     1       0.143   2.336  26.544  0.00  0.00    +0.111 A 
ENDBRANCH  25  30
ENDBRANCH   6  25
ENDBRANCH  16  19
ENDBRANCH  11  16
TORSDOF 5
ENDMDL
