MODEL 1
REMARK VINA RESULT:       3.7      0.000      0.000
REMARK  Name = 45360706
REMARK  8 active torsions:
REMARK  status: ('A' for Active; 'I' for Inactive)
REMARK    1  A    between atoms: O_4  and  C_32
REMARK    2  A    between atoms: N_7  and  C_13
REMARK    3  A    between atoms: N_7  and  C_20
REMARK    4  A    between atoms: C_12  and  C_17
REMARK    5  A    between atoms: C_17  and  C_19
REMARK    6  A    between atoms: C_19  and  C_21
REMARK    7  A    between atoms: C_20  and  C_24
REMARK    8  A    between atoms: C_29  and  C_32
REMARK                            x       y       z     vdW  Elec       q    Type
REMARK                         _______ _______ _______ _____ _____    ______ ____
ROOT
ATOM      1  O   UNL     1      -3.560   4.057  22.381  0.00  0.00    -0.274 OA
ATOM      5  N   UNL     1      -5.048   1.421  24.422  0.00  0.00    -0.286 NA
ATOM      6  N   UNL     1      -3.077   1.836  22.468  0.00  0.00    -0.313 N 
ATOM     11  C   UNL     1      -5.016   2.727  23.751  0.00  0.00    +0.145 C 
ATOM     12  C   UNL     1      -4.637   0.304  23.579  0.00  0.00    +0.075 C 
ATOM     13  C   UNL     1      -4.984   2.903  26.173  0.00  0.00    +0.070 C 
ATOM     14  C   UNL     1      -5.003   3.749  24.899  0.00  0.00    +0.048 C 
ATOM     15  C   UNL     1      -4.383   1.582  25.712  0.00  0.00    +0.104 C 
ATOM     16  C   UNL     1      -3.232   0.519  23.042  0.00  0.00    +0.123 C 
ATOM     18  C   UNL     1      -3.816   2.936  22.832  0.00  0.00    +0.230 C 
ATOM     36  H   UNL     1      -2.294   1.985  21.839  0.00  0.00    +0.149 HD
ENDROOT
BRANCH  13   7
ATOM      7  N   UNL     1      -4.246   3.527  27.260  0.00  0.00    -0.305 NA
ATOM     37  H   UNL     1      -4.884   3.710  28.035  0.00  0.00    +0.123 HD
BRANCH   7  20
ATOM     20  C   UNL     1      -3.652   4.788  26.834  0.00  0.00    +0.156 C 
BRANCH  20  24
ATOM      3  O   UNL     1      -1.689   3.443  26.324  0.00  0.00    -0.461 OA
ATOM     24  C   UNL     1      -2.390   4.573  26.042  0.00  0.00    +0.119 A 
ATOM     27  C   UNL     1      -1.761   5.298  25.057  0.00  0.00    +0.046 A 
ATOM     29  C   UNL     1      -0.602   3.447  25.509  0.00  0.00    +0.131 A 
ATOM     30  C   UNL     1      -0.601   4.567  24.709  0.00  0.00    +0.047 A 
BRANCH  29  32
ATOM     32  C   UNL     1       0.312   2.303  25.639  0.00  0.00    +0.230 C 
BRANCH  32   4
ATOM      4  O   UNL     1       0.973   2.340  26.906  0.00  0.00    -0.387 OA
ATOM     38  H   UNL     1       1.907   2.546  26.732  0.00  0.00    +0.210 HD
ENDBRANCH  32   4
ENDBRANCH  29  32
ENDBRANCH  20  24
ENDBRANCH   7  20
ENDBRANCH  13   7
BRANCH  12  17
ATOM     17  C   UNL     1      -4.753  -1.047  24.288  0.00  0.00    +0.029 C 
BRANCH  17  19
ATOM     19  C   UNL     1      -3.633  -2.003  23.903  0.00  0.00    +0.097 C 
BRANCH  19  21
ATOM      2  O   UNL     1      -2.862  -2.519  26.090  0.00  0.00    -0.276 OA
ATOM      8  N   UNL     1      -1.316  -1.575  24.633  0.00  0.00    -0.298 N 
ATOM      9  N   UNL     1       1.388  -0.793  23.957  0.00  0.00    -0.312 N 
ATOM     10  N   UNL     1       2.945   0.810  23.195  0.00  0.00    -0.240 NA
ATOM     21  C   UNL     1      -2.577  -2.062  24.980  0.00  0.00    +0.216 C 
ATOM     22  C   UNL     1      -0.977  -1.042  23.312  0.00  0.00    +0.126 C 
ATOM     23  C   UNL     1      -0.241  -1.592  25.621  0.00  0.00    +0.126 C 
ATOM     25  C   UNL     1       0.243  -0.121  23.340  0.00  0.00    +0.125 C 
ATOM     26  C   UNL     1       1.125  -1.814  24.976  0.00  0.00    +0.125 C 
ATOM     28  C   UNL     1       2.694  -0.450  23.615  0.00  0.00    +0.121 A 
ATOM     31  C   UNL     1       3.660  -1.436  23.731  0.00  0.00    +0.043 A 
ATOM     33  C   UNL     1       4.968  -1.108  23.392  0.00  0.00    +0.005 A 
ATOM     34  C   UNL     1       4.228   1.092  22.876  0.00  0.00    +0.113 A 
ATOM     35  C   UNL     1       5.266   0.178  22.955  0.00  0.00    +0.020 A 
ENDBRANCH  19  21
ENDBRANCH  17  19
ENDBRANCH  12  17
TORSDOF 8
ENDMDL
MODEL 2
REMARK VINA RESULT:       3.7      1.046      1.482
REMARK  Name = 45360706
REMARK  8 active torsions:
REMARK  status: ('A' for Active; 'I' for Inactive)
REMARK    1  A    between atoms: O_4  and  C_32
REMARK    2  A    between atoms: N_7  and  C_13
REMARK    3  A    between atoms: N_7  and  C_20
REMARK    4  A    between atoms: C_12  and  C_17
REMARK    5  A    between atoms: C_17  and  C_19
REMARK    6  A    between atoms: C_19  and  C_21
REMARK    7  A    between atoms: C_20  and  C_24
REMARK    8  A    between atoms: C_29  and  C_32
REMARK                            x       y       z     vdW  Elec       q    Type
REMARK                         _______ _______ _______ _____ _____    ______ ____
ROOT
ATOM      1  O   UNL     1      -3.157   3.010  22.030  0.00  0.00    -0.274 OA
ATOM      5  N   UNL     1      -4.626   1.308  24.906  0.00  0.00    -0.286 NA
ATOM      6  N   UNL     1      -2.379   1.240  23.227  0.00  0.00    -0.313 N 
ATOM     11  C   UNL     1      -4.650   2.144  23.699  0.00  0.00    +0.145 C 
ATOM     12  C   UNL     1      -3.889   0.059  24.756  0.00  0.00    +0.075 C 
ATOM     13  C   UNL     1      -5.144   3.389  25.724  0.00  0.00    +0.070 C 
ATOM     14  C   UNL     1      -5.026   3.545  24.206  0.00  0.00    +0.048 C 
ATOM     15  C   UNL     1      -4.273   2.178  26.025  0.00  0.00    +0.104 C 
ATOM     16  C   UNL     1      -2.451   0.324  24.342  0.00  0.00    +0.123 C 
ATOM     18  C   UNL     1      -3.332   2.185  22.932  0.00  0.00    +0.230 C 
ATOM     36  H   UNL     1      -1.514   1.264  22.696  0.00  0.00    +0.149 HD
ENDROOT
BRANCH  13   7
ATOM      7  N   UNL     1      -4.747   4.585  26.452  0.00  0.00    -0.305 NA
ATOM     37  H   UNL     1      -4.686   5.368  25.800  0.00  0.00    +0.123 HD
BRANCH   7  20
ATOM     20  C   UNL     1      -3.450   4.401  27.090  0.00  0.00    +0.156 C 
BRANCH  20  24
ATOM      3  O   UNL     1      -1.546   3.324  26.022  0.00  0.00    -0.461 OA
ATOM     24  C   UNL     1      -2.324   4.437  26.091  0.00  0.00    +0.119 A 
ATOM     27  C   UNL     1      -1.889   5.386  25.196  0.00  0.00    +0.046 A 
ATOM     29  C   UNL     1      -0.605   3.566  25.072  0.00  0.00    +0.131 A 
ATOM     30  C   UNL     1      -0.774   4.821  24.534  0.00  0.00    +0.047 A 
BRANCH  29  32
ATOM     32  C   UNL     1       0.358   2.486  24.822  0.00  0.00    +0.230 C 
BRANCH  32   4
ATOM      4  O   UNL     1       0.835   1.952  26.059  0.00  0.00    -0.387 OA
ATOM     38  H   UNL     1       0.723   0.987  26.013  0.00  0.00    +0.210 HD
ENDBRANCH  32   4
ENDBRANCH  29  32
ENDBRANCH  20  24
ENDBRANCH   7  20
ENDBRANCH  13   7
BRANCH  12  17
ATOM     17  C   UNL     1      -3.947  -0.817  26.009  0.00  0.00    +0.029 C 
BRANCH  17  19
ATOM     19  C   UNL     1      -3.289  -2.174  25.801  0.00  0.00    +0.097 C 
BRANCH  19  21
ATOM      2  O   UNL     1      -3.487  -2.686  23.490  0.00  0.00    -0.276 OA
ATOM      8  N   UNL     1      -1.401  -1.976  24.227  0.00  0.00    -0.298 N 
ATOM      9  N   UNL     1       1.316  -1.117  23.715  0.00  0.00    -0.312 N 
ATOM     10  N   UNL     1       3.639  -1.269  24.109  0.00  0.00    -0.240 NA
ATOM     21  C   UNL     1      -2.746  -2.303  24.399  0.00  0.00    +0.216 C 
ATOM     22  C   UNL     1      -0.525  -1.513  25.305  0.00  0.00    +0.126 C 
ATOM     23  C   UNL     1      -0.798  -2.080  22.900  0.00  0.00    +0.126 C 
ATOM     25  C   UNL     1       0.958  -1.727  24.997  0.00  0.00    +0.125 C 
ATOM     26  C   UNL     1       0.283  -1.024  22.679  0.00  0.00    +0.125 C 
ATOM     28  C   UNL     1       2.611  -0.667  23.469  0.00  0.00    +0.121 A 
ATOM     31  C   UNL     1       2.761   0.379  22.573  0.00  0.00    +0.043 A 
ATOM     33  C   UNL     1       4.048   0.838  22.318  0.00  0.00    +0.005 A 
ATOM     34  C   UNL     1       4.876  -0.796  23.835  0.00  0.00    +0.113 A 
ATOM     35  C   UNL     1       5.132   0.245  22.957  0.00  0.00    +0.020 A 
ENDBRANCH  19  21
ENDBRANCH  17  19
ENDBRANCH  12  17
TORSDOF 8
ENDMDL
MODEL 3
REMARK VINA RESULT:       3.8      1.446      2.145
REMARK  Name = 45360706
REMARK  8 active torsions:
REMARK  status: ('A' for Active; 'I' for Inactive)
REMARK    1  A    between atoms: O_4  and  C_32
REMARK    2  A    between atoms: N_7  and  C_13
REMARK    3  A    between atoms: N_7  and  C_20
REMARK    4  A    between atoms: C_12  and  C_17
REMARK    5  A    between atoms: C_17  and  C_19
REMARK    6  A    between atoms: C_19  and  C_21
REMARK    7  A    between atoms: C_20  and  C_24
REMARK    8  A    between atoms: C_29  and  C_32
REMARK                            x       y       z     vdW  Elec       q    Type
REMARK                         _______ _______ _______ _____ _____    ______ ____
ROOT
ATOM      1  O   UNL     1      -6.828   3.133  26.813  0.00  0.00    -0.274 OA
ATOM      5  N   UNL     1      -4.183   1.377  25.011  0.00  0.00    -0.286 NA
ATOM      6  N   UNL     1      -6.977   1.603  25.137  0.00  0.00    -0.313 N 
ATOM     11  C   UNL     1      -4.758   2.121  26.139  0.00  0.00    +0.145 C 
ATOM     12  C   UNL     1      -5.008   0.270  24.540  0.00  0.00    +0.075 C 
ATOM     13  C   UNL     1      -3.066   3.380  24.936  0.00  0.00    +0.070 C 
ATOM     14  C   UNL     1      -4.008   3.462  26.139  0.00  0.00    +0.048 C 
ATOM     15  C   UNL     1      -3.739   2.361  24.027  0.00  0.00    +0.104 C 
ATOM     16  C   UNL     1      -6.386   0.758  24.125  0.00  0.00    +0.123 C 
ATOM     18  C   UNL     1      -6.264   2.347  26.046  0.00  0.00    +0.230 C 
ATOM     36  H   UNL     1      -7.982   1.747  25.099  0.00  0.00    +0.149 HD
ENDROOT
BRANCH  13   7
ATOM      7  N   UNL     1      -2.843   4.668  24.298  0.00  0.00    -0.305 NA
ATOM     37  H   UNL     1      -3.067   4.593  23.306  0.00  0.00    +0.123 HD
BRANCH   7  20
ATOM     20  C   UNL     1      -1.454   5.086  24.435  0.00  0.00    +0.156 C 
BRANCH  20  24
ATOM      3  O   UNL     1      -0.512   3.758  26.245  0.00  0.00    -0.461 OA
ATOM     24  C   UNL     1      -0.573   3.957  24.902  0.00  0.00    +0.119 A 
ATOM     27  C   UNL     1       0.218   3.046  24.242  0.00  0.00    +0.046 A 
ATOM     29  C   UNL     1       0.327   2.707  26.444  0.00  0.00    +0.131 A 
ATOM     30  C   UNL     1       0.802   2.233  25.243  0.00  0.00    +0.047 A 
BRANCH  29  32
ATOM     32  C   UNL     1       0.545   2.306  27.841  0.00  0.00    +0.230 C 
BRANCH  32   4
ATOM      4  O   UNL     1       1.864   2.668  28.258  0.00  0.00    -0.387 OA
ATOM     38  H   UNL     1       2.123   3.446  27.736  0.00  0.00    +0.210 HD
ENDBRANCH  32   4
ENDBRANCH  29  32
ENDBRANCH  20  24
ENDBRANCH   7  20
ENDBRANCH  13   7
BRANCH  12  17
ATOM     17  C   UNL     1      -4.345  -0.526  23.413  0.00  0.00    +0.029 C 
BRANCH  17  19
ATOM     19  C   UNL     1      -3.944  -1.928  23.850  0.00  0.00    +0.097 C 
BRANCH  19  21
ATOM      2  O   UNL     1      -3.224  -2.213  26.095  0.00  0.00    -0.276 OA
ATOM      8  N   UNL     1      -1.640  -1.439  24.581  0.00  0.00    -0.298 N 
ATOM      9  N   UNL     1       1.085  -0.749  23.886  0.00  0.00    -0.312 N 
ATOM     10  N   UNL     1       2.670   0.755  22.992  0.00  0.00    -0.240 NA
ATOM     21  C   UNL     1      -2.912  -1.878  24.949  0.00  0.00    +0.216 C 
ATOM     22  C   UNL     1      -1.269  -1.051  23.218  0.00  0.00    +0.126 C 
ATOM     23  C   UNL     1      -0.586  -1.357  25.589  0.00  0.00    +0.126 C 
ATOM     25  C   UNL     1      -0.042  -0.139  23.175  0.00  0.00    +0.125 C 
ATOM     26  C   UNL     1       0.791  -1.654  25.001  0.00  0.00    +0.125 C 
ATOM     28  C   UNL     1       2.400  -0.452  23.538  0.00  0.00    +0.121 A 
ATOM     31  C   UNL     1       3.355  -1.427  23.778  0.00  0.00    +0.043 A 
ATOM     33  C   UNL     1       4.673  -1.144  23.436  0.00  0.00    +0.005 A 
ATOM     34  C   UNL     1       3.962   0.993  22.673  0.00  0.00    +0.113 A 
ATOM     35  C   UNL     1       4.991   0.086  22.872  0.00  0.00    +0.020 A 
ENDBRANCH  19  21
ENDBRANCH  17  19
ENDBRANCH  12  17
TORSDOF 8
ENDMDL
MODEL 4
REMARK VINA RESULT:       5.0      2.721      6.017
REMARK  Name = 45360706
REMARK  8 active torsions:
REMARK  status: ('A' for Active; 'I' for Inactive)
REMARK    1  A    between atoms: O_4  and  C_32
REMARK    2  A    between atoms: N_7  and  C_13
REMARK    3  A    between atoms: N_7  and  C_20
REMARK    4  A    between atoms: C_12  and  C_17
REMARK    5  A    between atoms: C_17  and  C_19
REMARK    6  A    between atoms: C_19  and  C_21
REMARK    7  A    between atoms: C_20  and  C_24
REMARK    8  A    between atoms: C_29  and  C_32
REMARK                            x       y       z     vdW  Elec       q    Type
REMARK                         _______ _______ _______ _____ _____    ______ ____
ROOT
ATOM      1  O   UNL     1      -2.942  -2.723  26.511  0.00  0.00    -0.274 OA
ATOM      5  N   UNL     1      -3.063  -0.662  23.500  0.00  0.00    -0.286 NA
ATOM      6  N   UNL     1      -4.003  -0.746  26.143  0.00  0.00    -0.313 N 
ATOM     11  C   UNL     1      -2.873  -1.908  24.254  0.00  0.00    +0.145 C 
ATOM     12  C   UNL     1      -4.277   0.068  23.846  0.00  0.00    +0.075 C 
ATOM     13  C   UNL     1      -0.816  -1.069  23.274  0.00  0.00    +0.070 C 
ATOM     14  C   UNL     1      -1.378  -2.229  24.097  0.00  0.00    +0.048 C 
ATOM     15  C   UNL     1      -1.796   0.064  23.542  0.00  0.00    +0.104 C 
ATOM     16  C   UNL     1      -4.303   0.408  25.327  0.00  0.00    +0.123 C 
ATOM     18  C   UNL     1      -3.252  -1.819  25.729  0.00  0.00    +0.230 C 
ATOM     36  H   UNL     1      -4.268  -0.709  27.122  0.00  0.00    +0.149 HD
ENDROOT
BRANCH  13   7
ATOM      7  N   UNL     1       0.559  -0.740  23.617  0.00  0.00    -0.305 NA
ATOM     37  H   UNL     1       0.560   0.012  24.308  0.00  0.00    +0.123 HD
BRANCH   7  20
ATOM     20  C   UNL     1       1.300  -0.299  22.443  0.00  0.00    +0.156 C 
BRANCH  20  24
ATOM      3  O   UNL     1       3.477  -0.825  23.397  0.00  0.00    -0.461 OA
ATOM     24  C   UNL     1       2.705   0.116  22.790  0.00  0.00    +0.119 A 
ATOM     27  C   UNL     1       3.410   1.284  22.623  0.00  0.00    +0.046 A 
ATOM     29  C   UNL     1       4.688  -0.249  23.619  0.00  0.00    +0.131 A 
ATOM     30  C   UNL     1       4.698   1.048  23.160  0.00  0.00    +0.047 A 
BRANCH  29  32
ATOM     32  C   UNL     1       5.697  -1.092  24.275  0.00  0.00    +0.230 C 
BRANCH  32   4
ATOM      4  O   UNL     1       5.500  -2.464  23.924  0.00  0.00    -0.387 OA
ATOM     38  H   UNL     1       6.236  -2.964  24.313  0.00  0.00    +0.210 HD
ENDBRANCH  32   4
ENDBRANCH  29  32
ENDBRANCH  20  24
ENDBRANCH   7  20
ENDBRANCH  13   7
BRANCH  12  17
ATOM     17  C   UNL     1      -4.479   1.321  22.992  0.00  0.00    +0.029 C 
BRANCH  17  19
ATOM     19  C   UNL     1      -3.232   2.193  22.934  0.00  0.00    +0.097 C 
BRANCH  19  21
ATOM      2  O   UNL     1      -4.118   4.046  24.126  0.00  0.00    -0.276 OA
ATOM      8  N   UNL     1      -2.165   3.103  24.963  0.00  0.00    -0.298 N 
ATOM      9  N   UNL     1      -0.141   2.858  27.018  0.00  0.00    -0.312 N 
ATOM     10  N   UNL     1       2.121   2.807  27.693  0.00  0.00    -0.240 NA
ATOM     21  C   UNL     1      -3.222   3.200  24.057  0.00  0.00    +0.216 C 
ATOM     22  C   UNL     1      -1.109   2.092  24.884  0.00  0.00    +0.126 C 
ATOM     23  C   UNL     1      -2.081   4.045  26.076  0.00  0.00    +0.126 C 
ATOM     25  C   UNL     1       0.162   2.504  25.629  0.00  0.00    +0.125 C 
ATOM     26  C   UNL     1      -1.466   3.407  27.319  0.00  0.00    +0.125 C 
ATOM     28  C   UNL     1       0.813   2.712  28.022  0.00  0.00    +0.121 A 
ATOM     31  C   UNL     1       0.351   2.477  29.307  0.00  0.00    +0.043 A 
ATOM     33  C   UNL     1       1.292   2.329  30.319  0.00  0.00    +0.005 A 
ATOM     34  C   UNL     1       3.006   2.659  28.704  0.00  0.00    +0.113 A 
ATOM     35  C   UNL     1       2.647   2.420  30.021  0.00  0.00    +0.020 A 
ENDBRANCH  19  21
ENDBRANCH  17  19
ENDBRANCH  12  17
TORSDOF 8
ENDMDL
