MODEL 1
REMARK VINA RESULT:       4.3      0.000      0.000
REMARK  Name = 71693673
REMARK  10 active torsions:
REMARK  status: ('A' for Active; 'I' for Inactive)
REMARK    1  A    between atoms: O_2  and  C_11
REMARK    2  A    between atoms: N_5  and  C_12
REMARK    3  A    between atoms: N_6  and  C_23
REMARK    4  A    between atoms: N_8  and  C_21
REMARK    5  A    between atoms: C_9  and  C_11
REMARK    6  A    between atoms: C_10  and  C_13
REMARK    7  A    between atoms: C_12  and  C_16
REMARK    8  A    between atoms: C_25  and  C_26
REMARK    9  A    between atoms: C_25  and  C_27
REMARK   10  A    between atoms: C_25  and  C_28
REMARK                            x       y       z     vdW  Elec       q    Type
REMARK                         _______ _______ _______ _____ _____    ______ ____
ROOT
ATOM      1  O   UNL     1      -1.914  -0.886  24.246  0.00  0.00    -0.361 OA
ATOM      3  O   UNL     1      -5.409  -0.355  24.694  0.00  0.00    -0.273 OA
ATOM      5  N   UNL     1      -3.807   1.102  23.831  0.00  0.00    -0.284 N 
ATOM      9  C   UNL     1      -2.380   1.353  23.513  0.00  0.00    +0.135 C 
ATOM     10  C   UNL     1      -1.641   0.040  23.193  0.00  0.00    +0.171 C 
ATOM     14  C   UNL     1      -4.263  -0.133  24.298  0.00  0.00    +0.242 C 
ATOM     15  C   UNL     1      -3.268  -1.274  24.231  0.00  0.00    +0.256 C 
ENDROOT
BRANCH  10  13
ATOM     13  C   UNL     1      -0.135   0.179  23.107  0.00  0.00    -0.017 A 
ATOM     17  C   UNL     1       0.526   1.115  23.901  0.00  0.00    +0.008 A 
ATOM     18  C   UNL     1       0.591  -0.631  22.233  0.00  0.00    +0.008 A 
ATOM     19  C   UNL     1       1.913   1.243  23.821  0.00  0.00    +0.023 A 
ATOM     20  C   UNL     1       1.978  -0.504  22.153  0.00  0.00    +0.023 A 
ATOM     21  C   UNL     1       2.639   0.434  22.947  0.00  0.00    +0.033 A 
BRANCH  21   8
ATOM      4  O   UNL     1       4.812  -1.377  23.942  0.00  0.00    -0.275 OA
ATOM      8  N   UNL     1       4.026   0.561  22.869  0.00  0.00    -0.285 N 
ATOM     26  C   UNL     1       5.009  -0.320  23.350  0.00  0.00    +0.220 C 
ATOM     30  H   UNL     1       4.355   1.403  22.402  0.00  0.00    +0.155 HD
BRANCH  26  25
ATOM     25  C   UNL     1       6.426   0.186  23.060  0.00  0.00    +0.069 C 
ATOM     27  C   UNL     1       7.393  -0.975  22.845  0.00  0.00    +0.017 C 
ATOM     28  C   UNL     1       6.908   1.077  24.203  0.00  0.00    +0.017 C 
ENDBRANCH  26  25
ENDBRANCH  21   8
ENDBRANCH  10  13
BRANCH   9  11
ATOM     11  C   UNL     1      -2.202   2.364  22.370  0.00  0.00    +0.181 C 
BRANCH  11   2
ATOM      2  O   UNL     1      -2.464   1.702  21.151  0.00  0.00    -0.393 OA
ATOM     29  H   UNL     1      -2.982   2.311  20.597  0.00  0.00    +0.209 HD
ENDBRANCH  11   2
ENDBRANCH   9  11
BRANCH   5  12
ATOM     12  C   UNL     1      -4.712   2.246  23.884  0.00  0.00    +0.182 C 
BRANCH  12  16
ATOM      6  N   UNL     1      -4.930   3.283  26.162  0.00  0.00    -0.336 N 
ATOM      7  N   UNL     1      -3.358   4.131  24.841  0.00  0.00    -0.239 NA
ATOM     16  C   UNL     1      -4.311   3.231  24.944  0.00  0.00    +0.127 A 
ATOM     22  C   UNL     1      -4.332   4.279  26.882  0.00  0.00    +0.106 A 
ATOM     23  C   UNL     1      -6.014   2.448  26.620  0.00  0.00    +0.150 C 
ATOM     24  C   UNL     1      -3.366   4.788  26.046  0.00  0.00    +0.130 A 
ENDBRANCH  12  16
ENDBRANCH   5  12
TORSDOF 7
ENDMDL
MODEL 2
REMARK VINA RESULT:       4.8      1.500      1.875
REMARK  Name = 71693673
REMARK  10 active torsions:
REMARK  status: ('A' for Active; 'I' for Inactive)
REMARK    1  A    between atoms: O_2  and  C_11
REMARK    2  A    between atoms: N_5  and  C_12
REMARK    3  A    between atoms: N_6  and  C_23
REMARK    4  A    between atoms: N_8  and  C_21
REMARK    5  A    between atoms: C_9  and  C_11
REMARK    6  A    between atoms: C_10  and  C_13
REMARK    7  A    between atoms: C_12  and  C_16
REMARK    8  A    between atoms: C_25  and  C_26
REMARK    9  A    between atoms: C_25  and  C_27
REMARK   10  A    between atoms: C_25  and  C_28
REMARK                            x       y       z     vdW  Elec       q    Type
REMARK                         _______ _______ _______ _____ _____    ______ ____
ROOT
ATOM      1  O   UNL     1      -3.012  -0.282  25.303  0.00  0.00    -0.361 OA
ATOM      3  O   UNL     1      -6.203   1.223  25.804  0.00  0.00    -0.273 OA
ATOM      5  N   UNL     1      -4.343   2.074  24.685  0.00  0.00    -0.284 N 
ATOM      9  C   UNL     1      -2.928   1.890  24.282  0.00  0.00    +0.135 C 
ATOM     10  C   UNL     1      -2.584   0.397  24.121  0.00  0.00    +0.171 C 
ATOM     14  C   UNL     1      -5.071   1.077  25.338  0.00  0.00    +0.242 C 
ATOM     15  C   UNL     1      -4.417  -0.289  25.393  0.00  0.00    +0.256 C 
ENDROOT
BRANCH  10  13
ATOM     13  C   UNL     1      -1.105   0.113  23.960  0.00  0.00    -0.017 A 
ATOM     17  C   UNL     1      -0.227   1.146  23.632  0.00  0.00    +0.008 A 
ATOM     18  C   UNL     1      -0.620  -1.183  24.141  0.00  0.00    +0.008 A 
ATOM     19  C   UNL     1       1.135   0.884  23.484  0.00  0.00    +0.023 A 
ATOM     20  C   UNL     1       0.743  -1.445  23.993  0.00  0.00    +0.023 A 
ATOM     21  C   UNL     1       1.620  -0.411  23.664  0.00  0.00    +0.033 A 
BRANCH  21   8
ATOM      4  O   UNL     1       3.875   1.416  22.914  0.00  0.00    -0.275 OA
ATOM      8  N   UNL     1       2.982  -0.673  23.517  0.00  0.00    -0.285 N 
ATOM     26  C   UNL     1       4.006   0.222  23.165  0.00  0.00    +0.220 C 
ATOM     30  H   UNL     1       3.256  -1.638  23.688  0.00  0.00    +0.155 HD
BRANCH  26  25
ATOM     25  C   UNL     1       5.375  -0.464  23.112  0.00  0.00    +0.069 C 
ATOM     27  C   UNL     1       5.354  -1.798  23.855  0.00  0.00    +0.017 C 
ATOM     28  C   UNL     1       6.445   0.456  23.700  0.00  0.00    +0.017 C 
ENDBRANCH  26  25
ENDBRANCH  21   8
ENDBRANCH  10  13
BRANCH   9  11
ATOM     11  C   UNL     1      -2.575   2.665  23.003  0.00  0.00    +0.181 C 
BRANCH  11   2
ATOM      2  O   UNL     1      -2.970   1.887  21.893  0.00  0.00    -0.393 OA
ATOM     29  H   UNL     1      -2.281   1.983  21.213  0.00  0.00    +0.209 HD
ENDBRANCH  11   2
ENDBRANCH   9  11
BRANCH   5  12
ATOM     12  C   UNL     1      -4.910   3.418  24.612  0.00  0.00    +0.182 C 
BRANCH  12  16
ATOM      6  N   UNL     1      -2.984   4.633  25.673  0.00  0.00    -0.336 N 
ATOM      7  N   UNL     1      -3.622   5.356  23.672  0.00  0.00    -0.239 NA
ATOM     16  C   UNL     1      -3.848   4.478  24.624  0.00  0.00    +0.127 A 
ATOM     22  C   UNL     1      -2.154   5.676  25.370  0.00  0.00    +0.106 A 
ATOM     23  C   UNL     1      -2.942   3.849  26.884  0.00  0.00    +0.150 C 
ATOM     24  C   UNL     1      -2.567   6.106  24.131  0.00  0.00    +0.130 A 
ENDBRANCH  12  16
ENDBRANCH   5  12
TORSDOF 7
ENDMDL
MODEL 3
REMARK VINA RESULT:       6.0      1.900      3.645
REMARK  Name = 71693673
REMARK  10 active torsions:
REMARK  status: ('A' for Active; 'I' for Inactive)
REMARK    1  A    between atoms: O_2  and  C_11
REMARK    2  A    between atoms: N_5  and  C_12
REMARK    3  A    between atoms: N_6  and  C_23
REMARK    4  A    between atoms: N_8  and  C_21
REMARK    5  A    between atoms: C_9  and  C_11
REMARK    6  A    between atoms: C_10  and  C_13
REMARK    7  A    between atoms: C_12  and  C_16
REMARK    8  A    between atoms: C_25  and  C_26
REMARK    9  A    between atoms: C_25  and  C_27
REMARK   10  A    between atoms: C_25  and  C_28
REMARK                            x       y       z     vdW  Elec       q    Type
REMARK                         _______ _______ _______ _____ _____    ______ ____
ROOT
ATOM      1  O   UNL     1      -1.611   2.448  22.842  0.00  0.00    -0.361 OA
ATOM      3  O   UNL     1      -5.046   2.559  23.786  0.00  0.00    -0.273 OA
ATOM      5  N   UNL     1      -3.369   1.119  24.529  0.00  0.00    -0.284 N 
ATOM      9  C   UNL     1      -1.957   0.677  24.427  0.00  0.00    +0.135 C 
ATOM     10  C   UNL     1      -1.039   1.839  24.001  0.00  0.00    +0.171 C 
ATOM     14  C   UNL     1      -3.859   2.227  23.834  0.00  0.00    +0.242 C 
ATOM     15  C   UNL     1      -2.817   3.100  23.163  0.00  0.00    +0.256 C 
ENDROOT
BRANCH  10  13
ATOM     13  C   UNL     1       0.367   1.417  23.630  0.00  0.00    -0.017 A 
ATOM     17  C   UNL     1       1.427   2.309  23.784  0.00  0.00    +0.008 A 
ATOM     18  C   UNL     1       0.602   0.134  23.135  0.00  0.00    +0.008 A 
ATOM     19  C   UNL     1       2.723   1.919  23.442  0.00  0.00    +0.023 A 
ATOM     20  C   UNL     1       1.897  -0.256  22.793  0.00  0.00    +0.023 A 
ATOM     21  C   UNL     1       2.958   0.637  22.947  0.00  0.00    +0.033 A 
BRANCH  21   8
ATOM      4  O   UNL     1       5.442   0.495  24.619  0.00  0.00    -0.275 OA
ATOM      8  N   UNL     1       4.253   0.247  22.607  0.00  0.00    -0.285 N 
ATOM     26  C   UNL     1       5.390   0.194  23.429  0.00  0.00    +0.220 C 
ATOM     30  H   UNL     1       4.377  -0.031  21.636  0.00  0.00    +0.155 HD
BRANCH  26  25
ATOM     25  C   UNL     1       6.628  -0.292  22.669  0.00  0.00    +0.069 C 
ATOM     27  C   UNL     1       6.620  -1.812  22.516  0.00  0.00    +0.017 C 
ATOM     28  C   UNL     1       7.896   0.165  23.387  0.00  0.00    +0.017 C 
ENDBRANCH  26  25
ENDBRANCH  21   8
ENDBRANCH  10  13
BRANCH   9  11
ATOM     11  C   UNL     1      -1.447   0.036  25.726  0.00  0.00    +0.181 C 
BRANCH  11   2
ATOM      2  O   UNL     1      -0.599   0.962  26.372  0.00  0.00    -0.393 OA
ATOM     29  H   UNL     1      -1.023   1.202  27.214  0.00  0.00    +0.209 HD
ENDBRANCH  11   2
ENDBRANCH   9  11
BRANCH   5  12
ATOM     12  C   UNL     1      -4.323   0.228  25.184  0.00  0.00    +0.182 C 
BRANCH  12  16
ATOM      6  N   UNL     1      -3.594  -2.140  25.600  0.00  0.00    -0.336 N 
ATOM      7  N   UNL     1      -4.453  -1.713  23.597  0.00  0.00    -0.239 NA
ATOM     16  C   UNL     1      -4.136  -1.202  24.766  0.00  0.00    +0.127 A 
ATOM     22  C   UNL     1      -3.565  -3.325  24.920  0.00  0.00    +0.106 A 
ATOM     23  C   UNL     1      -3.135  -1.935  26.954  0.00  0.00    +0.150 C 
ATOM     24  C   UNL     1      -4.099  -3.036  23.687  0.00  0.00    +0.130 A 
ENDBRANCH  12  16
ENDBRANCH   5  12
TORSDOF 7
ENDMDL
MODEL 4
REMARK VINA RESULT:       7.4      1.208      1.639
REMARK  Name = 71693673
REMARK  10 active torsions:
REMARK  status: ('A' for Active; 'I' for Inactive)
REMARK    1  A    between atoms: O_2  and  C_11
REMARK    2  A    between atoms: N_5  and  C_12
REMARK    3  A    between atoms: N_6  and  C_23
REMARK    4  A    between atoms: N_8  and  C_21
REMARK    5  A    between atoms: C_9  and  C_11
REMARK    6  A    between atoms: C_10  and  C_13
REMARK    7  A    between atoms: C_12  and  C_16
REMARK    8  A    between atoms: C_25  and  C_26
REMARK    9  A    between atoms: C_25  and  C_27
REMARK   10  A    between atoms: C_25  and  C_28
REMARK                            x       y       z     vdW  Elec       q    Type
REMARK                         _______ _______ _______ _____ _____    ______ ____
ROOT
ATOM      1  O   UNL     1      -2.188  -0.949  23.494  0.00  0.00    -0.361 OA
ATOM      3  O   UNL     1      -5.536  -0.824  24.709  0.00  0.00    -0.273 OA
ATOM      5  N   UNL     1      -3.758   0.612  25.169  0.00  0.00    -0.284 N 
ATOM      9  C   UNL     1      -2.323   0.934  24.979  0.00  0.00    +0.135 C 
ATOM     10  C   UNL     1      -1.812   0.424  23.617  0.00  0.00    +0.171 C 
ATOM     14  C   UNL     1      -4.385  -0.438  24.494  0.00  0.00    +0.242 C 
ATOM     15  C   UNL     1      -3.585  -1.075  23.375  0.00  0.00    +0.256 C 
ENDROOT
BRANCH  10  13
ATOM     13  C   UNL     1      -0.308   0.487  23.454  0.00  0.00    -0.017 A 
ATOM     17  C   UNL     1       0.340  -0.408  22.603  0.00  0.00    +0.008 A 
ATOM     18  C   UNL     1       0.430   1.441  24.155  0.00  0.00    +0.008 A 
ATOM     19  C   UNL     1       1.726  -0.349  22.453  0.00  0.00    +0.023 A 
ATOM     20  C   UNL     1       1.816   1.500  24.005  0.00  0.00    +0.023 A 
ATOM     21  C   UNL     1       2.464   0.605  23.153  0.00  0.00    +0.033 A 
BRANCH  21   8
ATOM      4  O   UNL     1       4.582  -1.380  23.901  0.00  0.00    -0.275 OA
ATOM      8  N   UNL     1       3.849   0.664  23.002  0.00  0.00    -0.285 N 
ATOM     26  C   UNL     1       4.806  -0.297  23.367  0.00  0.00    +0.220 C 
ATOM     30  H   UNL     1       4.199   1.518  22.573  0.00  0.00    +0.155 HD
BRANCH  26  25
ATOM     25  C   UNL     1       6.231   0.152  23.028  0.00  0.00    +0.069 C 
ATOM     27  C   UNL     1       7.152  -1.047  22.814  0.00  0.00    +0.017 C 
ATOM     28  C   UNL     1       6.774   1.050  24.139  0.00  0.00    +0.017 C 
ENDBRANCH  26  25
ENDBRANCH  21   8
ENDBRANCH  10  13
BRANCH   9  11
ATOM     11  C   UNL     1      -2.031   2.434  25.136  0.00  0.00    +0.181 C 
BRANCH  11   2
ATOM      2  O   UNL     1      -2.427   3.088  23.949  0.00  0.00    -0.393 OA
ATOM     29  H   UNL     1      -2.079   3.995  23.989  0.00  0.00    +0.209 HD
ENDBRANCH  11   2
ENDBRANCH   9  11
BRANCH   5  12
ATOM     12  C   UNL     1      -4.468   1.258  26.269  0.00  0.00    +0.182 C 
BRANCH  12  16
ATOM      6  N   UNL     1      -5.973   2.975  25.221  0.00  0.00    -0.336 N 
ATOM      7  N   UNL     1      -4.184   3.752  26.283  0.00  0.00    -0.239 NA
ATOM     16  C   UNL     1      -4.850   2.672  25.939  0.00  0.00    +0.127 A 
ATOM     22  C   UNL     1      -6.026   4.335  25.099  0.00  0.00    +0.106 A 
ATOM     23  C   UNL     1      -6.936   2.044  24.683  0.00  0.00    +0.150 C 
ATOM     24  C   UNL     1      -4.912   4.792  25.762  0.00  0.00    +0.130 A 
ENDBRANCH  12  16
ENDBRANCH   5  12
TORSDOF 7
ENDMDL
