MODEL 1
REMARK VINA RESULT:       8.2      0.000      0.000
REMARK  Name = 45783330
REMARK  6 active torsions:
REMARK  status: ('A' for Active; 'I' for Inactive)
REMARK    1  A    between atoms: N_3  and  C_14
REMARK    2  A    between atoms: C_9  and  C_19
REMARK    3  A    between atoms: C_13  and  C_22
REMARK    4  A    between atoms: C_14  and  C_20
REMARK    5  A    between atoms: C_23  and  C_25
REMARK    6  A    between atoms: C_32  and  C_33
REMARK                            x       y       z     vdW  Elec       q    Type
REMARK                         _______ _______ _______ _____ _____    ______ ____
ROOT
ATOM      1  O   UNL     1      -5.780   0.737  24.828  0.00  0.00    -0.336 OA
ATOM      5  N   UNL     1      -3.664   1.156  25.432  0.00  0.00    -0.190 NA
ATOM      6  N   UNL     1      -5.012  -0.312  24.307  0.00  0.00    -0.056 NA
ATOM     19  C   UNL     1      -4.910   1.556  25.475  0.00  0.00    +0.245 A 
ATOM     23  C   UNL     1      -3.777   0.007  24.705  0.00  0.00    +0.202 A 
ENDROOT
BRANCH  23  25
ATOM      4  N   UNL     1       0.831  -0.409  23.325  0.00  0.00    -0.315 N 
ATOM      7  N   UNL     1      -0.403  -2.377  23.784  0.00  0.00    -0.240 NA
ATOM     13  C   UNL     1       3.322   0.819  22.481  0.00  0.00    +0.078 C 
ATOM     15  C   UNL     1       2.576  -0.183  21.603  0.00  0.00    +0.031 C 
ATOM     16  C   UNL     1       2.379   1.505  23.467  0.00  0.00    +0.031 C 
ATOM     17  C   UNL     1       1.709  -1.148  22.410  0.00  0.00    +0.107 C 
ATOM     18  C   UNL     1       1.491   0.528  24.240  0.00  0.00    +0.107 C 
ATOM     21  C   UNL     1      -0.363  -1.026  23.714  0.00  0.00    +0.122 A 
ATOM     24  C   UNL     1      -1.438  -0.202  24.005  0.00  0.00    +0.055 A 
ATOM     25  C   UNL     1      -2.632  -0.802  24.391  0.00  0.00    +0.027 A 
ATOM     28  C   UNL     1      -2.712  -2.187  24.474  0.00  0.00    +0.031 A 
ATOM     31  C   UNL     1      -1.580  -2.923  24.163  0.00  0.00    +0.113 A 
BRANCH  13  22
ATOM      2  O   UNL     1       5.526   0.733  23.406  0.00  0.00    -0.276 OA
ATOM      8  N   UNL     1       4.216  -1.154  23.539  0.00  0.00    -0.329 N 
ATOM     22  C   UNL     1       4.466   0.152  23.188  0.00  0.00    +0.214 C 
ATOM     34  H   UNL     1       4.917  -1.703  24.024  0.00  0.00    +0.145 HD
ATOM     35  H   UNL     1       3.356  -1.636  23.294  0.00  0.00    +0.145 HD
ENDBRANCH  13  22
ENDBRANCH  23  25
BRANCH  19   9
ATOM      3  N   UNL     1      -4.837   4.032  25.714  0.00  0.00    -0.287 NA
ATOM      9  C   UNL     1      -5.501   2.783  26.137  0.00  0.00    +0.146 C 
ATOM     10  C   UNL     1      -6.986   2.990  25.785  0.00  0.00    +0.030 C 
ATOM     11  C   UNL     1      -7.069   4.404  25.227  0.00  0.00    +0.017 C 
ATOM     12  C   UNL     1      -5.846   5.088  25.805  0.00  0.00    +0.085 C 
BRANCH   3  14
ATOM     14  C   UNL     1      -3.646   4.342  26.494  0.00  0.00    +0.120 C 
BRANCH  14  20
ATOM     20  C   UNL     1      -2.423   4.461  25.626  0.00  0.00    -0.033 A 
ATOM     26  C   UNL     1      -1.970   5.719  25.228  0.00  0.00    +0.005 A 
ATOM     27  C   UNL     1      -1.743   3.313  25.217  0.00  0.00    +0.005 A 
ATOM     29  C   UNL     1      -0.837   5.830  24.421  0.00  0.00    +0.003 A 
ATOM     30  C   UNL     1      -0.610   3.424  24.410  0.00  0.00    +0.003 A 
ATOM     32  C   UNL     1      -0.157   4.681  24.012  0.00  0.00    -0.050 A 
ATOM     33  C   UNL     1       1.053   4.801  23.149  0.00  0.00    +0.044 C 
ENDBRANCH  14  20
ENDBRANCH   3  14
ENDBRANCH  19   9
TORSDOF 5
ENDMDL
MODEL 2
REMARK VINA RESULT:      10.3      2.177      4.128
REMARK  Name = 45783330
REMARK  6 active torsions:
REMARK  status: ('A' for Active; 'I' for Inactive)
REMARK    1  A    between atoms: N_3  and  C_14
REMARK    2  A    between atoms: C_9  and  C_19
REMARK    3  A    between atoms: C_13  and  C_22
REMARK    4  A    between atoms: C_14  and  C_20
REMARK    5  A    between atoms: C_23  and  C_25
REMARK    6  A    between atoms: C_32  and  C_33
REMARK                            x       y       z     vdW  Elec       q    Type
REMARK                         _______ _______ _______ _____ _____    ______ ____
ROOT
ATOM      1  O   UNL     1      -2.231   2.583  25.315  0.00  0.00    -0.336 OA
ATOM      5  N   UNL     1      -2.543   1.626  23.314  0.00  0.00    -0.190 NA
ATOM      6  N   UNL     1      -0.993   2.042  24.946  0.00  0.00    -0.056 NA
ATOM     19  C   UNL     1      -3.087   2.294  24.300  0.00  0.00    +0.245 A 
ATOM     23  C   UNL     1      -1.259   1.495  23.755  0.00  0.00    +0.202 A 
ENDROOT
BRANCH  23  25
ATOM      4  N   UNL     1       3.352   0.343  22.906  0.00  0.00    -0.315 N 
ATOM      7  N   UNL     1       1.677  -0.532  21.479  0.00  0.00    -0.240 NA
ATOM     13  C   UNL     1       6.166   0.573  23.583  0.00  0.00    +0.078 C 
ATOM     15  C   UNL     1       5.626   0.990  22.216  0.00  0.00    +0.031 C 
ATOM     16  C   UNL     1       5.074   0.617  24.649  0.00  0.00    +0.031 C 
ATOM     17  C   UNL     1       4.347   0.245  21.832  0.00  0.00    +0.107 C 
ATOM     18  C   UNL     1       3.788  -0.100  24.234  0.00  0.00    +0.107 C 
ATOM     21  C   UNL     1       2.004   0.228  22.549  0.00  0.00    +0.122 A 
ATOM     24  C   UNL     1       1.082   0.911  23.326  0.00  0.00    +0.055 A 
ATOM     25  C   UNL     1      -0.262   0.808  22.982  0.00  0.00    +0.027 A 
ATOM     28  C   UNL     1      -0.637   0.037  21.888  0.00  0.00    +0.031 A 
ATOM     31  C   UNL     1       0.362  -0.608  21.175  0.00  0.00    +0.113 A 
BRANCH  13  22
ATOM      2  O   UNL     1       7.769  -1.010  22.780  0.00  0.00    -0.276 OA
ATOM      8  N   UNL     1       6.197  -1.729  24.298  0.00  0.00    -0.329 N 
ATOM     22  C   UNL     1       6.804  -0.784  23.506  0.00  0.00    +0.214 C 
ATOM     34  H   UNL     1       6.545  -2.681  24.328  0.00  0.00    +0.145 HD
ATOM     35  H   UNL     1       5.362  -1.539  24.844  0.00  0.00    +0.145 HD
ENDBRANCH  13  22
ENDBRANCH  23  25
BRANCH  19   9
ATOM      3  N   UNL     1      -5.170   2.227  25.660  0.00  0.00    -0.287 NA
ATOM      9  C   UNL     1      -4.513   2.780  24.459  0.00  0.00    +0.146 C 
ATOM     10  C   UNL     1      -4.604   4.307  24.630  0.00  0.00    +0.030 C 
ATOM     11  C   UNL     1      -5.381   4.517  25.922  0.00  0.00    +0.017 C 
ATOM     12  C   UNL     1      -6.153   3.223  26.088  0.00  0.00    +0.085 C 
BRANCH   3  14
ATOM     14  C   UNL     1      -5.775   0.921  25.435  0.00  0.00    +0.120 C 
BRANCH  14  20
ATOM     20  C   UNL     1      -4.740  -0.135  25.153  0.00  0.00    -0.033 A 
ATOM     26  C   UNL     1      -3.712  -0.365  26.067  0.00  0.00    +0.005 A 
ATOM     27  C   UNL     1      -4.808  -0.882  23.976  0.00  0.00    +0.005 A 
ATOM     29  C   UNL     1      -2.751  -1.342  25.804  0.00  0.00    +0.003 A 
ATOM     30  C   UNL     1      -3.847  -1.859  23.714  0.00  0.00    +0.003 A 
ATOM     32  C   UNL     1      -2.819  -2.089  24.628  0.00  0.00    -0.050 A 
ATOM     33  C   UNL     1      -1.791  -3.132  24.348  0.00  0.00    +0.044 C 
ENDBRANCH  14  20
ENDBRANCH   3  14
ENDBRANCH  19   9
TORSDOF 5
ENDMDL
MODEL 3
REMARK VINA RESULT:      10.9      1.836      3.016
REMARK  Name = 45783330
REMARK  6 active torsions:
REMARK  status: ('A' for Active; 'I' for Inactive)
REMARK    1  A    between atoms: N_3  and  C_14
REMARK    2  A    between atoms: C_9  and  C_19
REMARK    3  A    between atoms: C_13  and  C_22
REMARK    4  A    between atoms: C_14  and  C_20
REMARK    5  A    between atoms: C_23  and  C_25
REMARK    6  A    between atoms: C_32  and  C_33
REMARK                            x       y       z     vdW  Elec       q    Type
REMARK                         _______ _______ _______ _____ _____    ______ ____
ROOT
ATOM      1  O   UNL     1      -2.298  -1.047  25.842  0.00  0.00    -0.336 OA
ATOM      5  N   UNL     1      -2.226   0.323  24.071  0.00  0.00    -0.190 NA
ATOM      6  N   UNL     1      -1.082  -1.307  25.198  0.00  0.00    -0.056 NA
ATOM     19  C   UNL     1      -2.910  -0.076  25.115  0.00  0.00    +0.245 A 
ATOM     23  C   UNL     1      -1.113  -0.461  24.164  0.00  0.00    +0.202 A 
ENDROOT
BRANCH  23  25
ATOM      4  N   UNL     1       3.580  -0.038  23.114  0.00  0.00    -0.315 N 
ATOM      7  N   UNL     1       2.025  -0.212  21.336  0.00  0.00    -0.240 NA
ATOM     13  C   UNL     1       6.333   0.268  23.984  0.00  0.00    +0.078 C 
ATOM     15  C   UNL     1       5.652   1.292  23.078  0.00  0.00    +0.031 C 
ATOM     16  C   UNL     1       5.310  -0.515  24.804  0.00  0.00    +0.031 C 
ATOM     17  C   UNL     1       4.517   0.689  22.250  0.00  0.00    +0.107 C 
ATOM     18  C   UNL     1       4.161  -1.079  23.967  0.00  0.00    +0.107 C 
ATOM     21  C   UNL     1       2.260  -0.169  22.668  0.00  0.00    +0.122 A 
ATOM     24  C   UNL     1       1.269  -0.246  23.633  0.00  0.00    +0.055 A 
ATOM     25  C   UNL     1      -0.048  -0.375  23.205  0.00  0.00    +0.027 A 
ATOM     28  C   UNL     1      -0.329  -0.423  21.844  0.00  0.00    +0.031 A 
ATOM     31  C   UNL     1       0.734  -0.338  20.958  0.00  0.00    +0.113 A 
BRANCH  13  22
ATOM      2  O   UNL     1       6.770  -1.657  22.635  0.00  0.00    -0.276 OA
ATOM      8  N   UNL     1       8.527  -0.257  23.135  0.00  0.00    -0.329 N 
ATOM     22  C   UNL     1       7.209  -0.647  23.179  0.00  0.00    +0.214 C 
ATOM     34  H   UNL     1       9.210  -0.799  22.618  0.00  0.00    +0.145 HD
ATOM     35  H   UNL     1       8.882   0.547  23.643  0.00  0.00    +0.145 HD
ENDBRANCH  13  22
ENDBRANCH  23  25
BRANCH  19   9
ATOM      3  N   UNL     1      -4.509   1.819  25.329  0.00  0.00    -0.287 NA
ATOM      9  C   UNL     1      -4.262   0.391  25.611  0.00  0.00    +0.146 C 
ATOM     10  C   UNL     1      -5.431  -0.351  24.936  0.00  0.00    +0.030 C 
ATOM     11  C   UNL     1      -6.313   0.745  24.355  0.00  0.00    +0.017 C 
ATOM     12  C   UNL     1      -5.957   1.965  25.180  0.00  0.00    +0.085 C 
BRANCH   3  14
ATOM     14  C   UNL     1      -3.969   2.708  26.350  0.00  0.00    +0.120 C 
BRANCH  14  20
ATOM     20  C   UNL     1      -2.819   3.526  25.829  0.00  0.00    -0.033 A 
ATOM     26  C   UNL     1      -3.009   4.871  25.509  0.00  0.00    +0.005 A 
ATOM     27  C   UNL     1      -1.564   2.940  25.663  0.00  0.00    +0.005 A 
ATOM     29  C   UNL     1      -1.943   5.630  25.024  0.00  0.00    +0.003 A 
ATOM     30  C   UNL     1      -0.498   3.699  25.178  0.00  0.00    +0.003 A 
ATOM     32  C   UNL     1      -0.688   5.043  24.859  0.00  0.00    -0.050 A 
ATOM     33  C   UNL     1       0.450   5.855  24.339  0.00  0.00    +0.044 C 
ENDBRANCH  14  20
ENDBRANCH   3  14
ENDBRANCH  19   9
TORSDOF 5
ENDMDL
MODEL 4
REMARK VINA RESULT:      12.0      1.534      7.543
REMARK  Name = 45783330
REMARK  6 active torsions:
REMARK  status: ('A' for Active; 'I' for Inactive)
REMARK    1  A    between atoms: N_3  and  C_14
REMARK    2  A    between atoms: C_9  and  C_19
REMARK    3  A    between atoms: C_13  and  C_22
REMARK    4  A    between atoms: C_14  and  C_20
REMARK    5  A    between atoms: C_23  and  C_25
REMARK    6  A    between atoms: C_32  and  C_33
REMARK                            x       y       z     vdW  Elec       q    Type
REMARK                         _______ _______ _______ _____ _____    ______ ____
ROOT
ATOM      1  O   UNL     1       1.780  -2.226  24.693  0.00  0.00    -0.336 OA
ATOM      5  N   UNL     1       0.475  -0.783  23.581  0.00  0.00    -0.190 NA
ATOM      6  N   UNL     1       0.468  -2.490  25.105  0.00  0.00    -0.056 NA
ATOM     19  C   UNL     1       1.696  -1.208  23.796  0.00  0.00    +0.245 A 
ATOM     23  C   UNL     1      -0.242  -1.599  24.406  0.00  0.00    +0.202 A 
ENDROOT
BRANCH  23  25
ATOM      4  N   UNL     1      -4.220   0.964  25.363  0.00  0.00    -0.315 N 
ATOM      7  N   UNL     1      -4.452  -1.300  24.709  0.00  0.00    -0.240 NA
ATOM     13  C   UNL     1      -5.468   3.449  26.194  0.00  0.00    +0.078 C 
ATOM     15  C   UNL     1      -5.667   2.147  26.966  0.00  0.00    +0.031 C 
ATOM     16  C   UNL     1      -4.168   3.428  25.393  0.00  0.00    +0.031 C 
ATOM     17  C   UNL     1      -5.493   0.906  26.090  0.00  0.00    +0.107 C 
ATOM     18  C   UNL     1      -3.992   2.163  24.551  0.00  0.00    +0.107 C 
ATOM     21  C   UNL     1      -3.641  -0.251  24.976  0.00  0.00    +0.122 A 
ATOM     24  C   UNL     1      -2.259  -0.297  24.892  0.00  0.00    +0.055 A 
ATOM     25  C   UNL     1      -1.670  -1.498  24.511  0.00  0.00    +0.027 A 
ATOM     28  C   UNL     1      -2.471  -2.599  24.228  0.00  0.00    +0.031 A 
ATOM     31  C   UNL     1      -3.844  -2.450  24.342  0.00  0.00    +0.113 A 
BRANCH  13  22
ATOM      2  O   UNL     1      -7.242   2.829  24.714  0.00  0.00    -0.276 OA
ATOM      8  N   UNL     1      -6.985   5.056  25.230  0.00  0.00    -0.329 N 
ATOM     22  C   UNL     1      -6.652   3.725  25.312  0.00  0.00    +0.214 C 
ATOM     34  H   UNL     1      -7.770   5.360  24.665  0.00  0.00    +0.145 HD
ATOM     35  H   UNL     1      -6.447   5.789  25.682  0.00  0.00    +0.145 HD
ENDBRANCH  13  22
ENDBRANCH  23  25
BRANCH  19   9
ATOM      3  N   UNL     1       3.367   0.629  23.638  0.00  0.00    -0.287 NA
ATOM      9  C   UNL     1       2.999  -0.730  23.192  0.00  0.00    +0.146 C 
ATOM     10  C   UNL     1       4.197  -1.611  23.590  0.00  0.00    +0.030 C 
ATOM     11  C   UNL     1       5.212  -0.652  24.196  0.00  0.00    +0.017 C 
ATOM     12  C   UNL     1       4.829   0.691  23.609  0.00  0.00    +0.085 C 
BRANCH   3  14
ATOM     14  C   UNL     1       2.756   1.682  22.838  0.00  0.00    +0.120 C 
BRANCH  14  20
ATOM     20  C   UNL     1       1.615   2.345  23.560  0.00  0.00    -0.033 A 
ATOM     26  C   UNL     1       1.067   3.527  23.061  0.00  0.00    +0.005 A 
ATOM     27  C   UNL     1       1.106   1.779  24.729  0.00  0.00    +0.005 A 
ATOM     29  C   UNL     1       0.010   4.144  23.732  0.00  0.00    +0.003 A 
ATOM     30  C   UNL     1       0.049   2.396  25.400  0.00  0.00    +0.003 A 
ATOM     32  C   UNL     1      -0.499   3.577  24.901  0.00  0.00    -0.050 A 
ATOM     33  C   UNL     1      -1.628   4.237  25.618  0.00  0.00    +0.044 C 
ENDBRANCH  14  20
ENDBRANCH   3  14
ENDBRANCH  19   9
TORSDOF 5
ENDMDL
