MODEL 1
REMARK VINA RESULT:      -1.8      0.000      0.000
REMARK  Name = 71693260
REMARK  5 active torsions:
REMARK  status: ('A' for Active; 'I' for Inactive)
REMARK    1  A    between atoms: O_3  and  C_17
REMARK    2  A    between atoms: N_7  and  C_19
REMARK    3  A    between atoms: C_8  and  C_16
REMARK    4  A    between atoms: C_9  and  C_15
REMARK    5  A    between atoms: CA_10  and  C_17
REMARK                            x       y       z     vdW  Elec       q    Type
REMARK                         _______ _______ _______ _____ _____    ______ ____
ROOT
ATOM     15  C   UNL     1      -1.767   1.547  24.810  0.00  0.00    -0.017 A 
ATOM     19  C   UNL     1       0.641   0.632  23.738  0.00  0.00    +0.033 A 
ATOM     21  C   UNL     1      -1.543   0.178  24.667  0.00  0.00    +0.008 A 
ATOM     22  C   UNL     1      -0.786   2.459  24.417  0.00  0.00    +0.008 A 
ATOM     23  C   UNL     1      -0.340  -0.280  24.130  0.00  0.00    +0.023 A 
ATOM     24  C   UNL     1       0.417   2.001  23.880  0.00  0.00    +0.023 A 
ENDROOT
BRANCH  15   9
ATOM      1  O   UNL     1      -3.175   3.441  25.099  0.00  0.00    -0.361 OA
ATOM      5  O   UNL     1      -6.648   3.933  25.851  0.00  0.00    -0.273 OA
ATOM      6  N   UNL     1      -5.530   2.016  25.263  0.00  0.00    -0.306 N 
ATOM      9  C   UNL     1      -3.072   2.043  25.392  0.00  0.00    +0.171 C 
ATOM     10  CA  UNL     1      -4.313   1.351  24.806  0.00  0.00    +0.131 C 
ATOM     18  C   UNL     1      -4.253   4.037  25.789  0.00  0.00    +0.256 C 
ATOM     20  C   UNL     1      -5.592   3.346  25.618  0.00  0.00    +0.239 C 
ATOM     25  H   UNL     1      -6.411   1.527  25.143  0.00  0.00    +0.149 HD
BRANCH  10  17
ATOM     17  C   UNL     1      -4.376  -0.134  25.155  0.00  0.00    +0.181 C 
BRANCH  17   3
ATOM      3  O   UNL     1      -4.464  -0.875  23.951  0.00  0.00    -0.393 OA
ATOM     27  H   UNL     1      -5.405  -0.913  23.707  0.00  0.00    +0.209 HD
ENDBRANCH  17   3
ENDBRANCH  10  17
ENDBRANCH  15   9
BRANCH  19   7
ATOM      4  O   UNL     1       3.163   2.124  23.045  0.00  0.00    -0.275 OA
ATOM      7  N   UNL     1       1.862   0.168  23.195  0.00  0.00    -0.285 N 
ATOM     16  C   UNL     1       2.993   0.917  22.896  0.00  0.00    +0.220 C 
ATOM     26  H   UNL     1       1.896  -0.833  23.018  0.00  0.00    +0.155 HD
BRANCH  16   8
ATOM      2  O   UNL     1       5.567  -1.350  24.377  0.00  0.00    -0.380 OA
ATOM      8  C   UNL     1       4.083   0.051  22.334  0.00  0.00    +0.080 C 
ATOM     11  C   UNL     1       3.825  -1.414  22.685  0.00  0.00    +0.041 C 
ATOM     12  C   UNL     1       5.456   0.515  22.819  0.00  0.00    +0.041 C 
ATOM     13  C   UNL     1       4.217  -1.734  24.124  0.00  0.00    +0.160 C 
ATOM     14  C   UNL     1       5.754   0.058  24.243  0.00  0.00    +0.160 C 
ENDBRANCH  16   8
ENDBRANCH  19   7
TORSDOF 5
ENDMDL
MODEL 2
REMARK VINA RESULT:      -1.3     16.421     19.183
REMARK  Name = 71693260
REMARK  5 active torsions:
REMARK  status: ('A' for Active; 'I' for Inactive)
REMARK    1  A    between atoms: O_3  and  C_17
REMARK    2  A    between atoms: N_7  and  C_19
REMARK    3  A    between atoms: C_8  and  C_16
REMARK    4  A    between atoms: C_9  and  C_15
REMARK    5  A    between atoms: CA_10  and  C_17
REMARK                            x       y       z     vdW  Elec       q    Type
REMARK                         _______ _______ _______ _____ _____    ______ ____
ROOT
ATOM     15  C   UNL     1      -2.746  -9.795  11.218  0.00  0.00    -0.017 A 
ATOM     19  C   UNL     1      -5.395 -10.412  10.593  0.00  0.00    +0.033 A 
ATOM     21  C   UNL     1      -3.265  -9.455   9.969  0.00  0.00    +0.008 A 
ATOM     22  C   UNL     1      -3.552 -10.444  12.155  0.00  0.00    +0.008 A 
ATOM     23  C   UNL     1      -4.589  -9.764   9.656  0.00  0.00    +0.023 A 
ATOM     24  C   UNL     1      -4.875 -10.753  11.842  0.00  0.00    +0.023 A 
ENDROOT
BRANCH  15   9
ATOM      1  O   UNL     1      -0.825  -8.561  10.554  0.00  0.00    -0.361 OA
ATOM      5  O   UNL     1       2.153  -7.420  12.196  0.00  0.00    -0.273 OA
ATOM      6  N   UNL     1       0.232  -8.305  13.087  0.00  0.00    -0.306 N 
ATOM      9  C   UNL     1      -1.310  -9.461  11.557  0.00  0.00    +0.171 C 
ATOM     10  CA  UNL     1      -1.140  -8.774  12.921  0.00  0.00    +0.131 C 
ATOM     18  C   UNL     1       0.569  -8.365  10.663  0.00  0.00    +0.256 C 
ATOM     20  C   UNL     1       1.058  -7.960  12.040  0.00  0.00    +0.239 C 
ATOM     25  H   UNL     1       0.535  -8.047  14.021  0.00  0.00    +0.149 HD
BRANCH  10  17
ATOM     17  C   UNL     1      -1.518  -9.684  14.087  0.00  0.00    +0.181 C 
BRANCH  17   3
ATOM      3  O   UNL     1      -0.923  -9.174  15.267  0.00  0.00    -0.393 OA
ATOM     27  H   UNL     1      -1.054  -8.211  15.260  0.00  0.00    +0.209 HD
ENDBRANCH  17   3
ENDBRANCH  10  17
ENDBRANCH  15   9
BRANCH  19   7
ATOM      4  O   UNL     1      -7.969  -9.333  11.720  0.00  0.00    -0.275 OA
ATOM      7  N   UNL     1      -6.737 -10.724  10.276  0.00  0.00    -0.285 N 
ATOM     16  C   UNL     1      -7.886 -10.185  10.841  0.00  0.00    +0.220 C 
ATOM     26  H   UNL     1      -6.851 -11.420   9.543  0.00  0.00    +0.155 HD
BRANCH  16   8
ATOM      2  O   UNL     1     -10.614  -8.882   8.648  0.00  0.00    -0.380 OA
ATOM      8  C   UNL     1      -9.121 -10.781  10.229  0.00  0.00    +0.080 C 
ATOM     11  C   UNL     1      -9.032 -10.724   8.705  0.00  0.00    +0.041 C 
ATOM     12  C   UNL     1     -10.379 -10.086  10.748  0.00  0.00    +0.041 C 
ATOM     13  C   UNL     1      -9.351  -9.334   8.165  0.00  0.00    +0.160 C 
ATOM     14  C   UNL     1     -10.624  -8.743  10.067  0.00  0.00    +0.160 C 
ENDBRANCH  16   8
ENDBRANCH  19   7
TORSDOF 5
ENDMDL
MODEL 3
REMARK VINA RESULT:      -1.2      1.145      2.073
REMARK  Name = 71693260
REMARK  5 active torsions:
REMARK  status: ('A' for Active; 'I' for Inactive)
REMARK    1  A    between atoms: O_3  and  C_17
REMARK    2  A    between atoms: N_7  and  C_19
REMARK    3  A    between atoms: C_8  and  C_16
REMARK    4  A    between atoms: C_9  and  C_15
REMARK    5  A    between atoms: CA_10  and  C_17
REMARK                            x       y       z     vdW  Elec       q    Type
REMARK                         _______ _______ _______ _____ _____    ______ ____
ROOT
ATOM     15  C   UNL     1      -2.502   1.198  24.192  0.00  0.00    -0.017 A 
ATOM     19  C   UNL     1       0.035   0.435  23.317  0.00  0.00    +0.033 A 
ATOM     21  C   UNL     1      -1.831   0.153  24.827  0.00  0.00    +0.008 A 
ATOM     22  C   UNL     1      -1.905   1.861  23.119  0.00  0.00    +0.008 A 
ATOM     23  C   UNL     1      -0.563  -0.229  24.389  0.00  0.00    +0.023 A 
ATOM     24  C   UNL     1      -0.637   1.479  22.682  0.00  0.00    +0.023 A 
ENDROOT
BRANCH  15   9
ATOM      1  O   UNL     1      -4.455   0.495  25.353  0.00  0.00    -0.361 OA
ATOM      5  O   UNL     1      -7.184   2.165  26.976  0.00  0.00    -0.273 OA
ATOM      6  N   UNL     1      -5.194   3.011  26.206  0.00  0.00    -0.306 N 
ATOM      9  C   UNL     1      -3.878   1.612  24.667  0.00  0.00    +0.171 C 
ATOM     10  CA  UNL     1      -3.864   2.801  25.640  0.00  0.00    +0.131 C 
ATOM     18  C   UNL     1      -5.820   0.713  25.640  0.00  0.00    +0.256 C 
ATOM     20  C   UNL     1      -6.130   2.012  26.359  0.00  0.00    +0.239 C 
ATOM     25  H   UNL     1      -5.375   3.892  26.675  0.00  0.00    +0.149 HD
BRANCH  10  17
ATOM     17  C   UNL     1      -3.374   4.090  24.985  0.00  0.00    +0.181 C 
BRANCH  17   3
ATOM      3  O   UNL     1      -2.157   4.473  25.602  0.00  0.00    -0.393 OA
ATOM     27  H   UNL     1      -1.451   3.940  25.198  0.00  0.00    +0.209 HD
ENDBRANCH  17   3
ENDBRANCH  10  17
ENDBRANCH  15   9
BRANCH  19   7
ATOM      4  O   UNL     1       2.670   1.882  23.468  0.00  0.00    -0.275 OA
ATOM      7  N   UNL     1       1.321   0.048  22.874  0.00  0.00    -0.285 N 
ATOM     16  C   UNL     1       2.503   0.771  22.974  0.00  0.00    +0.220 C 
ATOM     26  H   UNL     1       1.363  -0.872  22.441  0.00  0.00    +0.155 HD
BRANCH  16   8
ATOM      2  O   UNL     1       5.455  -1.031  24.385  0.00  0.00    -0.380 OA
ATOM      8  C   UNL     1       3.655   0.012  22.382  0.00  0.00    +0.080 C 
ATOM     11  C   UNL     1       3.619  -1.444  22.849  0.00  0.00    +0.041 C 
ATOM     12  C   UNL     1       4.985   0.682  22.723  0.00  0.00    +0.041 C 
ATOM     13  C   UNL     1       4.154  -1.602  24.268  0.00  0.00    +0.160 C 
ATOM     14  C   UNL     1       5.443   0.375  24.145  0.00  0.00    +0.160 C 
ENDBRANCH  16   8
ENDBRANCH  19   7
TORSDOF 5
ENDMDL
