MODEL 1
REMARK VINA RESULT:       0.5      0.000      0.000
REMARK  Name = 75536405
REMARK  10 active torsions:
REMARK  status: ('A' for Active; 'I' for Inactive)
REMARK    1  A    between atoms: O_2  and  C_10
REMARK    2  A    between atoms: O_4  and  C_29
REMARK    3  A    between atoms: O_4  and  C_30
REMARK    4  A    between atoms: N_5  and  C_9
REMARK    5  A    between atoms: N_5  and  C_11
REMARK    6  A    between atoms: N_6  and  C_20
REMARK    7  A    between atoms: C_8  and  C_11
REMARK    8  A    between atoms: C_12  and  C_19
REMARK    9  A    between atoms: C_19  and  C_21
REMARK   10  A    between atoms: C_23  and  C_24
REMARK                            x       y       z     vdW  Elec       q    Type
REMARK                         _______ _______ _______ _____ _____    ______ ____
ROOT
ATOM      1  O   UNL     1      -3.724   0.373  23.664  0.00  0.00    -0.369 OA
ATOM      8  C   UNL     1      -4.623  -0.274  24.574  0.00  0.00    +0.161 C 
ATOM     10  C   UNL     1      -3.978  -1.513  25.210  0.00  0.00    +0.145 C 
ATOM     12  C   UNL     1      -2.459   0.745  24.219  0.00  0.00    +0.125 C 
ATOM     13  C   UNL     1      -2.592  -1.219  25.780  0.00  0.00    +0.036 C 
ATOM     14  C   UNL     1      -1.728  -0.483  24.760  0.00  0.00    +0.034 C 
ENDROOT
BRANCH  10   2
ATOM      2  O   UNL     1      -3.832  -2.522  24.207  0.00  0.00    -0.389 OA
ATOM     32  H   UNL     1      -3.344  -3.263  24.605  0.00  0.00    +0.210 HD
ENDBRANCH  10   2
BRANCH   8  11
ATOM     11  C   UNL     1      -5.165   0.712  25.606  0.00  0.00    +0.115 C 
BRANCH  11   5
ATOM      5  N   UNL     1      -5.796   1.851  24.955  0.00  0.00    -0.311 NA
ATOM     31  H   UNL     1      -6.713   2.002  25.373  0.00  0.00    +0.122 HD
BRANCH   5   9
ATOM      6  N   UNL     1      -2.366   4.360  24.969  0.00  0.00    -0.305 NA
ATOM      9  C   UNL     1      -4.982   3.055  25.100  0.00  0.00    +0.056 C 
ATOM     15  C   UNL     1      -3.923   2.874  26.191  0.00  0.00    +0.034 C 
ATOM     16  C   UNL     1      -4.307   3.401  23.770  0.00  0.00    +0.034 C 
ATOM     17  C   UNL     1      -3.000   4.093  26.268  0.00  0.00    +0.085 C 
ATOM     18  C   UNL     1      -3.372   4.603  23.926  0.00  0.00    +0.085 C 
ATOM     20  C   UNL     1      -1.450   5.496  25.072  0.00  0.00    +0.104 C 
ENDBRANCH   5   9
ENDBRANCH  11   5
ENDBRANCH   8  11
BRANCH  12  19
ATOM     19  C   UNL     1      -1.651   1.413  23.112  0.00  0.00    +0.090 C 
BRANCH  19  21
ATOM      3  O   UNL     1       1.219  -0.577  22.221  0.00  0.00    -0.354 OA
ATOM      7  N   UNL     1      -0.129  -0.250  22.125  0.00  0.00    -0.083 NA
ATOM     21  C   UNL     1      -0.293   0.783  22.957  0.00  0.00    +0.087 A 
ATOM     22  C   UNL     1       0.903   1.148  23.598  0.00  0.00    +0.076 A 
ATOM     23  C   UNL     1       1.821   0.263  23.102  0.00  0.00    +0.167 A 
BRANCH  23  24
ATOM     24  C   UNL     1       3.225   0.047  23.306  0.00  0.00    +0.020 A 
ATOM     25  C   UNL     1       4.127   1.092  23.110  0.00  0.00    +0.015 A 
ATOM     26  C   UNL     1       3.687  -1.208  23.701  0.00  0.00    +0.015 A 
ATOM     27  C   UNL     1       5.492   0.883  23.308  0.00  0.00    +0.046 A 
ATOM     28  C   UNL     1       5.052  -1.418  23.900  0.00  0.00    +0.046 A 
ATOM     29  C   UNL     1       5.954  -0.373  23.704  0.00  0.00    +0.120 A 
BRANCH  29   4
ATOM      4  O   UNL     1       7.285  -0.576  23.900  0.00  0.00    -0.495 OA
ATOM     30  C   UNL     1       8.116  -0.605  22.741  0.00  0.00    +0.277 C 
ENDBRANCH  29   4
ENDBRANCH  23  24
ENDBRANCH  19  21
ENDBRANCH  12  19
TORSDOF 8
ENDMDL
MODEL 2
REMARK VINA RESULT:       0.8      2.202      4.685
REMARK  Name = 75536405
REMARK  10 active torsions:
REMARK  status: ('A' for Active; 'I' for Inactive)
REMARK    1  A    between atoms: O_2  and  C_10
REMARK    2  A    between atoms: O_4  and  C_29
REMARK    3  A    between atoms: O_4  and  C_30
REMARK    4  A    between atoms: N_5  and  C_9
REMARK    5  A    between atoms: N_5  and  C_11
REMARK    6  A    between atoms: N_6  and  C_20
REMARK    7  A    between atoms: C_8  and  C_11
REMARK    8  A    between atoms: C_12  and  C_19
REMARK    9  A    between atoms: C_19  and  C_21
REMARK   10  A    between atoms: C_23  and  C_24
REMARK                            x       y       z     vdW  Elec       q    Type
REMARK                         _______ _______ _______ _____ _____    ______ ____
ROOT
ATOM      1  O   UNL     1      -4.148   2.367  25.761  0.00  0.00    -0.369 OA
ATOM      8  C   UNL     1      -5.094   1.296  25.643  0.00  0.00    +0.161 C 
ATOM     10  C   UNL     1      -6.511   1.761  26.005  0.00  0.00    +0.145 C 
ATOM     12  C   UNL     1      -4.457   3.538  25.000  0.00  0.00    +0.125 C 
ATOM     13  C   UNL     1      -6.905   3.044  25.278  0.00  0.00    +0.036 C 
ATOM     14  C   UNL     1      -5.815   4.104  25.414  0.00  0.00    +0.034 C 
ENDROOT
BRANCH  10   2
ATOM      2  O   UNL     1      -6.566   2.020  27.410  0.00  0.00    -0.389 OA
ATOM     32  H   UNL     1      -6.106   2.862  27.571  0.00  0.00    +0.210 HD
ENDBRANCH  10   2
BRANCH   8  11
ATOM     11  C   UNL     1      -5.014   0.640  24.267  0.00  0.00    +0.115 C 
BRANCH  11   5
ATOM      5  N   UNL     1      -4.712  -0.779  24.384  0.00  0.00    -0.311 NA
ATOM     31  H   UNL     1      -5.138  -1.272  23.600  0.00  0.00    +0.122 HD
BRANCH   5   9
ATOM      6  N   UNL     1      -0.941  -2.391  25.499  0.00  0.00    -0.305 NA
ATOM      9  C   UNL     1      -3.270  -1.010  24.388  0.00  0.00    +0.056 C 
ATOM     15  C   UNL     1      -2.657  -0.622  25.737  0.00  0.00    +0.034 C 
ATOM     16  C   UNL     1      -2.967  -2.478  24.080  0.00  0.00    +0.034 C 
ATOM     17  C   UNL     1      -1.165  -0.966  25.781  0.00  0.00    +0.085 C 
ATOM     18  C   UNL     1      -1.466  -2.761  24.177  0.00  0.00    +0.085 C 
ATOM     20  C   UNL     1       0.482  -2.713  25.593  0.00  0.00    +0.104 C 
ENDBRANCH   5   9
ENDBRANCH  11   5
ENDBRANCH   8  11
BRANCH  12  19
ATOM     19  C   UNL     1      -3.348   4.553  25.250  0.00  0.00    +0.090 C 
BRANCH  19  21
ATOM      3  O   UNL     1       0.150   3.949  24.622  0.00  0.00    -0.354 OA
ATOM      7  N   UNL     1      -0.905   4.757  25.032  0.00  0.00    -0.083 NA
ATOM     21  C   UNL     1      -1.995   3.997  24.892  0.00  0.00    +0.087 A 
ATOM     22  C   UNL     1      -1.694   2.715  24.402  0.00  0.00    +0.076 A 
ATOM     23  C   UNL     1      -0.334   2.737  24.249  0.00  0.00    +0.167 A 
BRANCH  23  24
ATOM     24  C   UNL     1       0.644   1.789  23.799  0.00  0.00    +0.020 A 
ATOM     25  C   UNL     1       1.987   2.157  23.717  0.00  0.00    +0.015 A 
ATOM     26  C   UNL     1       0.253   0.498  23.445  0.00  0.00    +0.015 A 
ATOM     27  C   UNL     1       2.938   1.236  23.280  0.00  0.00    +0.046 A 
ATOM     28  C   UNL     1       1.204  -0.425  23.009  0.00  0.00    +0.046 A 
ATOM     29  C   UNL     1       2.547  -0.056  22.926  0.00  0.00    +0.120 A 
BRANCH  29   4
ATOM      4  O   UNL     1       3.475  -0.956  22.503  0.00  0.00    -0.495 OA
ATOM     30  C   UNL     1       4.454  -1.375  23.454  0.00  0.00    +0.277 C 
ENDBRANCH  29   4
ENDBRANCH  23  24
ENDBRANCH  19  21
ENDBRANCH  12  19
TORSDOF 8
ENDMDL
MODEL 3
REMARK VINA RESULT:       0.9      1.972      4.014
REMARK  Name = 75536405
REMARK  10 active torsions:
REMARK  status: ('A' for Active; 'I' for Inactive)
REMARK    1  A    between atoms: O_2  and  C_10
REMARK    2  A    between atoms: O_4  and  C_29
REMARK    3  A    between atoms: O_4  and  C_30
REMARK    4  A    between atoms: N_5  and  C_9
REMARK    5  A    between atoms: N_5  and  C_11
REMARK    6  A    between atoms: N_6  and  C_20
REMARK    7  A    between atoms: C_8  and  C_11
REMARK    8  A    between atoms: C_12  and  C_19
REMARK    9  A    between atoms: C_19  and  C_21
REMARK   10  A    between atoms: C_23  and  C_24
REMARK                            x       y       z     vdW  Elec       q    Type
REMARK                         _______ _______ _______ _____ _____    ______ ____
ROOT
ATOM      1  O   UNL     1      -3.820   1.781  25.572  0.00  0.00    -0.369 OA
ATOM      8  C   UNL     1      -5.095   1.128  25.528  0.00  0.00    +0.161 C 
ATOM     10  C   UNL     1      -6.239   2.117  25.789  0.00  0.00    +0.145 C 
ATOM     12  C   UNL     1      -3.676   2.897  24.688  0.00  0.00    +0.125 C 
ATOM     13  C   UNL     1      -6.132   3.370  24.924  0.00  0.00    +0.036 C 
ATOM     14  C   UNL     1      -4.727   3.963  24.992  0.00  0.00    +0.034 C 
ENDROOT
BRANCH  10   2
ATOM      2  O   UNL     1      -6.190   2.526  27.158  0.00  0.00    -0.389 OA
ATOM     32  H   UNL     1      -5.292   2.344  27.487  0.00  0.00    +0.210 HD
ENDBRANCH  10   2
BRANCH   8  11
ATOM     11  C   UNL     1      -5.268   0.346  24.227  0.00  0.00    +0.115 C 
BRANCH  11   5
ATOM      5  N   UNL     1      -4.865  -1.042  24.398  0.00  0.00    -0.311 NA
ATOM     31  H   UNL     1      -5.271  -1.598  23.646  0.00  0.00    +0.122 HD
BRANCH   5   9
ATOM      6  N   UNL     1      -0.976  -2.416  25.424  0.00  0.00    -0.305 NA
ATOM      9  C   UNL     1      -3.410  -1.172  24.379  0.00  0.00    +0.056 C 
ATOM     15  C   UNL     1      -2.806  -0.777  25.729  0.00  0.00    +0.034 C 
ATOM     16  C   UNL     1      -3.011  -2.607  24.028  0.00  0.00    +0.034 C 
ATOM     17  C   UNL     1      -1.294  -1.017  25.746  0.00  0.00    +0.085 C 
ATOM     18  C   UNL     1      -1.492  -2.787  24.099  0.00  0.00    +0.085 C 
ATOM     20  C   UNL     1       0.467  -2.640  25.493  0.00  0.00    +0.104 C 
ENDBRANCH   5   9
ENDBRANCH  11   5
ENDBRANCH   8  11
BRANCH  12  19
ATOM     19  C   UNL     1      -2.270   3.452  24.875  0.00  0.00    +0.090 C 
BRANCH  19  21
ATOM      3  O   UNL     1      -0.410   1.006  22.991  0.00  0.00    -0.354 OA
ATOM      7  N   UNL     1      -1.592   1.645  23.347  0.00  0.00    -0.083 NA
ATOM     21  C   UNL     1      -1.231   2.556  24.256  0.00  0.00    +0.087 A 
ATOM     22  C   UNL     1       0.151   2.538  24.511  0.00  0.00    +0.076 A 
ATOM     23  C   UNL     1       0.620   1.546  23.691  0.00  0.00    +0.167 A 
BRANCH  23  24
ATOM     24  C   UNL     1       1.913   0.985  23.426  0.00  0.00    +0.020 A 
ATOM     25  C   UNL     1       2.977   1.818  23.081  0.00  0.00    +0.015 A 
ATOM     26  C   UNL     1       2.107  -0.393  23.516  0.00  0.00    +0.015 A 
ATOM     27  C   UNL     1       4.235   1.273  22.823  0.00  0.00    +0.046 A 
ATOM     28  C   UNL     1       3.366  -0.938  23.259  0.00  0.00    +0.046 A 
ATOM     29  C   UNL     1       4.430  -0.106  22.913  0.00  0.00    +0.120 A 
BRANCH  29   4
ATOM      4  O   UNL     1       5.658  -0.637  22.666  0.00  0.00    -0.495 OA
ATOM     30  C   UNL     1       6.725  -0.234  23.522  0.00  0.00    +0.277 C 
ENDBRANCH  29   4
ENDBRANCH  23  24
ENDBRANCH  19  21
ENDBRANCH  12  19
TORSDOF 8
ENDMDL
MODEL 4
REMARK VINA RESULT:       1.5      1.894      3.058
REMARK  Name = 75536405
REMARK  10 active torsions:
REMARK  status: ('A' for Active; 'I' for Inactive)
REMARK    1  A    between atoms: O_2  and  C_10
REMARK    2  A    between atoms: O_4  and  C_29
REMARK    3  A    between atoms: O_4  and  C_30
REMARK    4  A    between atoms: N_5  and  C_9
REMARK    5  A    between atoms: N_5  and  C_11
REMARK    6  A    between atoms: N_6  and  C_20
REMARK    7  A    between atoms: C_8  and  C_11
REMARK    8  A    between atoms: C_12  and  C_19
REMARK    9  A    between atoms: C_19  and  C_21
REMARK   10  A    between atoms: C_23  and  C_24
REMARK                            x       y       z     vdW  Elec       q    Type
REMARK                         _______ _______ _______ _____ _____    ______ ____
ROOT
ATOM      1  O   UNL     1      -4.714   0.647  23.898  0.00  0.00    -0.369 OA
ATOM      8  C   UNL     1      -5.196   1.961  23.589  0.00  0.00    +0.161 C 
ATOM     10  C   UNL     1      -6.183   2.458  24.654  0.00  0.00    +0.145 C 
ATOM     12  C   UNL     1      -4.111   0.507  25.188  0.00  0.00    +0.125 C 
ATOM     13  C   UNL     1      -5.641   2.293  26.071  0.00  0.00    +0.036 C 
ATOM     14  C   UNL     1      -5.102   0.881  26.288  0.00  0.00    +0.034 C 
ENDROOT
BRANCH  10   2
ATOM      2  O   UNL     1      -7.388   1.696  24.556  0.00  0.00    -0.389 OA
ATOM     32  H   UNL     1      -7.709   1.536  25.460  0.00  0.00    +0.210 HD
ENDBRANCH  10   2
BRANCH   8  11
ATOM     11  C   UNL     1      -4.039   2.929  23.350  0.00  0.00    +0.115 C 
BRANCH  11   5
ATOM      5  N   UNL     1      -4.017   3.972  24.365  0.00  0.00    -0.311 NA
ATOM     31  H   UNL     1      -4.733   3.770  25.061  0.00  0.00    +0.122 HD
BRANCH   5   9
ATOM      6  N   UNL     1      -0.442   2.701  26.280  0.00  0.00    -0.305 NA
ATOM      9  C   UNL     1      -2.708   4.048  25.010  0.00  0.00    +0.056 C 
ATOM     15  C   UNL     1      -2.772   3.519  26.445  0.00  0.00    +0.034 C 
ATOM     16  C   UNL     1      -1.675   3.253  24.206  0.00  0.00    +0.034 C 
ATOM     17  C   UNL     1      -1.381   3.496  27.084  0.00  0.00    +0.085 C 
ATOM     18  C   UNL     1      -0.320   3.239  24.918  0.00  0.00    +0.085 C 
ATOM     20  C   UNL     1       0.868   2.647  26.929  0.00  0.00    +0.104 C 
ENDBRANCH   5   9
ENDBRANCH  11   5
ENDBRANCH   8  11
BRANCH  12  19
ATOM     19  C   UNL     1      -3.664  -0.943  25.330  0.00  0.00    +0.090 C 
BRANCH  19  21
ATOM      3  O   UNL     1      -0.575  -2.201  23.963  0.00  0.00    -0.354 OA
ATOM      7  N   UNL     1      -1.890  -2.362  24.384  0.00  0.00    -0.083 NA
ATOM     21  C   UNL     1      -2.271  -1.151  24.798  0.00  0.00    +0.087 A 
ATOM     22  C   UNL     1      -1.250  -0.194  24.664  0.00  0.00    +0.076 A 
ATOM     23  C   UNL     1      -0.206  -0.905  24.136  0.00  0.00    +0.167 A 
BRANCH  23  24
ATOM     24  C   UNL     1       1.134  -0.583  23.741  0.00  0.00    +0.020 A 
ATOM     25  C   UNL     1       1.409   0.647  23.144  0.00  0.00    +0.015 A 
ATOM     26  C   UNL     1       2.164  -1.499  23.955  0.00  0.00    +0.015 A 
ATOM     27  C   UNL     1       2.713   0.960  22.760  0.00  0.00    +0.046 A 
ATOM     28  C   UNL     1       3.468  -1.185  23.572  0.00  0.00    +0.046 A 
ATOM     29  C   UNL     1       3.743   0.044  22.975  0.00  0.00    +0.120 A 
BRANCH  29   4
ATOM      4  O   UNL     1       5.016   0.352  22.604  0.00  0.00    -0.495 OA
ATOM     30  C   UNL     1       6.062  -0.025  23.498  0.00  0.00    +0.277 C 
ENDBRANCH  29   4
ENDBRANCH  23  24
ENDBRANCH  19  21
ENDBRANCH  12  19
TORSDOF 8
ENDMDL
MODEL 5
REMARK VINA RESULT:       1.6      2.007      3.286
REMARK  Name = 75536405
REMARK  10 active torsions:
REMARK  status: ('A' for Active; 'I' for Inactive)
REMARK    1  A    between atoms: O_2  and  C_10
REMARK    2  A    between atoms: O_4  and  C_29
REMARK    3  A    between atoms: O_4  and  C_30
REMARK    4  A    between atoms: N_5  and  C_9
REMARK    5  A    between atoms: N_5  and  C_11
REMARK    6  A    between atoms: N_6  and  C_20
REMARK    7  A    between atoms: C_8  and  C_11
REMARK    8  A    between atoms: C_12  and  C_19
REMARK    9  A    between atoms: C_19  and  C_21
REMARK   10  A    between atoms: C_23  and  C_24
REMARK                            x       y       z     vdW  Elec       q    Type
REMARK                         _______ _______ _______ _____ _____    ______ ____
ROOT
ATOM      1  O   UNL     1      -4.647   1.513  23.762  0.00  0.00    -0.369 OA
ATOM      8  C   UNL     1      -5.199   2.725  24.292  0.00  0.00    +0.161 C 
ATOM     10  C   UNL     1      -6.320   2.434  25.299  0.00  0.00    +0.145 C 
ATOM     12  C   UNL     1      -4.162   0.586  24.738  0.00  0.00    +0.125 C 
ATOM     13  C   UNL     1      -5.907   1.406  26.349  0.00  0.00    +0.036 C 
ATOM     14  C   UNL     1      -5.282   0.178  25.694  0.00  0.00    +0.034 C 
ENDROOT
BRANCH  10   2
ATOM      2  O   UNL     1      -7.447   1.908  24.593  0.00  0.00    -0.389 OA
ATOM     32  H   UNL     1      -8.110   1.643  25.254  0.00  0.00    +0.210 HD
ENDBRANCH  10   2
BRANCH   8  11
ATOM     11  C   UNL     1      -4.105   3.624  24.863  0.00  0.00    +0.115 C 
BRANCH  11   5
ATOM      5  N   UNL     1      -3.005   3.767  23.919  0.00  0.00    -0.311 NA
ATOM     31  H   UNL     1      -2.900   4.753  23.682  0.00  0.00    +0.122 HD
BRANCH   5   9
ATOM      6  N   UNL     1       0.069   3.031  26.760  0.00  0.00    -0.305 NA
ATOM      9  C   UNL     1      -1.759   3.258  24.486  0.00  0.00    +0.056 C 
ATOM     15  C   UNL     1      -0.843   4.407  24.915  0.00  0.00    +0.034 C 
ATOM     16  C   UNL     1      -2.052   2.349  25.682  0.00  0.00    +0.034 C 
ATOM     17  C   UNL     1       0.415   3.877  25.609  0.00  0.00    +0.085 C 
ATOM     18  C   UNL     1      -0.755   1.885  26.349  0.00  0.00    +0.085 C 
ATOM     20  C   UNL     1       1.280   2.573  27.440  0.00  0.00    +0.104 C 
ENDBRANCH   5   9
ENDBRANCH  11   5
ENDBRANCH   8  11
BRANCH  12  19
ATOM     19  C   UNL     1      -3.618  -0.625  23.990  0.00  0.00    +0.090 C 
BRANCH  19  21
ATOM      3  O   UNL     1      -0.212  -1.381  24.895  0.00  0.00    -0.354 OA
ATOM      7  N   UNL     1      -1.586  -1.513  25.058  0.00  0.00    -0.083 NA
ATOM     21  C   UNL     1      -2.122  -0.731  24.116  0.00  0.00    +0.087 A 
ATOM     22  C   UNL     1      -1.146  -0.088  23.337  0.00  0.00    +0.076 A 
ATOM     23  C   UNL     1       0.037  -0.530  23.867  0.00  0.00    +0.167 A 
BRANCH  23  24
ATOM     24  C   UNL     1       1.422  -0.294  23.577  0.00  0.00    +0.020 A 
ATOM     25  C   UNL     1       2.351  -1.322  23.732  0.00  0.00    +0.015 A 
ATOM     26  C   UNL     1       1.838   0.962  23.138  0.00  0.00    +0.015 A 
ATOM     27  C   UNL     1       3.698  -1.093  23.450  0.00  0.00    +0.046 A 
ATOM     28  C   UNL     1       3.185   1.191  22.855  0.00  0.00    +0.046 A 
ATOM     29  C   UNL     1       4.115   0.163  23.010  0.00  0.00    +0.120 A 
BRANCH  29   4
ATOM      4  O   UNL     1       5.428   0.385  22.731  0.00  0.00    -0.495 OA
ATOM     30  C   UNL     1       6.388  -0.254  23.572  0.00  0.00    +0.277 C 
ENDBRANCH  29   4
ENDBRANCH  23  24
ENDBRANCH  19  21
ENDBRANCH  12  19
TORSDOF 8
ENDMDL
MODEL 6
REMARK VINA RESULT:       2.6      1.779      3.880
REMARK  Name = 75536405
REMARK  10 active torsions:
REMARK  status: ('A' for Active; 'I' for Inactive)
REMARK    1  A    between atoms: O_2  and  C_10
REMARK    2  A    between atoms: O_4  and  C_29
REMARK    3  A    between atoms: O_4  and  C_30
REMARK    4  A    between atoms: N_5  and  C_9
REMARK    5  A    between atoms: N_5  and  C_11
REMARK    6  A    between atoms: N_6  and  C_20
REMARK    7  A    between atoms: C_8  and  C_11
REMARK    8  A    between atoms: C_12  and  C_19
REMARK    9  A    between atoms: C_19  and  C_21
REMARK   10  A    between atoms: C_23  and  C_24
REMARK                            x       y       z     vdW  Elec       q    Type
REMARK                         _______ _______ _______ _____ _____    ______ ____
ROOT
ATOM      1  O   UNL     1      -3.346   2.012  24.694  0.00  0.00    -0.369 OA
ATOM      8  C   UNL     1      -4.096   2.476  25.825  0.00  0.00    +0.161 C 
ATOM     10  C   UNL     1      -4.038   4.005  25.944  0.00  0.00    +0.145 C 
ATOM     12  C   UNL     1      -3.719   2.588  23.439  0.00  0.00    +0.125 C 
ATOM     13  C   UNL     1      -4.367   4.704  24.627  0.00  0.00    +0.036 C 
ATOM     14  C   UNL     1      -3.562   4.107  23.476  0.00  0.00    +0.034 C 
ENDROOT
BRANCH  10   2
ATOM      2  O   UNL     1      -2.712   4.387  26.321  0.00  0.00    -0.389 OA
ATOM     32  H   UNL     1      -2.726   5.340  26.516  0.00  0.00    +0.210 HD
ENDBRANCH  10   2
BRANCH   8  11
ATOM     11  C   UNL     1      -5.524   1.935  25.797  0.00  0.00    +0.115 C 
BRANCH  11   5
ATOM      5  N   UNL     1      -5.526   0.480  25.756  0.00  0.00    -0.311 NA
ATOM     31  H   UNL     1      -6.297   0.168  25.166  0.00  0.00    +0.122 HD
BRANCH   5   9
ATOM      6  N   UNL     1      -2.511  -2.302  24.648  0.00  0.00    -0.305 NA
ATOM      9  C   UNL     1      -4.263  -0.033  25.231  0.00  0.00    +0.056 C 
ATOM     15  C   UNL     1      -3.466  -0.750  26.323  0.00  0.00    +0.034 C 
ATOM     16  C   UNL     1      -4.524  -0.986  24.062  0.00  0.00    +0.034 C 
ATOM     17  C   UNL     1      -2.194  -1.382  25.749  0.00  0.00    +0.085 C 
ATOM     18  C   UNL     1      -3.218  -1.610  23.562  0.00  0.00    +0.085 C 
ATOM     20  C   UNL     1      -1.292  -2.934  24.144  0.00  0.00    +0.104 C 
ENDBRANCH   5   9
ENDBRANCH  11   5
ENDBRANCH   8  11
BRANCH  12  19
ATOM     19  C   UNL     1      -2.821   1.976  22.370  0.00  0.00    +0.090 C 
BRANCH  19  21
ATOM      3  O   UNL     1       0.352   2.088  24.075  0.00  0.00    -0.354 OA
ATOM      7  N   UNL     1      -0.947   2.534  23.865  0.00  0.00    -0.083 NA
ATOM     21  C   UNL     1      -1.417   1.773  22.872  0.00  0.00    +0.087 A 
ATOM     22  C   UNL     1      -0.469   0.839  22.420  0.00  0.00    +0.076 A 
ATOM     23  C   UNL     1       0.625   1.079  23.208  0.00  0.00    +0.167 A 
BRANCH  23  24
ATOM     24  C   UNL     1       1.939   0.512  23.308  0.00  0.00    +0.020 A 
ATOM     25  C   UNL     1       3.060   1.305  23.064  0.00  0.00    +0.015 A 
ATOM     26  C   UNL     1       2.095  -0.831  23.648  0.00  0.00    +0.015 A 
ATOM     27  C   UNL     1       4.338   0.753  23.161  0.00  0.00    +0.046 A 
ATOM     28  C   UNL     1       3.372  -1.382  23.746  0.00  0.00    +0.046 A 
ATOM     29  C   UNL     1       4.494  -0.590  23.502  0.00  0.00    +0.120 A 
BRANCH  29   4
ATOM      4  O   UNL     1       5.741  -1.127  23.600  0.00  0.00    -0.495 OA
ATOM     30  C   UNL     1       6.827  -0.337  23.119  0.00  0.00    +0.277 C 
ENDBRANCH  29   4
ENDBRANCH  23  24
ENDBRANCH  19  21
ENDBRANCH  12  19
TORSDOF 8
ENDMDL
