MODEL 1
REMARK VINA RESULT:      -5.4      0.000      0.000
REMARK  Name = 45784337
REMARK  3 active torsions:
REMARK  status: ('A' for Active; 'I' for Inactive)
REMARK    1  A    between atoms: N_3  and  C_9
REMARK    2  A    between atoms: C_5  and  C_10
REMARK    3  A    between atoms: C_9  and  C_11
REMARK                            x       y       z     vdW  Elec       q    Type
REMARK                         _______ _______ _______ _____ _____    ______ ____
ROOT
ATOM      3  N   UNL     1       0.712  -0.490  23.763  0.00  0.00    -0.297 NA
ATOM      5  C   UNL     1      -1.037   0.192  25.167  0.00  0.00    +0.090 C 
ATOM      6  C   UNL     1      -1.325  -1.223  24.636  0.00  0.00    +0.029 C 
ATOM      7  C   UNL     1       0.072   0.731  24.253  0.00  0.00    +0.097 C 
ATOM      8  C   UNL     1      -0.393  -1.394  23.443  0.00  0.00    +0.085 C 
ENDROOT
BRANCH   5  10
ATOM      1  F   UNL     1      -6.389   5.031  25.560  0.00  0.00    -0.205 F 
ATOM      2  O   UNL     1      -3.454   0.495  25.117  0.00  0.00    -0.439 OA
ATOM      4  N   UNL     1      -2.271   2.409  25.390  0.00  0.00    -0.213 NA
ATOM     10  C   UNL     1      -2.241   1.103  25.234  0.00  0.00    +0.201 A 
ATOM     12  C   UNL     1      -3.614   2.698  25.377  0.00  0.00    +0.112 A 
ATOM     13  C   UNL     1      -4.341   1.529  25.210  0.00  0.00    +0.156 A 
ATOM     16  C   UNL     1      -4.302   3.912  25.499  0.00  0.00    +0.070 A 
ATOM     17  C   UNL     1      -5.728   1.461  25.151  0.00  0.00    +0.051 A 
ATOM     20  C   UNL     1      -5.704   3.885  25.446  0.00  0.00    +0.126 A 
ATOM     21  C   UNL     1      -6.400   2.681  25.275  0.00  0.00    +0.042 A 
ENDBRANCH   5  10
BRANCH   3   9
ATOM      9  C   UNL     1       1.575  -0.243  22.615  0.00  0.00    +0.119 C 
BRANCH   9  11
ATOM     11  C   UNL     1       3.028  -0.212  23.004  0.00  0.00    -0.033 A 
ATOM     14  C   UNL     1       3.617  -1.331  23.593  0.00  0.00    +0.005 A 
ATOM     15  C   UNL     1       3.786   0.937  22.778  0.00  0.00    +0.005 A 
ATOM     18  C   UNL     1       4.964  -1.301  23.954  0.00  0.00    +0.000 A 
ATOM     19  C   UNL     1       5.133   0.967  23.139  0.00  0.00    +0.000 A 
ATOM     22  C   UNL     1       5.722  -0.152  23.727  0.00  0.00    +0.000 A 
ENDBRANCH   9  11
ENDBRANCH   3   9
TORSDOF 3
ENDMDL
MODEL 2
REMARK VINA RESULT:      -4.3      3.350      7.374
REMARK  Name = 45784337
REMARK  3 active torsions:
REMARK  status: ('A' for Active; 'I' for Inactive)
REMARK    1  A    between atoms: N_3  and  C_9
REMARK    2  A    between atoms: C_5  and  C_10
REMARK    3  A    between atoms: C_9  and  C_11
REMARK                            x       y       z     vdW  Elec       q    Type
REMARK                         _______ _______ _______ _____ _____    ______ ____
ROOT
ATOM      3  N   UNL     1      -3.777   1.929  25.203  0.00  0.00    -0.297 NA
ATOM      5  C   UNL     1      -1.513   2.428  24.855  0.00  0.00    +0.090 C 
ATOM      6  C   UNL     1      -2.380   3.297  23.928  0.00  0.00    +0.029 C 
ATOM      7  C   UNL     1      -2.454   1.316  25.337  0.00  0.00    +0.097 C 
ATOM      8  C   UNL     1      -3.745   2.619  23.914  0.00  0.00    +0.085 C 
ENDROOT
BRANCH   5  10
ATOM      1  F   UNL     1       4.855   0.345  22.148  0.00  0.00    -0.205 F 
ATOM      2  O   UNL     1      -0.396   0.815  23.409  0.00  0.00    -0.439 OA
ATOM      4  N   UNL     1       0.984   2.339  24.362  0.00  0.00    -0.213 NA
ATOM     10  C   UNL     1      -0.246   1.895  24.225  0.00  0.00    +0.201 A 
ATOM     12  C   UNL     1       1.718   1.487  23.572  0.00  0.00    +0.112 A 
ATOM     13  C   UNL     1       0.876   0.553  22.988  0.00  0.00    +0.156 A 
ATOM     16  C   UNL     1       3.090   1.430  23.295  0.00  0.00    +0.070 A 
ATOM     17  C   UNL     1       1.291  -0.459  22.131  0.00  0.00    +0.051 A 
ATOM     20  C   UNL     1       3.548   0.423  22.432  0.00  0.00    +0.126 A 
ATOM     21  C   UNL     1       2.663  -0.502  21.863  0.00  0.00    +0.042 A 
ENDBRANCH   5  10
BRANCH   3   9
ATOM      9  C   UNL     1      -4.852   0.949  25.280  0.00  0.00    +0.119 C 
BRANCH   9  11
ATOM     11  C   UNL     1      -4.354  -0.450  25.035  0.00  0.00    -0.033 A 
ATOM     14  C   UNL     1      -4.604  -1.075  23.813  0.00  0.00    +0.005 A 
ATOM     15  C   UNL     1      -3.645  -1.122  26.030  0.00  0.00    +0.005 A 
ATOM     18  C   UNL     1      -4.143  -2.372  23.586  0.00  0.00    +0.000 A 
ATOM     19  C   UNL     1      -3.185  -2.419  25.803  0.00  0.00    +0.000 A 
ATOM     22  C   UNL     1      -3.433  -3.044  24.581  0.00  0.00    +0.000 A 
ENDBRANCH   9  11
ENDBRANCH   3   9
TORSDOF 3
ENDMDL
MODEL 3
REMARK VINA RESULT:      -2.7      0.954      1.759
REMARK  Name = 45784337
REMARK  3 active torsions:
REMARK  status: ('A' for Active; 'I' for Inactive)
REMARK    1  A    between atoms: N_3  and  C_9
REMARK    2  A    between atoms: C_5  and  C_10
REMARK    3  A    between atoms: C_9  and  C_11
REMARK                            x       y       z     vdW  Elec       q    Type
REMARK                         _______ _______ _______ _____ _____    ______ ____
ROOT
ATOM      3  N   UNL     1       1.056  -0.303  23.485  0.00  0.00    -0.297 NA
ATOM      5  C   UNL     1      -0.838   0.081  24.812  0.00  0.00    +0.090 C 
ATOM      6  C   UNL     1      -1.089  -1.129  23.895  0.00  0.00    +0.029 C 
ATOM      7  C   UNL     1       0.386   0.780  24.206  0.00  0.00    +0.097 C 
ATOM      8  C   UNL     1      -0.020  -1.032  22.814  0.00  0.00    +0.085 C 
ENDROOT
BRANCH   5  10
ATOM      1  F   UNL     1      -6.861   3.983  25.665  0.00  0.00    -0.205 F 
ATOM      2  O   UNL     1      -1.745   2.339  24.953  0.00  0.00    -0.439 OA
ATOM      4  N   UNL     1      -3.287   0.691  25.153  0.00  0.00    -0.213 NA
ATOM     10  C   UNL     1      -2.022   1.006  24.981  0.00  0.00    +0.201 A 
ATOM     12  C   UNL     1      -3.908   1.914  25.247  0.00  0.00    +0.112 A 
ATOM     13  C   UNL     1      -2.966   2.924  25.125  0.00  0.00    +0.156 A 
ATOM     16  C   UNL     1      -5.253   2.260  25.434  0.00  0.00    +0.070 A 
ATOM     17  C   UNL     1      -3.252   4.283  25.175  0.00  0.00    +0.051 A 
ATOM     20  C   UNL     1      -5.582   3.622  25.489  0.00  0.00    +0.126 A 
ATOM     21  C   UNL     1      -4.599   4.612  25.361  0.00  0.00    +0.042 A 
ENDBRANCH   5  10
BRANCH   3   9
ATOM      9  C   UNL     1       2.059   0.189  22.551  0.00  0.00    +0.119 C 
BRANCH   9  11
ATOM     11  C   UNL     1       3.456  -0.148  23.000  0.00  0.00    -0.033 A 
ATOM     14  C   UNL     1       4.488   0.771  22.816  0.00  0.00    +0.005 A 
ATOM     15  C   UNL     1       3.717  -1.380  23.599  0.00  0.00    +0.005 A 
ATOM     18  C   UNL     1       5.783   0.458  23.231  0.00  0.00    +0.000 A 
ATOM     19  C   UNL     1       5.011  -1.693  24.014  0.00  0.00    +0.000 A 
ATOM     22  C   UNL     1       6.044  -0.774  23.831  0.00  0.00    +0.000 A 
ENDBRANCH   9  11
ENDBRANCH   3   9
TORSDOF 3
ENDMDL
MODEL 4
REMARK VINA RESULT:      -2.2      1.599      2.089
REMARK  Name = 45784337
REMARK  3 active torsions:
REMARK  status: ('A' for Active; 'I' for Inactive)
REMARK    1  A    between atoms: N_3  and  C_9
REMARK    2  A    between atoms: C_5  and  C_10
REMARK    3  A    between atoms: C_9  and  C_11
REMARK                            x       y       z     vdW  Elec       q    Type
REMARK                         _______ _______ _______ _____ _____    ______ ____
ROOT
ATOM      3  N   UNL     1       0.889   0.863  22.952  0.00  0.00    -0.297 NA
ATOM      5  C   UNL     1      -1.015   2.158  23.392  0.00  0.00    +0.090 C 
ATOM      6  C   UNL     1       0.157   2.657  24.254  0.00  0.00    +0.029 C 
ATOM      7  C   UNL     1      -0.571   0.775  22.897  0.00  0.00    +0.097 C 
ATOM      8  C   UNL     1       1.179   1.527  24.222  0.00  0.00    +0.085 C 
ENDROOT
BRANCH   5  10
ATOM      1  F   UNL     1      -7.350   1.396  26.785  0.00  0.00    -0.205 F 
ATOM      2  O   UNL     1      -2.952   3.340  24.282  0.00  0.00    -0.439 OA
ATOM      4  N   UNL     1      -3.016   1.090  24.551  0.00  0.00    -0.213 NA
ATOM     10  C   UNL     1      -2.353   2.131  24.095  0.00  0.00    +0.201 A 
ATOM     12  C   UNL     1      -4.152   1.648  25.086  0.00  0.00    +0.112 A 
ATOM     13  C   UNL     1      -4.115   3.025  24.924  0.00  0.00    +0.156 A 
ATOM     16  C   UNL     1      -5.257   1.071  25.725  0.00  0.00    +0.070 A 
ATOM     17  C   UNL     1      -5.107   3.899  25.353  0.00  0.00    +0.051 A 
ATOM     20  C   UNL     1      -6.280   1.920  26.171  0.00  0.00    +0.126 A 
ATOM     21  C   UNL     1      -6.203   3.306  25.987  0.00  0.00    +0.042 A 
ENDBRANCH   5  10
BRANCH   3   9
ATOM      9  C   UNL     1       1.528  -0.442  22.851  0.00  0.00    +0.119 C 
BRANCH   9  11
ATOM     11  C   UNL     1       3.003  -0.367  23.141  0.00  0.00    -0.033 A 
ATOM     14  C   UNL     1       3.653  -1.449  23.735  0.00  0.00    +0.005 A 
ATOM     15  C   UNL     1       3.720   0.784  22.818  0.00  0.00    +0.005 A 
ATOM     18  C   UNL     1       5.019  -1.380  24.005  0.00  0.00    +0.000 A 
ATOM     19  C   UNL     1       5.086   0.854  23.088  0.00  0.00    +0.000 A 
ATOM     22  C   UNL     1       5.736  -0.228  23.681  0.00  0.00    +0.000 A 
ENDBRANCH   9  11
ENDBRANCH   3   9
TORSDOF 3
ENDMDL
MODEL 5
REMARK VINA RESULT:      -2.0      3.589      6.806
REMARK  Name = 45784337
REMARK  3 active torsions:
REMARK  status: ('A' for Active; 'I' for Inactive)
REMARK    1  A    between atoms: N_3  and  C_9
REMARK    2  A    between atoms: C_5  and  C_10
REMARK    3  A    between atoms: C_9  and  C_11
REMARK                            x       y       z     vdW  Elec       q    Type
REMARK                         _______ _______ _______ _____ _____    ______ ____
ROOT
ATOM      3  N   UNL     1      -0.255   3.602  25.263  0.00  0.00    -0.297 NA
ATOM      5  C   UNL     1      -0.188   1.259  25.205  0.00  0.00    +0.090 C 
ATOM      6  C   UNL     1       0.592   1.827  24.006  0.00  0.00    +0.029 C 
ATOM      7  C   UNL     1      -1.020   2.440  25.721  0.00  0.00    +0.097 C 
ATOM      8  C   UNL     1       0.140   3.278  23.893  0.00  0.00    +0.085 C 
ENDROOT
BRANCH   5  10
ATOM      1  F   UNL     1      -3.658  -4.922  23.799  0.00  0.00    -0.205 F 
ATOM      2  O   UNL     1      -2.347   0.266  24.664  0.00  0.00    -0.439 OA
ATOM      4  N   UNL     1      -0.642  -1.218  24.826  0.00  0.00    -0.213 NA
ATOM     10  C   UNL     1      -1.024   0.038  24.897  0.00  0.00    +0.201 A 
ATOM     12  C   UNL     1      -1.803  -1.885  24.519  0.00  0.00    +0.112 A 
ATOM     13  C   UNL     1      -2.849  -0.979  24.420  0.00  0.00    +0.156 A 
ATOM     16  C   UNL     1      -2.064  -3.246  24.309  0.00  0.00    +0.070 A 
ATOM     17  C   UNL     1      -4.163  -1.318  24.123  0.00  0.00    +0.051 A 
ATOM     20  C   UNL     1      -3.379  -3.627  24.006  0.00  0.00    +0.126 A 
ATOM     21  C   UNL     1      -4.406  -2.679  23.915  0.00  0.00    +0.042 A 
ENDBRANCH   5  10
BRANCH   3   9
ATOM      9  C   UNL     1      -1.022   4.837  25.341  0.00  0.00    +0.119 C 
BRANCH   9  11
ATOM     11  C   UNL     1      -2.505   4.579  25.306  0.00  0.00    -0.033 A 
ATOM     14  C   UNL     1      -3.224   4.475  26.496  0.00  0.00    +0.005 A 
ATOM     15  C   UNL     1      -3.159   4.441  24.082  0.00  0.00    +0.005 A 
ATOM     18  C   UNL     1      -4.597   4.234  26.463  0.00  0.00    +0.000 A 
ATOM     19  C   UNL     1      -4.532   4.200  24.049  0.00  0.00    +0.000 A 
ATOM     22  C   UNL     1      -5.252   4.097  25.239  0.00  0.00    +0.000 A 
ENDBRANCH   9  11
ENDBRANCH   3   9
TORSDOF 3
ENDMDL
MODEL 6
REMARK VINA RESULT:      -1.9      3.517      8.718
REMARK  Name = 45784337
REMARK  3 active torsions:
REMARK  status: ('A' for Active; 'I' for Inactive)
REMARK    1  A    between atoms: N_3  and  C_9
REMARK    2  A    between atoms: C_5  and  C_10
REMARK    3  A    between atoms: C_9  and  C_11
REMARK                            x       y       z     vdW  Elec       q    Type
REMARK                         _______ _______ _______ _____ _____    ______ ____
ROOT
ATOM      3  N   UNL     1      -1.673   1.453  24.116  0.00  0.00    -0.297 NA
ATOM      5  C   UNL     1       0.138   0.276  23.206  0.00  0.00    +0.090 C 
ATOM      6  C   UNL     1      -0.622  -0.630  24.191  0.00  0.00    +0.029 C 
ATOM      7  C   UNL     1      -0.358   1.693  23.521  0.00  0.00    +0.097 C 
ATOM      8  C   UNL     1      -1.478   0.320  25.020  0.00  0.00    +0.085 C 
ENDROOT
BRANCH   5  10
ATOM      1  F   UNL     1       7.364   0.296  23.306  0.00  0.00    -0.205 F 
ATOM      2  O   UNL     1       2.128  -1.072  23.613  0.00  0.00    -0.439 OA
ATOM      4  N   UNL     1       2.549   1.074  23.018  0.00  0.00    -0.213 NA
ATOM     10  C   UNL     1       1.644   0.152  23.263  0.00  0.00    +0.201 A 
ATOM     12  C   UNL     1       3.737   0.413  23.221  0.00  0.00    +0.112 A 
ATOM     13  C   UNL     1       3.482  -0.901  23.585  0.00  0.00    +0.156 A 
ATOM     16  C   UNL     1       5.067   0.842  23.120  0.00  0.00    +0.070 A 
ATOM     17  C   UNL     1       4.459  -1.848  23.866  0.00  0.00    +0.051 A 
ATOM     20  C   UNL     1       6.082  -0.086  23.395  0.00  0.00    +0.126 A 
ATOM     21  C   UNL     1       5.781  -1.404  23.760  0.00  0.00    +0.042 A 
ENDBRANCH   5  10
BRANCH   3   9
ATOM      9  C   UNL     1      -2.194   2.627  24.804  0.00  0.00    +0.119 C 
BRANCH   9  11
ATOM     11  C   UNL     1      -3.677   2.524  25.042  0.00  0.00    -0.033 A 
ATOM     14  C   UNL     1      -4.384   3.626  25.523  0.00  0.00    +0.005 A 
ATOM     15  C   UNL     1      -4.344   1.327  24.782  0.00  0.00    +0.005 A 
ATOM     18  C   UNL     1      -5.758   3.531  25.745  0.00  0.00    +0.000 A 
ATOM     19  C   UNL     1      -5.717   1.232  25.004  0.00  0.00    +0.000 A 
ATOM     22  C   UNL     1      -6.424   2.333  25.484  0.00  0.00    +0.000 A 
ENDBRANCH   9  11
ENDBRANCH   3   9
TORSDOF 3
ENDMDL
MODEL 7
REMARK VINA RESULT:      -1.9      3.497      7.499
REMARK  Name = 45784337
REMARK  3 active torsions:
REMARK  status: ('A' for Active; 'I' for Inactive)
REMARK    1  A    between atoms: N_3  and  C_9
REMARK    2  A    between atoms: C_5  and  C_10
REMARK    3  A    between atoms: C_9  and  C_11
REMARK                            x       y       z     vdW  Elec       q    Type
REMARK                         _______ _______ _______ _____ _____    ______ ____
ROOT
ATOM      3  N   UNL     1      -2.872   0.139  24.588  0.00  0.00    -0.297 NA
ATOM      5  C   UNL     1      -0.930  -0.821  23.694  0.00  0.00    +0.090 C 
ATOM      6  C   UNL     1      -1.380  -1.624  24.927  0.00  0.00    +0.029 C 
ATOM      7  C   UNL     1      -1.701   0.503  23.790  0.00  0.00    +0.097 C 
ATOM      8  C   UNL     1      -2.351  -0.707  25.661  0.00  0.00    +0.085 C 
ENDROOT
BRANCH   5  10
ATOM      1  F   UNL     1       6.280  -0.477  23.350  0.00  0.00    -0.205 F 
ATOM      2  O   UNL     1       0.970   0.584  23.098  0.00  0.00    -0.439 OA
ATOM      4  N   UNL     1       1.526  -1.473  23.871  0.00  0.00    -0.213 NA
ATOM     10  C   UNL     1       0.565  -0.625  23.575  0.00  0.00    +0.201 A 
ATOM     12  C   UNL     1       2.669  -0.772  23.569  0.00  0.00    +0.112 A 
ATOM     13  C   UNL     1       2.332   0.487  23.095  0.00  0.00    +0.156 A 
ATOM     16  C   UNL     1       4.023  -1.121  23.662  0.00  0.00    +0.070 A 
ATOM     17  C   UNL     1       3.248   1.454  22.696  0.00  0.00    +0.051 A 
ATOM     20  C   UNL     1       4.977  -0.172  23.270  0.00  0.00    +0.126 A 
ATOM     21  C   UNL     1       4.595   1.090  22.797  0.00  0.00    +0.042 A 
ENDBRANCH   5  10
BRANCH   3   9
ATOM      9  C   UNL     1      -3.580   1.306  25.098  0.00  0.00    +0.119 C 
BRANCH   9  11
ATOM     11  C   UNL     1      -2.704   2.530  25.113  0.00  0.00    -0.033 A 
ATOM     14  C   UNL     1      -1.377   2.433  25.530  0.00  0.00    +0.005 A 
ATOM     15  C   UNL     1      -3.220   3.761  24.710  0.00  0.00    +0.005 A 
ATOM     18  C   UNL     1      -0.566   3.567  25.545  0.00  0.00    +0.000 A 
ATOM     19  C   UNL     1      -2.409   4.896  24.725  0.00  0.00    +0.000 A 
ATOM     22  C   UNL     1      -1.082   4.799  25.141  0.00  0.00    +0.000 A 
ENDBRANCH   9  11
ENDBRANCH   3   9
TORSDOF 3
ENDMDL
