MODEL 1
REMARK VINA RESULT:      -3.3      0.000      0.000
REMARK  Name = 75536746
REMARK  5 active torsions:
REMARK  status: ('A' for Active; 'I' for Inactive)
REMARK    1  A    between atoms: O_2  and  C_10
REMARK    2  A    between atoms: N_6  and  C_9
REMARK    3  A    between atoms: N_6  and  C_12
REMARK    4  A    between atoms: N_7  and  C_16
REMARK    5  A    between atoms: C_11  and  C_16
REMARK                            x       y       z     vdW  Elec       q    Type
REMARK                         _______ _______ _______ _____ _____    ______ ____
ROOT
ATOM      1  O   UNL     1      -5.732   3.223  25.845  0.00  0.00    -0.371 OA
ATOM      9  C   UNL     1      -3.935   4.090  24.554  0.00  0.00    +0.111 C 
ATOM     10  C   UNL     1      -4.097   2.611  24.249  0.00  0.00    +0.164 C 
ATOM     11  C   UNL     1      -5.530   2.373  24.704  0.00  0.00    +0.165 C 
ATOM     13  C   UNL     1      -4.683   4.208  25.872  0.00  0.00    +0.181 C 
ENDROOT
BRANCH  10   2
ATOM      2  O   UNL     1      -3.922   2.315  22.877  0.00  0.00    -0.388 OA
ATOM     25  H   UNL     1      -3.084   2.709  22.583  0.00  0.00    +0.210 HD
ENDBRANCH  10   2
BRANCH   9   6
ATOM      6  N   UNL     1      -2.549   4.517  24.649  0.00  0.00    -0.306 NA
ATOM     24  H   UNL     1      -2.448   5.219  25.382  0.00  0.00    +0.123 HD
BRANCH   6  12
ATOM      3  O   UNL     1       0.942   2.409  25.648  0.00  0.00    -0.380 OA
ATOM     12  C   UNL     1      -1.669   3.384  24.926  0.00  0.00    +0.058 C 
ATOM     14  C   UNL     1      -0.496   3.368  23.940  0.00  0.00    +0.047 C 
ATOM     15  C   UNL     1      -1.144   3.431  26.364  0.00  0.00    +0.047 C 
ATOM     17  C   UNL     1       0.487   2.261  24.303  0.00  0.00    +0.161 C 
ATOM     18  C   UNL     1      -0.125   2.321  26.593  0.00  0.00    +0.161 C 
ENDBRANCH   6  12
ENDBRANCH   9   6
BRANCH  11  16
ATOM     16  C   UNL     1      -5.807   0.929  25.085  0.00  0.00    +0.140 C 
BRANCH  16   7
ATOM      4  O   UNL     1      -0.340  -2.428  25.289  0.00  0.00    -0.377 OA
ATOM      5  O   UNL     1      -4.940  -1.406  23.776  0.00  0.00    -0.253 OA
ATOM      7  N   UNL     1      -4.582   0.212  25.363  0.00  0.00    -0.297 N 
ATOM      8  N   UNL     1      -3.008  -1.525  25.056  0.00  0.00    -0.281 N 
ATOM     19  C   UNL     1      -4.225  -0.938  24.669  0.00  0.00    +0.302 C 
ATOM     20  C   UNL     1      -2.557  -2.745  24.382  0.00  0.00    +0.137 C 
ATOM     21  C   UNL     1      -2.178  -1.123  26.201  0.00  0.00    +0.137 C 
ATOM     22  C   UNL     1      -1.067  -2.685  24.086  0.00  0.00    +0.179 C 
ATOM     23  C   UNL     1      -0.698  -1.158  25.835  0.00  0.00    +0.179 C 
ATOM     26  H   UNL     1      -4.009   0.586  26.104  0.00  0.00    +0.150 HD
ENDBRANCH  16   7
ENDBRANCH  11  16
TORSDOF 5
ENDMDL
MODEL 2
REMARK VINA RESULT:      -2.9      1.554      4.454
REMARK  Name = 75536746
REMARK  5 active torsions:
REMARK  status: ('A' for Active; 'I' for Inactive)
REMARK    1  A    between atoms: O_2  and  C_10
REMARK    2  A    between atoms: N_6  and  C_9
REMARK    3  A    between atoms: N_6  and  C_12
REMARK    4  A    between atoms: N_7  and  C_16
REMARK    5  A    between atoms: C_11  and  C_16
REMARK                            x       y       z     vdW  Elec       q    Type
REMARK                         _______ _______ _______ _____ _____    ______ ____
ROOT
ATOM      1  O   UNL     1       0.108   3.881  23.719  0.00  0.00    -0.371 OA
ATOM      9  C   UNL     1      -1.302   4.306  25.584  0.00  0.00    +0.111 C 
ATOM     10  C   UNL     1      -0.923   2.836  25.574  0.00  0.00    +0.164 C 
ATOM     11  C   UNL     1       0.330   2.862  24.709  0.00  0.00    +0.165 C 
ATOM     13  C   UNL     1      -0.989   4.706  24.152  0.00  0.00    +0.181 C 
ENDROOT
BRANCH  10   2
ATOM      2  O   UNL     1      -0.659   2.333  26.870  0.00  0.00    -0.388 OA
ATOM     25  H   UNL     1      -1.025   1.435  26.930  0.00  0.00    +0.210 HD
ENDBRANCH  10   2
BRANCH   9   6
ATOM      6  N   UNL     1      -2.688   4.548  25.948  0.00  0.00    -0.306 NA
ATOM     24  H   UNL     1      -3.033   5.385  25.480  0.00  0.00    +0.123 HD
BRANCH   6  12
ATOM      3  O   UNL     1      -6.030   2.403  24.583  0.00  0.00    -0.380 OA
ATOM     12  C   UNL     1      -3.530   3.405  25.599  0.00  0.00    +0.058 C 
ATOM     14  C   UNL     1      -4.819   3.420  26.428  0.00  0.00    +0.047 C 
ATOM     15  C   UNL     1      -3.867   3.404  24.105  0.00  0.00    +0.047 C 
ATOM     17  C   UNL     1      -5.750   2.300  25.979  0.00  0.00    +0.161 C 
ATOM     18  C   UNL     1      -4.852   2.285  23.785  0.00  0.00    +0.161 C 
ENDBRANCH   6  12
ENDBRANCH   9   6
BRANCH  11  16
ATOM     16  C   UNL     1       0.614   1.536  24.025  0.00  0.00    +0.140 C 
BRANCH  16   7
ATOM      4  O   UNL     1      -4.403  -2.454  24.346  0.00  0.00    -0.377 OA
ATOM      5  O   UNL     1       0.362  -1.175  24.734  0.00  0.00    -0.253 OA
ATOM      7  N   UNL     1      -0.585   0.739  23.898  0.00  0.00    -0.297 N 
ATOM      8  N   UNL     1      -1.864  -1.241  24.083  0.00  0.00    -0.281 N 
ATOM     19  C   UNL     1      -0.628  -0.598  24.272  0.00  0.00    +0.302 C 
ATOM     20  C   UNL     1      -1.997  -2.654  24.444  0.00  0.00    +0.137 C 
ATOM     21  C   UNL     1      -3.039  -0.676  23.403  0.00  0.00    +0.137 C 
ATOM     22  C   UNL     1      -3.316  -2.914  25.154  0.00  0.00    +0.179 C 
ATOM     23  C   UNL     1      -4.321  -1.043  24.143  0.00  0.00    +0.179 C 
ATOM     26  H   UNL     1      -1.388   1.208  23.503  0.00  0.00    +0.150 HD
ENDBRANCH  16   7
ENDBRANCH  11  16
TORSDOF 5
ENDMDL
MODEL 3
REMARK VINA RESULT:      -2.0      1.692      5.961
REMARK  Name = 75536746
REMARK  5 active torsions:
REMARK  status: ('A' for Active; 'I' for Inactive)
REMARK    1  A    between atoms: O_2  and  C_10
REMARK    2  A    between atoms: N_6  and  C_9
REMARK    3  A    between atoms: N_6  and  C_12
REMARK    4  A    between atoms: N_7  and  C_16
REMARK    5  A    between atoms: C_11  and  C_16
REMARK                            x       y       z     vdW  Elec       q    Type
REMARK                         _______ _______ _______ _____ _____    ______ ____
ROOT
ATOM      1  O   UNL     1      -0.267   1.455  25.832  0.00  0.00    -0.371 OA
ATOM      9  C   UNL     1       0.142  -0.498  24.542  0.00  0.00    +0.111 C 
ATOM     10  C   UNL     1       0.140   0.711  23.623  0.00  0.00    +0.164 C 
ATOM     11  C   UNL     1       0.402   1.834  24.617  0.00  0.00    +0.165 C 
ATOM     13  C   UNL     1      -0.577   0.052  25.763  0.00  0.00    +0.181 C 
ENDROOT
BRANCH  10   2
ATOM      2  O   UNL     1       1.144   0.641  22.629  0.00  0.00    -0.388 OA
ATOM     25  H   UNL     1       1.809  -0.008  22.911  0.00  0.00    +0.210 HD
ENDBRANCH  10   2
BRANCH   9   6
ATOM      6  N   UNL     1      -0.517  -1.662  23.974  0.00  0.00    -0.306 NA
ATOM     24  H   UNL     1       0.002  -2.508  24.208  0.00  0.00    +0.123 HD
BRANCH   6  12
ATOM      3  O   UNL     1      -4.663  -2.320  23.904  0.00  0.00    -0.380 OA
ATOM     12  C   UNL     1      -1.891  -1.776  24.458  0.00  0.00    +0.058 C 
ATOM     14  C   UNL     1      -2.796  -0.775  23.732  0.00  0.00    +0.047 C 
ATOM     15  C   UNL     1      -2.426  -3.199  24.270  0.00  0.00    +0.047 C 
ATOM     17  C   UNL     1      -4.249  -0.976  24.147  0.00  0.00    +0.161 C 
ATOM     18  C   UNL     1      -3.900  -3.265  24.655  0.00  0.00    +0.161 C 
ENDBRANCH   6  12
ENDBRANCH   9   6
BRANCH  11  16
ATOM     16  C   UNL     1      -0.113   3.184  24.147  0.00  0.00    +0.140 C 
BRANCH  16   7
ATOM      4  O   UNL     1      -6.309   3.214  25.822  0.00  0.00    -0.377 OA
ATOM      5  O   UNL     1      -2.429   2.123  22.951  0.00  0.00    -0.253 OA
ATOM      7  N   UNL     1      -1.470   3.414  24.588  0.00  0.00    -0.297 N 
ATOM      8  N   UNL     1      -3.820   3.171  24.483  0.00  0.00    -0.281 N 
ATOM     19  C   UNL     1      -2.564   2.851  23.941  0.00  0.00    +0.302 C 
ATOM     20  C   UNL     1      -5.028   2.627  23.859  0.00  0.00    +0.137 C 
ATOM     21  C   UNL     1      -4.078   4.143  25.556  0.00  0.00    +0.137 C 
ATOM     22  C   UNL     1      -6.018   2.152  24.911  0.00  0.00    +0.179 C 
ATOM     23  C   UNL     1      -5.131   3.615  26.524  0.00  0.00    +0.179 C 
ATOM     26  H   UNL     1      -1.580   4.023  25.386  0.00  0.00    +0.150 HD
ENDBRANCH  16   7
ENDBRANCH  11  16
TORSDOF 5
ENDMDL
MODEL 4
REMARK VINA RESULT:      -1.9      2.350      4.140
REMARK  Name = 75536746
REMARK  5 active torsions:
REMARK  status: ('A' for Active; 'I' for Inactive)
REMARK    1  A    between atoms: O_2  and  C_10
REMARK    2  A    between atoms: N_6  and  C_9
REMARK    3  A    between atoms: N_6  and  C_12
REMARK    4  A    between atoms: N_7  and  C_16
REMARK    5  A    between atoms: C_11  and  C_16
REMARK                            x       y       z     vdW  Elec       q    Type
REMARK                         _______ _______ _______ _____ _____    ______ ____
ROOT
ATOM      1  O   UNL     1      -3.588  -1.278  26.247  0.00  0.00    -0.371 OA
ATOM      9  C   UNL     1      -4.523   0.251  24.687  0.00  0.00    +0.111 C 
ATOM     10  C   UNL     1      -3.495  -0.614  23.978  0.00  0.00    +0.164 C 
ATOM     11  C   UNL     1      -3.416  -1.807  24.921  0.00  0.00    +0.165 C 
ATOM     13  C   UNL     1      -4.133   0.049  26.141  0.00  0.00    +0.181 C 
ENDROOT
BRANCH  10   2
ATOM      2  O   UNL     1      -3.905  -0.994  22.679  0.00  0.00    -0.388 OA
ATOM     25  H   UNL     1      -3.164  -0.848  22.069  0.00  0.00    +0.210 HD
ENDBRANCH  10   2
BRANCH   9   6
ATOM      6  N   UNL     1      -4.492   1.646  24.280  0.00  0.00    -0.306 NA
ATOM     24  H   UNL     1      -5.398   2.081  24.448  0.00  0.00    +0.123 HD
BRANCH   6  12
ATOM      3  O   UNL     1      -1.845   4.752  25.267  0.00  0.00    -0.380 OA
ATOM     12  C   UNL     1      -3.452   2.378  24.999  0.00  0.00    +0.058 C 
ATOM     14  C   UNL     1      -2.274   2.683  24.068  0.00  0.00    +0.047 C 
ATOM     15  C   UNL     1      -4.002   3.679  25.590  0.00  0.00    +0.047 C 
ATOM     17  C   UNL     1      -1.245   3.552  24.781  0.00  0.00    +0.161 C 
ATOM     18  C   UNL     1      -2.877   4.493  26.220  0.00  0.00    +0.161 C 
ENDBRANCH   6  12
ENDBRANCH   9   6
BRANCH  11  16
ATOM     16  C   UNL     1      -2.096  -2.553  24.833  0.00  0.00    +0.140 C 
BRANCH  16   7
ATOM      4  O   UNL     1       2.658   0.679  21.979  0.00  0.00    -0.377 OA
ATOM      5  O   UNL     1      -0.596  -0.292  25.578  0.00  0.00    -0.253 OA
ATOM      7  N   UNL     1      -1.149  -1.856  23.993  0.00  0.00    -0.297 N 
ATOM      8  N   UNL     1       0.434  -0.169  23.504  0.00  0.00    -0.281 N 
ATOM     19  C   UNL     1      -0.446  -0.742  24.437  0.00  0.00    +0.302 C 
ATOM     20  C   UNL     1       1.211   1.013  23.886  0.00  0.00    +0.137 C 
ATOM     21  C   UNL     1       0.560  -0.546  22.088  0.00  0.00    +0.137 C 
ATOM     22  C   UNL     1       2.645   0.906  23.391  0.00  0.00    +0.179 C 
ATOM     23  C   UNL     1       2.024  -0.560  21.660  0.00  0.00    +0.179 C 
ATOM     26  H   UNL     1      -1.041  -2.214  23.055  0.00  0.00    +0.150 HD
ENDBRANCH  16   7
ENDBRANCH  11  16
TORSDOF 5
ENDMDL
MODEL 5
REMARK VINA RESULT:      -1.9     19.033     20.479
REMARK  Name = 75536746
REMARK  5 active torsions:
REMARK  status: ('A' for Active; 'I' for Inactive)
REMARK    1  A    between atoms: O_2  and  C_10
REMARK    2  A    between atoms: N_6  and  C_9
REMARK    3  A    between atoms: N_6  and  C_12
REMARK    4  A    between atoms: N_7  and  C_16
REMARK    5  A    between atoms: C_11  and  C_16
REMARK                            x       y       z     vdW  Elec       q    Type
REMARK                         _______ _______ _______ _____ _____    ______ ____
ROOT
ATOM      1  O   UNL     1      16.739  -6.378  28.552  0.00  0.00    -0.371 OA
ATOM      9  C   UNL     1      16.508  -6.151  26.198  0.00  0.00    +0.111 C 
ATOM     10  C   UNL     1      16.253  -7.598  26.584  0.00  0.00    +0.164 C 
ATOM     11  C   UNL     1      15.918  -7.452  28.063  0.00  0.00    +0.165 C 
ATOM     13  C   UNL     1      17.243  -5.638  27.425  0.00  0.00    +0.181 C 
ENDROOT
BRANCH  10   2
ATOM      2  O   UNL     1      15.187  -8.176  25.856  0.00  0.00    -0.388 OA
ATOM     25  H   UNL     1      14.684  -7.463  25.431  0.00  0.00    +0.210 HD
ENDBRANCH  10   2
BRANCH   9   6
ATOM      6  N   UNL     1      17.277  -6.002  24.974  0.00  0.00    -0.306 NA
ATOM     24  H   UNL     1      16.834  -6.521  24.216  0.00  0.00    +0.123 HD
BRANCH   6  12
ATOM      3  O   UNL     1      16.301  -2.286  23.280  0.00  0.00    -0.380 OA
ATOM     12  C   UNL     1      17.402  -4.595  24.602  0.00  0.00    +0.058 C 
ATOM     14  C   UNL     1      17.398  -4.445  23.077  0.00  0.00    +0.047 C 
ATOM     15  C   UNL     1      16.274  -3.759  25.213  0.00  0.00    +0.047 C 
ATOM     17  C   UNL     1      17.405  -2.971  22.689  0.00  0.00    +0.161 C 
ATOM     18  C   UNL     1      16.344  -2.323  24.707  0.00  0.00    +0.161 C 
ENDBRANCH   6  12
ENDBRANCH   9   6
BRANCH  11  16
ATOM     16  C   UNL     1      16.188  -8.712  28.866  0.00  0.00    +0.140 C 
BRANCH  16   7
ATOM      4  O   UNL     1      11.020  -9.217  32.638  0.00  0.00    -0.377 OA
ATOM      5  O   UNL     1      15.296  -7.256  31.102  0.00  0.00    -0.253 OA
ATOM      7  N   UNL     1      15.060  -9.058  29.702  0.00  0.00    -0.297 N 
ATOM      8  N   UNL     1      13.570  -8.750  31.511  0.00  0.00    -0.281 N 
ATOM     19  C   UNL     1      14.683  -8.283  30.792  0.00  0.00    +0.302 C 
ATOM     20  C   UNL     1      13.107  -7.999  32.680  0.00  0.00    +0.137 C 
ATOM     21  C   UNL     1      12.881 -10.033  31.304  0.00  0.00    +0.137 C 
ATOM     22  C   UNL     1      11.590  -7.907  32.703  0.00  0.00    +0.179 C 
ATOM     23  C   UNL     1      11.370  -9.860  31.413  0.00  0.00    +0.179 C 
ATOM     26  H   UNL     1      14.572  -9.907  29.457  0.00  0.00    +0.150 HD
ENDBRANCH  16   7
ENDBRANCH  11  16
TORSDOF 5
ENDMDL
MODEL 6
REMARK VINA RESULT:      -1.8      1.942      5.212
REMARK  Name = 75536746
REMARK  5 active torsions:
REMARK  status: ('A' for Active; 'I' for Inactive)
REMARK    1  A    between atoms: O_2  and  C_10
REMARK    2  A    between atoms: N_6  and  C_9
REMARK    3  A    between atoms: N_6  and  C_12
REMARK    4  A    between atoms: N_7  and  C_16
REMARK    5  A    between atoms: C_11  and  C_16
REMARK                            x       y       z     vdW  Elec       q    Type
REMARK                         _______ _______ _______ _____ _____    ______ ____
ROOT
ATOM      1  O   UNL     1      -3.253  -2.759  23.648  0.00  0.00    -0.371 OA
ATOM      9  C   UNL     1      -1.508  -2.332  25.203  0.00  0.00    +0.111 C 
ATOM     10  C   UNL     1      -2.573  -1.259  25.346  0.00  0.00    +0.164 C 
ATOM     11  C   UNL     1      -3.774  -1.953  24.718  0.00  0.00    +0.165 C 
ATOM     13  C   UNL     1      -1.832  -2.894  23.829  0.00  0.00    +0.181 C 
ENDROOT
BRANCH  10   2
ATOM      2  O   UNL     1      -2.813  -0.906  26.694  0.00  0.00    -0.388 OA
ATOM     25  H   UNL     1      -3.747  -0.651  26.783  0.00  0.00    +0.210 HD
ENDBRANCH  10   2
BRANCH   9   6
ATOM      6  N   UNL     1      -0.151  -1.822  25.300  0.00  0.00    -0.306 NA
ATOM     24  H   UNL     1       0.519  -2.569  25.118  0.00  0.00    +0.123 HD
BRANCH   6  12
ATOM      3  O   UNL     1       1.578   1.603  23.592  0.00  0.00    -0.380 OA
ATOM     12  C   UNL     1       0.066  -0.725  24.360  0.00  0.00    +0.058 C 
ATOM     14  C   UNL     1      -0.083   0.624  25.072  0.00  0.00    +0.047 C 
ATOM     15  C   UNL     1       1.448  -0.822  23.708  0.00  0.00    +0.047 C 
ATOM     17  C   UNL     1       0.262   1.766  24.123  0.00  0.00    +0.161 C 
ATOM     18  C   UNL     1       1.709   0.400  22.834  0.00  0.00    +0.161 C 
ENDBRANCH   6  12
ENDBRANCH   9   6
BRANCH  11  16
ATOM     16  C   UNL     1      -4.809  -0.984  24.173  0.00  0.00    +0.140 C 
BRANCH  16   7
ATOM      4  O   UNL     1      -2.717   4.995  25.210  0.00  0.00    -0.377 OA
ATOM      5  O   UNL     1      -5.652   1.071  25.901  0.00  0.00    -0.253 OA
ATOM      7  N   UNL     1      -4.313   0.374  24.173  0.00  0.00    -0.297 N 
ATOM      8  N   UNL     1      -4.209   2.609  24.937  0.00  0.00    -0.281 N 
ATOM     19  C   UNL     1      -4.783   1.333  25.063  0.00  0.00    +0.302 C 
ATOM     20  C   UNL     1      -4.650   3.683  25.830  0.00  0.00    +0.137 C 
ATOM     21  C   UNL     1      -3.287   3.044  23.876  0.00  0.00    +0.137 C 
ATOM     22  C   UNL     1      -3.468   4.503  26.323  0.00  0.00    +0.179 C 
ATOM     23  C   UNL     1      -2.175   3.916  24.449  0.00  0.00    +0.179 C 
ATOM     26  H   UNL     1      -3.616   0.591  23.476  0.00  0.00    +0.150 HD
ENDBRANCH  16   7
ENDBRANCH  11  16
TORSDOF 5
ENDMDL
MODEL 7
REMARK VINA RESULT:      -1.8      1.784      5.512
REMARK  Name = 75536746
REMARK  5 active torsions:
REMARK  status: ('A' for Active; 'I' for Inactive)
REMARK    1  A    between atoms: O_2  and  C_10
REMARK    2  A    between atoms: N_6  and  C_9
REMARK    3  A    between atoms: N_6  and  C_12
REMARK    4  A    between atoms: N_7  and  C_16
REMARK    5  A    between atoms: C_11  and  C_16
REMARK                            x       y       z     vdW  Elec       q    Type
REMARK                         _______ _______ _______ _____ _____    ______ ____
ROOT
ATOM      1  O   UNL     1      -2.336  -2.626  25.419  0.00  0.00    -0.371 OA
ATOM      9  C   UNL     1      -3.904  -1.439  24.086  0.00  0.00    +0.111 C 
ATOM     10  C   UNL     1      -2.584  -0.688  24.086  0.00  0.00    +0.164 C 
ATOM     11  C   UNL     1      -1.619  -1.793  24.493  0.00  0.00    +0.165 C 
ATOM     13  C   UNL     1      -3.740  -2.333  25.304  0.00  0.00    +0.181 C 
ENDROOT
BRANCH  10   2
ATOM      2  O   UNL     1      -2.265  -0.149  22.817  0.00  0.00    -0.388 OA
ATOM     25  H   UNL     1      -1.644   0.587  22.945  0.00  0.00    +0.210 HD
ENDBRANCH  10   2
BRANCH   9   6
ATOM      6  N   UNL     1      -5.068  -0.573  24.173  0.00  0.00    -0.306 NA
ATOM     24  H   UNL     1      -5.808  -1.031  24.703  0.00  0.00    +0.123 HD
BRANCH   6  12
ATOM      3  O   UNL     1      -5.233   3.521  25.094  0.00  0.00    -0.380 OA
ATOM     12  C   UNL     1      -4.727   0.701  24.802  0.00  0.00    +0.058 C 
ATOM     14  C   UNL     1      -4.311   1.726  23.741  0.00  0.00    +0.047 C 
ATOM     15  C   UNL     1      -5.902   1.244  25.621  0.00  0.00    +0.047 C 
ATOM     17  C   UNL     1      -4.074   3.087  24.382  0.00  0.00    +0.161 C 
ATOM     18  C   UNL     1      -5.577   2.633  26.158  0.00  0.00    +0.161 C 
ENDBRANCH   6  12
ENDBRANCH   9   6
BRANCH  11  16
ATOM     16  C   UNL     1      -0.352  -1.270  25.148  0.00  0.00    +0.140 C 
BRANCH  16   7
ATOM      4  O   UNL     1      -0.943   5.120  25.284  0.00  0.00    -0.377 OA
ATOM      5  O   UNL     1       0.495   0.773  23.408  0.00  0.00    -0.253 OA
ATOM      7  N   UNL     1      -0.439   0.150  25.409  0.00  0.00    -0.297 N 
ATOM      8  N   UNL     1      -0.142   2.438  24.892  0.00  0.00    -0.281 N 
ATOM     19  C   UNL     1       0.004   1.098  24.494  0.00  0.00    +0.302 C 
ATOM     20  C   UNL     1       0.304   3.503  23.991  0.00  0.00    +0.137 C 
ATOM     21  C   UNL     1      -0.573   2.906  26.218  0.00  0.00    +0.137 C 
ATOM     22  C   UNL     1      -0.699   4.645  23.958  0.00  0.00    +0.179 C 
ATOM     23  C   UNL     1      -1.521   4.094  26.091  0.00  0.00    +0.179 C 
ATOM     26  H   UNL     1      -0.824   0.413  26.304  0.00  0.00    +0.150 HD
ENDBRANCH  16   7
ENDBRANCH  11  16
TORSDOF 5
ENDMDL
MODEL 8
REMARK VINA RESULT:      -1.7      1.915      4.925
REMARK  Name = 75536746
REMARK  5 active torsions:
REMARK  status: ('A' for Active; 'I' for Inactive)
REMARK    1  A    between atoms: O_2  and  C_10
REMARK    2  A    between atoms: N_6  and  C_9
REMARK    3  A    between atoms: N_6  and  C_12
REMARK    4  A    between atoms: N_7  and  C_16
REMARK    5  A    between atoms: C_11  and  C_16
REMARK                            x       y       z     vdW  Elec       q    Type
REMARK                         _______ _______ _______ _____ _____    ______ ____
ROOT
ATOM      1  O   UNL     1      -0.454  -1.131  22.957  0.00  0.00    -0.371 OA
ATOM      9  C   UNL     1       0.558   0.244  24.609  0.00  0.00    +0.111 C 
ATOM     10  C   UNL     1      -0.836  -0.141  25.072  0.00  0.00    +0.164 C 
ATOM     11  C   UNL     1      -1.096  -1.376  24.220  0.00  0.00    +0.165 C 
ATOM     13  C   UNL     1       0.469  -0.039  23.119  0.00  0.00    +0.181 C 
ENDROOT
BRANCH  10   2
ATOM      2  O   UNL     1      -0.891  -0.432  26.455  0.00  0.00    -0.388 OA
ATOM     25  H   UNL     1      -1.482   0.211  26.880  0.00  0.00    +0.210 HD
ENDBRANCH  10   2
BRANCH   9   6
ATOM      6  N   UNL     1       0.908   1.624  24.903  0.00  0.00    -0.306 NA
ATOM     24  H   UNL     1       1.624   1.950  24.254  0.00  0.00    +0.123 HD
BRANCH   6  12
ATOM      3  O   UNL     1      -1.516   5.011  25.436  0.00  0.00    -0.380 OA
ATOM     12  C   UNL     1      -0.264   2.492  24.820  0.00  0.00    +0.058 C 
ATOM     14  C   UNL     1      -0.773   2.836  26.224  0.00  0.00    +0.047 C 
ATOM     15  C   UNL     1       0.054   3.777  24.050  0.00  0.00    +0.047 C 
ATOM     17  C   UNL     1      -1.919   3.837  26.142  0.00  0.00    +0.161 C 
ATOM     18  C   UNL     1      -1.138   4.727  24.089  0.00  0.00    +0.161 C 
ENDBRANCH   6  12
ENDBRANCH   9   6
BRANCH  11  16
ATOM     16  C   UNL     1      -2.573  -1.653  24.000  0.00  0.00    +0.140 C 
BRANCH  16   7
ATOM      4  O   UNL     1      -5.785   3.757  25.267  0.00  0.00    -0.377 OA
ATOM      5  O   UNL     1      -4.202  -0.848  26.148  0.00  0.00    -0.253 OA
ATOM      7  N   UNL     1      -3.352  -0.437  24.057  0.00  0.00    -0.297 N 
ATOM      8  N   UNL     1      -4.839   1.101  25.064  0.00  0.00    -0.281 N 
ATOM     19  C   UNL     1      -4.134  -0.111  25.159  0.00  0.00    +0.302 C 
ATOM     20  C   UNL     1      -5.693   1.520  26.177  0.00  0.00    +0.137 C 
ATOM     21  C   UNL     1      -4.934   1.957  23.872  0.00  0.00    +0.137 C 
ATOM     22  C   UNL     1      -5.534   3.006  26.457  0.00  0.00    +0.179 C 
ATOM     23  C   UNL     1      -4.835   3.430  24.253  0.00  0.00    +0.179 C 
ATOM     26  H   UNL     1      -3.310   0.155  23.240  0.00  0.00    +0.150 HD
ENDBRANCH  16   7
ENDBRANCH  11  16
TORSDOF 5
ENDMDL
MODEL 9
REMARK VINA RESULT:      -1.7      3.023      5.561
REMARK  Name = 75536746
REMARK  5 active torsions:
REMARK  status: ('A' for Active; 'I' for Inactive)
REMARK    1  A    between atoms: O_2  and  C_10
REMARK    2  A    between atoms: N_6  and  C_9
REMARK    3  A    between atoms: N_6  and  C_12
REMARK    4  A    between atoms: N_7  and  C_16
REMARK    5  A    between atoms: C_11  and  C_16
REMARK                            x       y       z     vdW  Elec       q    Type
REMARK                         _______ _______ _______ _____ _____    ______ ____
ROOT
ATOM      1  O   UNL     1      -2.353  -2.340  24.104  0.00  0.00    -0.371 OA
ATOM      9  C   UNL     1      -3.598  -0.348  24.465  0.00  0.00    +0.111 C 
ATOM     10  C   UNL     1      -2.305  -0.276  25.259  0.00  0.00    +0.164 C 
ATOM     11  C   UNL     1      -1.452  -1.301  24.525  0.00  0.00    +0.165 C 
ATOM     13  C   UNL     1      -3.699  -1.840  24.193  0.00  0.00    +0.181 C 
ENDROOT
BRANCH  10   2
ATOM      2  O   UNL     1      -1.722   1.012  25.233  0.00  0.00    -0.388 OA
ATOM     25  H   UNL     1      -0.856   0.948  24.798  0.00  0.00    +0.210 HD
ENDBRANCH  10   2
BRANCH   9   6
ATOM      6  N   UNL     1      -4.750   0.177  25.178  0.00  0.00    -0.306 NA
ATOM     24  H   UNL     1      -4.580   0.157  26.183  0.00  0.00    +0.123 HD
BRANCH   6  12
ATOM      3  O   UNL     1      -4.364   4.338  24.776  0.00  0.00    -0.380 OA
ATOM     12  C   UNL     1      -5.051   1.543  24.755  0.00  0.00    +0.058 C 
ATOM     14  C   UNL     1      -5.288   2.438  25.976  0.00  0.00    +0.047 C 
ATOM     15  C   UNL     1      -3.921   2.116  23.896  0.00  0.00    +0.047 C 
ATOM     17  C   UNL     1      -5.480   3.886  25.542  0.00  0.00    +0.161 C 
ATOM     18  C   UNL     1      -4.189   3.583  23.577  0.00  0.00    +0.161 C 
ENDBRANCH   6  12
ENDBRANCH   9   6
BRANCH  11  16
ATOM     16  C   UNL     1      -0.352  -1.894  25.388  0.00  0.00    +0.140 C 
BRANCH  16   7
ATOM      4  O   UNL     1       5.158   0.168  22.823  0.00  0.00    -0.377 OA
ATOM      5  O   UNL     1       0.246   0.002  23.397  0.00  0.00    -0.253 OA
ATOM      7  N   UNL     1       0.954  -1.655  24.816  0.00  0.00    -0.297 N 
ATOM      8  N   UNL     1       2.490  -0.585  23.372  0.00  0.00    -0.281 N 
ATOM     19  C   UNL     1       1.167  -0.696  23.833  0.00  0.00    +0.302 C 
ATOM     20  C   UNL     1       2.804   0.396  22.330  0.00  0.00    +0.137 C 
ATOM     21  C   UNL     1       3.608  -1.474  23.724  0.00  0.00    +0.137 C 
ATOM     22  C   UNL     1       4.106   1.118  22.636  0.00  0.00    +0.179 C 
ATOM     23  C   UNL     1       4.887  -0.673  23.944  0.00  0.00    +0.179 C 
ATOM     26  H   UNL     1       1.702  -2.240  25.161  0.00  0.00    +0.150 HD
ENDBRANCH  16   7
ENDBRANCH  11  16
TORSDOF 5
ENDMDL
MODEL 10
REMARK VINA RESULT:      -1.5      1.587      5.072
REMARK  Name = 75536746
REMARK  5 active torsions:
REMARK  status: ('A' for Active; 'I' for Inactive)
REMARK    1  A    between atoms: O_2  and  C_10
REMARK    2  A    between atoms: N_6  and  C_9
REMARK    3  A    between atoms: N_6  and  C_12
REMARK    4  A    between atoms: N_7  and  C_16
REMARK    5  A    between atoms: C_11  and  C_16
REMARK                            x       y       z     vdW  Elec       q    Type
REMARK                         _______ _______ _______ _____ _____    ______ ____
ROOT
ATOM      1  O   UNL     1      -2.547  -2.723  23.533  0.00  0.00    -0.371 OA
ATOM      9  C   UNL     1      -1.134  -1.917  25.264  0.00  0.00    +0.111 C 
ATOM     10  C   UNL     1      -2.525  -1.337  25.450  0.00  0.00    +0.164 C 
ATOM     11  C   UNL     1      -3.362  -2.323  24.647  0.00  0.00    +0.165 C 
ATOM     13  C   UNL     1      -1.184  -2.356  23.810  0.00  0.00    +0.181 C 
ENDROOT
BRANCH  10   2
ATOM      2  O   UNL     1      -2.919  -1.292  26.807  0.00  0.00    -0.388 OA
ATOM     25  H   UNL     1      -2.414  -0.591  27.250  0.00  0.00    +0.210 HD
ENDBRANCH  10   2
BRANCH   9   6
ATOM      6  N   UNL     1      -0.066  -0.967  25.531  0.00  0.00    -0.306 NA
ATOM     24  H   UNL     1       0.763  -1.209  24.990  0.00  0.00    +0.123 HD
BRANCH   6  12
ATOM      3  O   UNL     1       0.168   3.193  25.012  0.00  0.00    -0.380 OA
ATOM     12  C   UNL     1      -0.484   0.396  25.210  0.00  0.00    +0.058 C 
ATOM     14  C   UNL     1      -0.351   1.298  26.442  0.00  0.00    +0.047 C 
ATOM     15  C   UNL     1       0.338   0.967  24.052  0.00  0.00    +0.047 C 
ATOM     17  C   UNL     1      -0.670   2.743  26.077  0.00  0.00    +0.161 C 
ATOM     18  C   UNL     1      -0.018   2.431  23.819  0.00  0.00    +0.161 C 
ENDBRANCH   6  12
ENDBRANCH   9   6
BRANCH  11  16
ATOM     16  C   UNL     1      -4.667  -1.731  24.143  0.00  0.00    +0.140 C 
BRANCH  16   7
ATOM      4  O   UNL     1      -5.283   4.559  25.259  0.00  0.00    -0.377 OA
ATOM      5  O   UNL     1      -3.229   0.523  23.266  0.00  0.00    -0.253 OA
ATOM      7  N   UNL     1      -4.850  -0.377  24.616  0.00  0.00    -0.297 N 
ATOM      8  N   UNL     1      -4.386   1.940  24.692  0.00  0.00    -0.281 N 
ATOM     19  C   UNL     1      -4.097   0.685  24.130  0.00  0.00    +0.302 C 
ATOM     20  C   UNL     1      -3.634   3.114  24.243  0.00  0.00    +0.137 C 
ATOM     21  C   UNL     1      -5.289   2.195  25.824  0.00  0.00    +0.137 C 
ATOM     22  C   UNL     1      -4.554   4.310  24.055  0.00  0.00    +0.179 C 
ATOM     23  C   UNL     1      -6.121   3.449  25.581  0.00  0.00    +0.179 C 
ATOM     26  H   UNL     1      -5.547  -0.250  25.335  0.00  0.00    +0.150 HD
ENDBRANCH  16   7
ENDBRANCH  11  16
TORSDOF 5
ENDMDL
