MODEL 1
REMARK VINA RESULT:      -2.4      0.000      0.000
REMARK  Name = 75536254
REMARK  8 active torsions:
REMARK  status: ('A' for Active; 'I' for Inactive)
REMARK    1  A    between atoms: O_3  and  C_12
REMARK    2  A    between atoms: N_5  and  C_11
REMARK    3  A    between atoms: N_5  and  C_18
REMARK    4  A    between atoms: C_7  and  C_11
REMARK    5  A    between atoms: C_10  and  C_18
REMARK    6  A    between atoms: C_16  and  C_20
REMARK    7  A    between atoms: C_20  and  C_21
REMARK    8  A    between atoms: C_23  and  C_24
REMARK                            x       y       z     vdW  Elec       q    Type
REMARK                         _______ _______ _______ _____ _____    ______ ____
ROOT
ATOM      2  O   UNL     1      -3.519   0.206  23.732  0.00  0.00    -0.369 OA
ATOM     10  C   UNL     1      -4.421  -0.539  24.561  0.00  0.00    +0.161 C 
ATOM     12  C   UNL     1      -3.684  -1.628  25.351  0.00  0.00    +0.145 C 
ATOM     16  C   UNL     1      -2.413   0.799  24.416  0.00  0.00    +0.125 C 
ATOM     17  C   UNL     1      -2.450  -1.090  26.071  0.00  0.00    +0.036 C 
ATOM     19  C   UNL     1      -1.580  -0.269  25.123  0.00  0.00    +0.034 C 
ENDROOT
BRANCH  12   3
ATOM      3  O   UNL     1      -3.250  -2.643  24.442  0.00  0.00    -0.389 OA
ATOM     31  H   UNL     1      -3.499  -2.360  23.545  0.00  0.00    +0.210 HD
ENDBRANCH  12   3
BRANCH  10  18
ATOM     18  C   UNL     1      -5.244   0.390  25.451  0.00  0.00    +0.115 C 
BRANCH  18   5
ATOM      5  N   UNL     1      -5.658   1.577  24.720  0.00  0.00    -0.313 NA
ATOM     30  H   UNL     1      -6.511   1.383  24.196  0.00  0.00    +0.122 HD
BRANCH   5  11
ATOM     11  C   UNL     1      -5.879   2.698  25.625  0.00  0.00    +0.084 C 
BRANCH  11   7
ATOM      7  C   UNL     1      -4.760   3.731  25.505  0.00  0.00    +0.003 C 
ATOM      8  C   UNL     1      -3.636   3.431  26.508  0.00  0.00    +0.005 C 
ATOM      9  C   UNL     1      -4.216   3.778  24.072  0.00  0.00    +0.005 C 
ATOM     13  C   UNL     1      -2.481   4.419  26.372  0.00  0.00    +0.000 C 
ATOM     14  C   UNL     1      -3.058   4.766  23.940  0.00  0.00    +0.000 C 
ATOM     15  C   UNL     1      -1.948   4.470  24.944  0.00  0.00    +0.000 C 
ENDBRANCH  11   7
ENDBRANCH   5  11
ENDBRANCH  18   5
ENDBRANCH  10  18
BRANCH  16  20
ATOM     20  C   UNL     1      -1.578   1.541  23.381  0.00  0.00    +0.090 C 
BRANCH  20  21
ATOM      4  O   UNL     1       1.183  -0.550  22.382  0.00  0.00    -0.354 OA
ATOM      6  N   UNL     1      -0.160  -0.196  22.365  0.00  0.00    -0.083 NA
ATOM     21  C   UNL     1      -0.246   0.875  23.158  0.00  0.00    +0.087 A 
ATOM     22  C   UNL     1       1.000   1.240  23.699  0.00  0.00    +0.076 A 
ATOM     23  C   UNL     1       1.863   0.313  23.179  0.00  0.00    +0.167 A 
BRANCH  23  24
ATOM      1  F   UNL     1       7.331  -0.615  23.626  0.00  0.00    -0.205 F 
ATOM     24  C   UNL     1       3.273   0.074  23.293  0.00  0.00    +0.020 A 
ATOM     25  C   UNL     1       3.737  -1.172  23.716  0.00  0.00    +0.014 A 
ATOM     26  C   UNL     1       4.180   1.087  22.981  0.00  0.00    +0.014 A 
ATOM     27  C   UNL     1       5.108  -1.405  23.828  0.00  0.00    +0.039 A 
ATOM     28  C   UNL     1       5.551   0.855  23.094  0.00  0.00    +0.039 A 
ATOM     29  C   UNL     1       6.015  -0.392  23.517  0.00  0.00    +0.123 A 
ENDBRANCH  23  24
ENDBRANCH  20  21
ENDBRANCH  16  20
TORSDOF 8
ENDMDL
MODEL 2
REMARK VINA RESULT:      -2.2      2.264      4.507
REMARK  Name = 75536254
REMARK  8 active torsions:
REMARK  status: ('A' for Active; 'I' for Inactive)
REMARK    1  A    between atoms: O_3  and  C_12
REMARK    2  A    between atoms: N_5  and  C_11
REMARK    3  A    between atoms: N_5  and  C_18
REMARK    4  A    between atoms: C_7  and  C_11
REMARK    5  A    between atoms: C_10  and  C_18
REMARK    6  A    between atoms: C_16  and  C_20
REMARK    7  A    between atoms: C_20  and  C_21
REMARK    8  A    between atoms: C_23  and  C_24
REMARK                            x       y       z     vdW  Elec       q    Type
REMARK                         _______ _______ _______ _____ _____    ______ ____
ROOT
ATOM      2  O   UNL     1      -3.838   2.379  25.756  0.00  0.00    -0.369 OA
ATOM     10  C   UNL     1      -5.020   1.697  25.317  0.00  0.00    +0.161 C 
ATOM     12  C   UNL     1      -6.288   2.453  25.731  0.00  0.00    +0.145 C 
ATOM     16  C   UNL     1      -3.726   3.739  25.330  0.00  0.00    +0.125 C 
ATOM     17  C   UNL     1      -6.229   3.934  25.362  0.00  0.00    +0.036 C 
ATOM     19  C   UNL     1      -4.917   4.559  25.824  0.00  0.00    +0.034 C 
ENDROOT
BRANCH  12   3
ATOM      3  O   UNL     1      -6.435   2.363  27.151  0.00  0.00    -0.389 OA
ATOM     31  H   UNL     1      -5.995   3.138  27.542  0.00  0.00    +0.210 HD
ENDBRANCH  12   3
BRANCH  10  18
ATOM     18  C   UNL     1      -4.961   1.406  23.818  0.00  0.00    +0.115 C 
BRANCH  18   5
ATOM      5  N   UNL     1      -4.008   0.346  23.532  0.00  0.00    -0.313 NA
ATOM     30  H   UNL     1      -3.067   0.645  23.789  0.00  0.00    +0.122 HD
BRANCH   5  11
ATOM     11  C   UNL     1      -4.352  -0.874  24.251  0.00  0.00    +0.084 C 
BRANCH  11   7
ATOM      7  C   UNL     1      -3.156  -1.406  25.039  0.00  0.00    +0.003 C 
ATOM      8  C   UNL     1      -2.380  -2.441  24.212  0.00  0.00    +0.005 C 
ATOM      9  C   UNL     1      -2.240  -0.256  25.475  0.00  0.00    +0.005 C 
ATOM     13  C   UNL     1      -1.148  -2.948  24.958  0.00  0.00    +0.000 C 
ATOM     14  C   UNL     1      -1.008  -0.767  26.219  0.00  0.00    +0.000 C 
ATOM     15  C   UNL     1      -0.244  -1.802  25.398  0.00  0.00    +0.000 C 
ENDBRANCH  11   7
ENDBRANCH   5  11
ENDBRANCH  18   5
ENDBRANCH  10  18
BRANCH  16  20
ATOM     20  C   UNL     1      -2.419   4.289  25.888  0.00  0.00    +0.090 C 
BRANCH  20  21
ATOM      4  O   UNL     1       0.516   2.196  25.834  0.00  0.00    -0.354 OA
ATOM      6  N   UNL     1      -0.438   2.959  26.496  0.00  0.00    -0.083 NA
ATOM     21  C   UNL     1      -1.249   3.410  25.535  0.00  0.00    +0.087 A 
ATOM     22  C   UNL     1      -0.859   2.969  24.258  0.00  0.00    +0.076 A 
ATOM     23  C   UNL     1       0.254   2.209  24.502  0.00  0.00    +0.167 A 
BRANCH  23  24
ATOM      1  F   UNL     1       3.767  -0.713  21.328  0.00  0.00    -0.205 F 
ATOM     24  C   UNL     1       1.159   1.457  23.683  0.00  0.00    +0.020 A 
ATOM     25  C   UNL     1       0.701   0.344  22.977  0.00  0.00    +0.014 A 
ATOM     26  C   UNL     1       2.498   1.837  23.593  0.00  0.00    +0.014 A 
ATOM     27  C   UNL     1       1.582  -0.388  22.181  0.00  0.00    +0.039 A 
ATOM     28  C   UNL     1       3.380   1.104  22.798  0.00  0.00    +0.039 A 
ATOM     29  C   UNL     1       2.921  -0.009  22.091  0.00  0.00    +0.123 A 
ENDBRANCH  23  24
ENDBRANCH  20  21
ENDBRANCH  16  20
TORSDOF 8
ENDMDL
MODEL 3
REMARK VINA RESULT:      -1.9      1.504      2.459
REMARK  Name = 75536254
REMARK  8 active torsions:
REMARK  status: ('A' for Active; 'I' for Inactive)
REMARK    1  A    between atoms: O_3  and  C_12
REMARK    2  A    between atoms: N_5  and  C_11
REMARK    3  A    between atoms: N_5  and  C_18
REMARK    4  A    between atoms: C_7  and  C_11
REMARK    5  A    between atoms: C_10  and  C_18
REMARK    6  A    between atoms: C_16  and  C_20
REMARK    7  A    between atoms: C_20  and  C_21
REMARK    8  A    between atoms: C_23  and  C_24
REMARK                            x       y       z     vdW  Elec       q    Type
REMARK                         _______ _______ _______ _____ _____    ______ ____
ROOT
ATOM      2  O   UNL     1      -3.944   1.121  23.608  0.00  0.00    -0.369 OA
ATOM     10  C   UNL     1      -4.743   2.278  23.890  0.00  0.00    +0.161 C 
ATOM     12  C   UNL     1      -5.859   1.955  24.890  0.00  0.00    +0.145 C 
ATOM     16  C   UNL     1      -3.371   0.484  24.752  0.00  0.00    +0.125 C 
ATOM     17  C   UNL     1      -5.342   1.219  26.123  0.00  0.00    +0.036 C 
ATOM     19  C   UNL     1      -4.462   0.038  25.724  0.00  0.00    +0.034 C 
ENDROOT
BRANCH  12   3
ATOM      3  O   UNL     1      -6.821   1.111  24.251  0.00  0.00    -0.389 OA
ATOM     31  H   UNL     1      -7.470   0.842  24.923  0.00  0.00    +0.210 HD
ENDBRANCH  12   3
BRANCH  10  18
ATOM     18  C   UNL     1      -3.871   3.453  24.328  0.00  0.00    +0.115 C 
BRANCH  18   5
ATOM      5  N   UNL     1      -4.466   4.148  25.458  0.00  0.00    -0.313 NA
ATOM     30  H   UNL     1      -5.390   3.765  25.655  0.00  0.00    +0.122 HD
BRANCH   5  11
ATOM     11  C   UNL     1      -3.623   4.039  26.642  0.00  0.00    +0.084 C 
BRANCH  11   7
ATOM      7  C   UNL     1      -2.143   4.143  26.277  0.00  0.00    +0.003 C 
ATOM      8  C   UNL     1      -1.546   2.749  26.035  0.00  0.00    +0.005 C 
ATOM      9  C   UNL     1      -1.949   5.041  25.048  0.00  0.00    +0.005 C 
ATOM     13  C   UNL     1      -0.081   2.829  25.616  0.00  0.00    +0.000 C 
ATOM     14  C   UNL     1      -0.482   5.116  24.631  0.00  0.00    +0.000 C 
ATOM     15  C   UNL     1       0.110   3.729  24.400  0.00  0.00    +0.000 C 
ENDBRANCH  11   7
ENDBRANCH   5  11
ENDBRANCH  18   5
ENDBRANCH  10  18
BRANCH  16  20
ATOM     20  C   UNL     1      -2.565  -0.711  24.256  0.00  0.00    +0.090 C 
BRANCH  20  21
ATOM      4  O   UNL     1       0.335   0.813  22.751  0.00  0.00    -0.354 OA
ATOM      6  N   UNL     1      -1.036   0.711  22.951  0.00  0.00    -0.083 NA
ATOM     21  C   UNL     1      -1.187  -0.305  23.805  0.00  0.00    +0.087 A 
ATOM     22  C   UNL     1       0.043  -0.877  24.176  0.00  0.00    +0.076 A 
ATOM     23  C   UNL     1       0.966  -0.137  23.486  0.00  0.00    +0.167 A 
BRANCH  23  24
ATOM      1  F   UNL     1       6.516  -0.201  23.091  0.00  0.00    -0.205 F 
ATOM     24  C   UNL     1       2.397  -0.154  23.384  0.00  0.00    +0.020 A 
ATOM     25  C   UNL     1       3.112  -1.279  23.792  0.00  0.00    +0.014 A 
ATOM     26  C   UNL     1       3.072   0.956  22.875  0.00  0.00    +0.014 A 
ATOM     27  C   UNL     1       4.504  -1.296  23.693  0.00  0.00    +0.039 A 
ATOM     28  C   UNL     1       4.464   0.940  22.777  0.00  0.00    +0.039 A 
ATOM     29  C   UNL     1       5.180  -0.186  23.185  0.00  0.00    +0.123 A 
ENDBRANCH  23  24
ENDBRANCH  20  21
ENDBRANCH  16  20
TORSDOF 8
ENDMDL
MODEL 4
REMARK VINA RESULT:      -1.7     15.395     17.768
REMARK  Name = 75536254
REMARK  8 active torsions:
REMARK  status: ('A' for Active; 'I' for Inactive)
REMARK    1  A    between atoms: O_3  and  C_12
REMARK    2  A    between atoms: N_5  and  C_11
REMARK    3  A    between atoms: N_5  and  C_18
REMARK    4  A    between atoms: C_7  and  C_11
REMARK    5  A    between atoms: C_10  and  C_18
REMARK    6  A    between atoms: C_16  and  C_20
REMARK    7  A    between atoms: C_20  and  C_21
REMARK    8  A    between atoms: C_23  and  C_24
REMARK                            x       y       z     vdW  Elec       q    Type
REMARK                         _______ _______ _______ _____ _____    ______ ____
ROOT
ATOM      2  O   UNL     1      -4.518 -10.646  11.895  0.00  0.00    -0.369 OA
ATOM     10  C   UNL     1      -5.200 -10.166  10.729  0.00  0.00    +0.161 C 
ATOM     12  C   UNL     1      -6.607  -9.661  11.072  0.00  0.00    +0.145 C 
ATOM     16  C   UNL     1      -4.424  -9.712  12.973  0.00  0.00    +0.125 C 
ATOM     17  C   UNL     1      -6.606  -8.697  12.256  0.00  0.00    +0.036 C 
ATOM     19  C   UNL     1      -5.815  -9.270  13.427  0.00  0.00    +0.034 C 
ENDROOT
BRANCH  12   3
ATOM      3  O   UNL     1      -7.425 -10.781  11.424  0.00  0.00    -0.389 OA
ATOM     31  H   UNL     1      -7.162 -11.527  10.858  0.00  0.00    +0.210 HD
ENDBRANCH  12   3
BRANCH  10  18
ATOM     18  C   UNL     1      -4.358  -9.129   9.989  0.00  0.00    +0.115 C 
BRANCH  18   5
ATOM      5  N   UNL     1      -5.026  -8.689   8.775  0.00  0.00    -0.313 NA
ATOM     30  H   UNL     1      -4.440  -8.886   7.964  0.00  0.00    +0.122 HD
BRANCH   5  11
ATOM     11  C   UNL     1      -6.319  -9.345   8.621  0.00  0.00    +0.084 C 
BRANCH  11   7
ATOM      7  C   UNL     1      -7.385  -8.358   8.150  0.00  0.00    +0.003 C 
ATOM      8  C   UNL     1      -8.787  -8.850   8.539  0.00  0.00    +0.005 C 
ATOM      9  C   UNL     1      -7.120  -6.959   8.721  0.00  0.00    +0.005 C 
ATOM     13  C   UNL     1      -9.868  -7.855   8.126  0.00  0.00    +0.000 C 
ATOM     14  C   UNL     1      -8.204  -5.967   8.307  0.00  0.00    +0.000 C 
ATOM     15  C   UNL     1      -9.596  -6.462   8.687  0.00  0.00    +0.000 C 
ENDBRANCH  11   7
ENDBRANCH   5  11
ENDBRANCH  18   5
ENDBRANCH  10  18
BRANCH  16  20
ATOM     20  C   UNL     1      -3.674 -10.396  14.109  0.00  0.00    +0.090 C 
BRANCH  20  21
ATOM      4  O   UNL     1      -4.954 -10.652  17.469  0.00  0.00    -0.354 OA
ATOM      6  N   UNL     1      -3.914 -10.622  16.548  0.00  0.00    -0.083 NA
ATOM     21  C   UNL     1      -4.506 -10.470  15.361  0.00  0.00    +0.087 A 
ATOM     22  C   UNL     1      -5.907 -10.400  15.469  0.00  0.00    +0.076 A 
ATOM     23  C   UNL     1      -6.135 -10.518  16.814  0.00  0.00    +0.167 A 
BRANCH  23  24
ATOM      1  F   UNL     1     -10.686 -10.556  20.015  0.00  0.00    -0.205 F 
ATOM     24  C   UNL     1      -7.308 -10.529  17.639  0.00  0.00    +0.020 A 
ATOM     25  C   UNL     1      -8.562 -10.296  17.073  0.00  0.00    +0.014 A 
ATOM     26  C   UNL     1      -7.196 -10.772  19.008  0.00  0.00    +0.014 A 
ATOM     27  C   UNL     1      -9.703 -10.306  17.875  0.00  0.00    +0.039 A 
ATOM     28  C   UNL     1      -8.337 -10.780  19.811  0.00  0.00    +0.039 A 
ATOM     29  C   UNL     1      -9.591 -10.548  19.244  0.00  0.00    +0.123 A 
ENDBRANCH  23  24
ENDBRANCH  20  21
ENDBRANCH  16  20
TORSDOF 8
ENDMDL
MODEL 5
REMARK VINA RESULT:      -1.4      1.887      4.308
REMARK  Name = 75536254
REMARK  8 active torsions:
REMARK  status: ('A' for Active; 'I' for Inactive)
REMARK    1  A    between atoms: O_3  and  C_12
REMARK    2  A    between atoms: N_5  and  C_11
REMARK    3  A    between atoms: N_5  and  C_18
REMARK    4  A    between atoms: C_7  and  C_11
REMARK    5  A    between atoms: C_10  and  C_18
REMARK    6  A    between atoms: C_16  and  C_20
REMARK    7  A    between atoms: C_20  and  C_21
REMARK    8  A    between atoms: C_23  and  C_24
REMARK                            x       y       z     vdW  Elec       q    Type
REMARK                         _______ _______ _______ _____ _____    ______ ____
ROOT
ATOM      2  O   UNL     1      -1.010   2.831  24.245  0.00  0.00    -0.369 OA
ATOM     10  C   UNL     1      -1.101   3.500  25.509  0.00  0.00    +0.161 C 
ATOM     12  C   UNL     1      -2.377   4.345  25.603  0.00  0.00    +0.145 C 
ATOM     16  C   UNL     1      -2.133   2.014  23.907  0.00  0.00    +0.125 C 
ATOM     17  C   UNL     1      -3.625   3.563  25.202  0.00  0.00    +0.036 C 
ATOM     19  C   UNL     1      -3.415   2.844  23.873  0.00  0.00    +0.034 C 
ENDROOT
BRANCH  12   3
ATOM      3  O   UNL     1      -2.258   5.460  24.715  0.00  0.00    -0.389 OA
ATOM     31  H   UNL     1      -1.312   5.669  24.630  0.00  0.00    +0.210 HD
ENDBRANCH  12   3
BRANCH  10  18
ATOM     18  C   UNL     1      -0.953   2.513  26.665  0.00  0.00    +0.115 C 
BRANCH  18   5
ATOM      5  N   UNL     1      -0.266   1.307  26.233  0.00  0.00    -0.313 NA
ATOM     30  H   UNL     1       0.687   1.301  26.594  0.00  0.00    +0.122 HD
BRANCH   5  11
ATOM     11  C   UNL     1      -0.971   0.113  26.682  0.00  0.00    +0.084 C 
BRANCH  11   7
ATOM      7  C   UNL     1      -1.723  -0.550  25.530  0.00  0.00    +0.003 C 
ATOM      8  C   UNL     1      -1.115  -1.922  25.204  0.00  0.00    +0.005 C 
ATOM      9  C   UNL     1      -3.216  -0.680  25.860  0.00  0.00    +0.005 C 
ATOM     13  C   UNL     1      -1.882  -2.628  24.090  0.00  0.00    +0.000 C 
ATOM     14  C   UNL     1      -3.980  -1.389  24.745  0.00  0.00    +0.000 C 
ATOM     15  C   UNL     1      -3.368  -2.747  24.417  0.00  0.00    +0.000 C 
ENDBRANCH  11   7
ENDBRANCH   5  11
ENDBRANCH  18   5
ENDBRANCH  10  18
BRANCH  16  20
ATOM     20  C   UNL     1      -1.854   1.391  22.544  0.00  0.00    +0.090 C 
BRANCH  20  21
ATOM      4  O   UNL     1       1.083  -0.581  21.850  0.00  0.00    -0.354 OA
ATOM      6  N   UNL     1      -0.251  -0.248  21.647  0.00  0.00    -0.083 NA
ATOM     21  C   UNL     1      -0.486   0.763  22.487  0.00  0.00    +0.087 A 
ATOM     22  C   UNL     1       0.651   1.108  23.240  0.00  0.00    +0.076 A 
ATOM     23  C   UNL     1       1.608   0.234  22.800  0.00  0.00    +0.167 A 
BRANCH  23  24
ATOM      1  F   UNL     1       6.965  -0.638  24.027  0.00  0.00    -0.205 F 
ATOM     24  C   UNL     1       2.989   0.009  23.117  0.00  0.00    +0.020 A 
ATOM     25  C   UNL     1       3.918   1.036  22.952  0.00  0.00    +0.014 A 
ATOM     26  C   UNL     1       3.402  -1.236  23.590  0.00  0.00    +0.014 A 
ATOM     27  C   UNL     1       5.262   0.818  23.260  0.00  0.00    +0.039 A 
ATOM     28  C   UNL     1       4.745  -1.455  23.897  0.00  0.00    +0.039 A 
ATOM     29  C   UNL     1       5.675  -0.427  23.732  0.00  0.00    +0.123 A 
ENDBRANCH  23  24
ENDBRANCH  20  21
ENDBRANCH  16  20
TORSDOF 8
ENDMDL
MODEL 6
REMARK VINA RESULT:      -1.0      1.437      3.692
REMARK  Name = 75536254
REMARK  8 active torsions:
REMARK  status: ('A' for Active; 'I' for Inactive)
REMARK    1  A    between atoms: O_3  and  C_12
REMARK    2  A    between atoms: N_5  and  C_11
REMARK    3  A    between atoms: N_5  and  C_18
REMARK    4  A    between atoms: C_7  and  C_11
REMARK    5  A    between atoms: C_10  and  C_18
REMARK    6  A    between atoms: C_16  and  C_20
REMARK    7  A    between atoms: C_20  and  C_21
REMARK    8  A    between atoms: C_23  and  C_24
REMARK                            x       y       z     vdW  Elec       q    Type
REMARK                         _______ _______ _______ _____ _____    ______ ____
ROOT
ATOM      2  O   UNL     1      -2.422   1.767  24.923  0.00  0.00    -0.369 OA
ATOM     10  C   UNL     1      -2.766   2.719  25.939  0.00  0.00    +0.161 C 
ATOM     12  C   UNL     1      -1.760   3.875  25.984  0.00  0.00    +0.145 C 
ATOM     16  C   UNL     1      -2.278   2.307  23.608  0.00  0.00    +0.125 C 
ATOM     17  C   UNL     1      -1.501   4.477  24.605  0.00  0.00    +0.036 C 
ATOM     19  C   UNL     1      -1.197   3.386  23.583  0.00  0.00    +0.034 C 
ENDROOT
BRANCH  12   3
ATOM      3  O   UNL     1      -0.514   3.382  26.485  0.00  0.00    -0.389 OA
ATOM     31  H   UNL     1      -0.610   3.261  27.445  0.00  0.00    +0.210 HD
ENDBRANCH  12   3
BRANCH  10  18
ATOM     18  C   UNL     1      -4.210   3.190  25.783  0.00  0.00    +0.115 C 
BRANCH  18   5
ATOM      5  N   UNL     1      -5.136   2.075  25.896  0.00  0.00    -0.313 NA
ATOM     30  H   UNL     1      -6.070   2.419  26.115  0.00  0.00    +0.122 HD
BRANCH   5  11
ATOM     11  C   UNL     1      -5.172   1.298  24.663  0.00  0.00    +0.084 C 
BRANCH  11   7
ATOM      7  C   UNL     1      -4.876  -0.176  24.930  0.00  0.00    +0.003 C 
ATOM      8  C   UNL     1      -4.548  -0.909  23.621  0.00  0.00    +0.005 C 
ATOM      9  C   UNL     1      -3.732  -0.324  25.941  0.00  0.00    +0.005 C 
ATOM     13  C   UNL     1      -4.197  -2.373  23.868  0.00  0.00    +0.000 C 
ATOM     14  C   UNL     1      -3.381  -1.791  26.184  0.00  0.00    +0.000 C 
ATOM     15  C   UNL     1      -3.065  -2.518  24.881  0.00  0.00    +0.000 C 
ENDBRANCH  11   7
ENDBRANCH   5  11
ENDBRANCH  18   5
ENDBRANCH  10  18
BRANCH  16  20
ATOM     20  C   UNL     1      -1.917   1.156  22.677  0.00  0.00    +0.090 C 
BRANCH  20  21
ATOM      4  O   UNL     1       0.811  -0.858  23.901  0.00  0.00    -0.354 OA
ATOM      6  N   UNL     1      -0.542  -0.577  23.756  0.00  0.00    -0.083 NA
ATOM     21  C   UNL     1      -0.588   0.545  23.034  0.00  0.00    +0.087 A 
ATOM     22  C   UNL     1       0.694   1.016  22.698  0.00  0.00    +0.076 A 
ATOM     23  C   UNL     1       1.536   0.099  23.266  0.00  0.00    +0.167 A 
BRANCH  23  24
ATOM      1  F   UNL     1       7.062  -0.512  23.506  0.00  0.00    -0.205 F 
ATOM     24  C   UNL     1       2.961  -0.059  23.327  0.00  0.00    +0.020 A 
ATOM     25  C   UNL     1       3.511  -1.261  23.771  0.00  0.00    +0.014 A 
ATOM     26  C   UNL     1       3.796   0.991  22.942  0.00  0.00    +0.014 A 
ATOM     27  C   UNL     1       4.896  -1.415  23.831  0.00  0.00    +0.039 A 
ATOM     28  C   UNL     1       5.181   0.838  23.003  0.00  0.00    +0.039 A 
ATOM     29  C   UNL     1       5.731  -0.365  23.447  0.00  0.00    +0.123 A 
ENDBRANCH  23  24
ENDBRANCH  20  21
ENDBRANCH  16  20
TORSDOF 8
ENDMDL
MODEL 7
REMARK VINA RESULT:       0.2      3.649      7.478
REMARK  Name = 75536254
REMARK  8 active torsions:
REMARK  status: ('A' for Active; 'I' for Inactive)
REMARK    1  A    between atoms: O_3  and  C_12
REMARK    2  A    between atoms: N_5  and  C_11
REMARK    3  A    between atoms: N_5  and  C_18
REMARK    4  A    between atoms: C_7  and  C_11
REMARK    5  A    between atoms: C_10  and  C_18
REMARK    6  A    between atoms: C_16  and  C_20
REMARK    7  A    between atoms: C_20  and  C_21
REMARK    8  A    between atoms: C_23  and  C_24
REMARK                            x       y       z     vdW  Elec       q    Type
REMARK                         _______ _______ _______ _____ _____    ______ ____
ROOT
ATOM      2  O   UNL     1       0.346   1.131  23.110  0.00  0.00    -0.369 OA
ATOM     10  C   UNL     1       0.532  -0.286  22.991  0.00  0.00    +0.161 C 
ATOM     12  C   UNL     1       1.837  -0.618  22.258  0.00  0.00    +0.145 C 
ATOM     16  C   UNL     1       1.421   1.835  23.736  0.00  0.00    +0.125 C 
ATOM     17  C   UNL     1       3.034   0.138  22.829  0.00  0.00    +0.036 C 
ATOM     19  C   UNL     1       2.724   1.625  22.967  0.00  0.00    +0.034 C 
ENDROOT
BRANCH  12   3
ATOM      3  O   UNL     1       1.702  -0.246  20.884  0.00  0.00    -0.389 OA
ATOM     31  H   UNL     1       0.754  -0.268  20.665  0.00  0.00    +0.210 HD
ENDBRANCH  12   3
BRANCH  10  18
ATOM     18  C   UNL     1       0.420  -0.971  24.351  0.00  0.00    +0.115 C 
BRANCH  18   5
ATOM      5  N   UNL     1      -0.425  -0.203  25.252  0.00  0.00    -0.313 NA
ATOM     30  H   UNL     1      -1.139   0.293  24.720  0.00  0.00    +0.122 HD
BRANCH   5  11
ATOM     11  C   UNL     1      -1.056  -1.067  26.241  0.00  0.00    +0.084 C 
BRANCH  11   7
ATOM      7  C   UNL     1      -2.407  -1.579  25.744  0.00  0.00    +0.003 C 
ATOM      8  C   UNL     1      -3.166  -0.470  25.001  0.00  0.00    +0.005 C 
ATOM      9  C   UNL     1      -2.224  -2.811  24.848  0.00  0.00    +0.005 C 
ATOM     13  C   UNL     1      -4.497  -0.972  24.448  0.00  0.00    +0.000 C 
ATOM     14  C   UNL     1      -3.557  -3.309  24.295  0.00  0.00    +0.000 C 
ATOM     15  C   UNL     1      -4.313  -2.203  23.565  0.00  0.00    +0.000 C 
ENDBRANCH  11   7
ENDBRANCH   5  11
ENDBRANCH  18   5
ENDBRANCH  10  18
BRANCH  16  20
ATOM     20  C   UNL     1       1.043   3.311  23.773  0.00  0.00    +0.090 C 
BRANCH  20  21
ATOM      4  O   UNL     1      -2.083   4.550  25.073  0.00  0.00    -0.354 OA
ATOM      6  N   UNL     1      -0.752   4.713  24.706  0.00  0.00    -0.083 NA
ATOM     21  C   UNL     1      -0.366   3.513  24.263  0.00  0.00    +0.087 A 
ATOM     22  C   UNL     1      -1.400   2.563  24.326  0.00  0.00    +0.076 A 
ATOM     23  C   UNL     1      -2.456   3.265  24.842  0.00  0.00    +0.167 A 
BRANCH  23  24
ATOM      1  F   UNL     1      -7.724   2.019  26.126  0.00  0.00    -0.205 F 
ATOM     24  C   UNL     1      -3.814   2.944  25.173  0.00  0.00    +0.020 A 
ATOM     25  C   UNL     1      -4.320   3.264  26.433  0.00  0.00    +0.014 A 
ATOM     26  C   UNL     1      -4.630   2.313  24.234  0.00  0.00    +0.014 A 
ATOM     27  C   UNL     1      -5.641   2.952  26.755  0.00  0.00    +0.039 A 
ATOM     28  C   UNL     1      -5.951   1.999  24.556  0.00  0.00    +0.039 A 
ATOM     29  C   UNL     1      -6.456   2.320  25.817  0.00  0.00    +0.123 A 
ENDBRANCH  23  24
ENDBRANCH  20  21
ENDBRANCH  16  20
TORSDOF 8
ENDMDL
MODEL 8
REMARK VINA RESULT:       0.5      2.909      4.353
REMARK  Name = 75536254
REMARK  8 active torsions:
REMARK  status: ('A' for Active; 'I' for Inactive)
REMARK    1  A    between atoms: O_3  and  C_12
REMARK    2  A    between atoms: N_5  and  C_11
REMARK    3  A    between atoms: N_5  and  C_18
REMARK    4  A    between atoms: C_7  and  C_11
REMARK    5  A    between atoms: C_10  and  C_18
REMARK    6  A    between atoms: C_16  and  C_20
REMARK    7  A    between atoms: C_20  and  C_21
REMARK    8  A    between atoms: C_23  and  C_24
REMARK                            x       y       z     vdW  Elec       q    Type
REMARK                         _______ _______ _______ _____ _____    ______ ____
ROOT
ATOM      2  O   UNL     1      -2.432   2.425  23.988  0.00  0.00    -0.369 OA
ATOM     10  C   UNL     1      -2.611   3.692  24.634  0.00  0.00    +0.161 C 
ATOM     12  C   UNL     1      -4.096   3.996  24.867  0.00  0.00    +0.145 C 
ATOM     16  C   UNL     1      -3.033   1.312  24.654  0.00  0.00    +0.125 C 
ATOM     17  C   UNL     1      -4.832   2.833  25.527  0.00  0.00    +0.036 C 
ATOM     19  C   UNL     1      -4.539   1.522  24.803  0.00  0.00    +0.034 C 
ENDROOT
BRANCH  12   3
ATOM      3  O   UNL     1      -4.719   4.245  23.604  0.00  0.00    -0.389 OA
ATOM     31  H   UNL     1      -5.484   3.649  23.530  0.00  0.00    +0.210 HD
ENDBRANCH  12   3
BRANCH  10  18
ATOM     18  C   UNL     1      -1.776   3.780  25.910  0.00  0.00    +0.115 C 
BRANCH  18   5
ATOM      5  N   UNL     1      -0.362   3.619  25.618  0.00  0.00    -0.313 NA
ATOM     30  H   UNL     1       0.147   4.463  25.879  0.00  0.00    +0.122 HD
BRANCH   5  11
ATOM     11  C   UNL     1       0.191   2.471  26.326  0.00  0.00    +0.084 C 
BRANCH  11   7
ATOM      7  C   UNL     1       0.802   2.889  27.663  0.00  0.00    +0.003 C 
ATOM      8  C   UNL     1       0.171   2.098  28.817  0.00  0.00    +0.005 C 
ATOM      9  C   UNL     1       2.325   2.707  27.644  0.00  0.00    +0.005 C 
ATOM     13  C   UNL     1       0.801   2.460  30.159  0.00  0.00    +0.000 C 
ATOM     14  C   UNL     1       2.952   3.068  28.988  0.00  0.00    +0.000 C 
ATOM     15  C   UNL     1       2.317   2.287  30.135  0.00  0.00    +0.000 C 
ENDBRANCH  11   7
ENDBRANCH   5  11
ENDBRANCH  18   5
ENDBRANCH  10  18
BRANCH  16  20
ATOM     20  C   UNL     1      -2.738   0.067  23.827  0.00  0.00    +0.090 C 
BRANCH  20  21
ATOM      4  O   UNL     1       0.475  -1.474  24.373  0.00  0.00    -0.354 OA
ATOM      6  N   UNL     1      -0.908  -1.436  24.500  0.00  0.00    -0.083 NA
ATOM     21  C   UNL     1      -1.281  -0.309  23.888  0.00  0.00    +0.087 A 
ATOM     22  C   UNL     1      -0.186   0.399  23.361  0.00  0.00    +0.076 A 
ATOM     23  C   UNL     1       0.892  -0.376  23.693  0.00  0.00    +0.167 A 
BRANCH  23  24
ATOM      1  F   UNL     1       6.381   0.008  22.868  0.00  0.00    -0.205 F 
ATOM     24  C   UNL     1       2.307  -0.277  23.481  0.00  0.00    +0.020 A 
ATOM     25  C   UNL     1       2.849   0.879  22.920  0.00  0.00    +0.014 A 
ATOM     26  C   UNL     1       3.142  -1.337  23.837  0.00  0.00    +0.014 A 
ATOM     27  C   UNL     1       4.226   0.976  22.713  0.00  0.00    +0.039 A 
ATOM     28  C   UNL     1       4.518  -1.241  23.629  0.00  0.00    +0.039 A 
ATOM     29  C   UNL     1       5.060  -0.084  23.067  0.00  0.00    +0.123 A 
ENDBRANCH  23  24
ENDBRANCH  20  21
ENDBRANCH  16  20
TORSDOF 8
ENDMDL
MODEL 9
REMARK VINA RESULT:       0.8      3.050      7.313
REMARK  Name = 75536254
REMARK  8 active torsions:
REMARK  status: ('A' for Active; 'I' for Inactive)
REMARK    1  A    between atoms: O_3  and  C_12
REMARK    2  A    between atoms: N_5  and  C_11
REMARK    3  A    between atoms: N_5  and  C_18
REMARK    4  A    between atoms: C_7  and  C_11
REMARK    5  A    between atoms: C_10  and  C_18
REMARK    6  A    between atoms: C_16  and  C_20
REMARK    7  A    between atoms: C_20  and  C_21
REMARK    8  A    between atoms: C_23  and  C_24
REMARK                            x       y       z     vdW  Elec       q    Type
REMARK                         _______ _______ _______ _____ _____    ______ ____
ROOT
ATOM      2  O   UNL     1      -1.909   3.537  24.681  0.00  0.00    -0.369 OA
ATOM     10  C   UNL     1      -0.477   3.588  24.632  0.00  0.00    +0.161 C 
ATOM     12  C   UNL     1       0.018   4.980  24.220  0.00  0.00    +0.145 C 
ATOM     16  C   UNL     1      -2.524   4.514  25.523  0.00  0.00    +0.125 C 
ATOM     17  C   UNL     1      -0.634   6.094  25.034  0.00  0.00    +0.036 C 
ATOM     19  C   UNL     1      -2.150   5.926  25.073  0.00  0.00    +0.034 C 
ENDROOT
BRANCH  12   3
ATOM      3  O   UNL     1      -0.309   5.197  22.845  0.00  0.00    -0.389 OA
ATOM     31  H   UNL     1      -0.088   4.384  22.358  0.00  0.00    +0.210 HD
ENDBRANCH  12   3
BRANCH  10  18
ATOM     18  C   UNL     1       0.135   3.100  25.943  0.00  0.00    +0.115 C 
BRANCH  18   5
ATOM      5  N   UNL     1       0.444   1.681  25.876  0.00  0.00    -0.313 NA
ATOM     30  H   UNL     1       0.082   1.207  26.703  0.00  0.00    +0.122 HD
BRANCH   5  11
ATOM     11  C   UNL     1      -0.122   1.079  24.675  0.00  0.00    +0.084 C 
BRANCH  11   7
ATOM      7  C   UNL     1       0.948   0.346  23.869  0.00  0.00    +0.003 C 
ATOM      8  C   UNL     1       0.385  -0.120  22.519  0.00  0.00    +0.005 C 
ATOM      9  C   UNL     1       2.181   1.237  23.668  0.00  0.00    +0.005 C 
ATOM     13  C   UNL     1       1.451  -0.810  21.671  0.00  0.00    +0.000 C 
ATOM     14  C   UNL     1       3.244   0.545  22.818  0.00  0.00    +0.000 C 
ATOM     15  C   UNL     1       2.679   0.075  21.481  0.00  0.00    +0.000 C 
ENDBRANCH  11   7
ENDBRANCH   5  11
ENDBRANCH  18   5
ENDBRANCH  10  18
BRANCH  16  20
ATOM     20  C   UNL     1      -4.031   4.302  25.447  0.00  0.00    +0.090 C 
BRANCH  20  21
ATOM      4  O   UNL     1      -5.622   1.083  25.123  0.00  0.00    -0.354 OA
ATOM      6  N   UNL     1      -5.657   2.457  25.329  0.00  0.00    -0.083 NA
ATOM     21  C   UNL     1      -4.381   2.849  25.266  0.00  0.00    +0.087 A 
ATOM     22  C   UNL     1      -3.505   1.776  25.025  0.00  0.00    +0.076 A 
ATOM     23  C   UNL     1      -4.335   0.691  24.943  0.00  0.00    +0.167 A 
BRANCH  23  24
ATOM      1  F   UNL     1      -3.574  -4.750  24.060  0.00  0.00    -0.205 F 
ATOM     24  C   UNL     1      -4.139  -0.712  24.716  0.00  0.00    +0.020 A 
ATOM     25  C   UNL     1      -3.458  -1.483  25.657  0.00  0.00    +0.014 A 
ATOM     26  C   UNL     1      -4.631  -1.305  23.553  0.00  0.00    +0.014 A 
ATOM     27  C   UNL     1      -3.267  -2.847  25.437  0.00  0.00    +0.039 A 
ATOM     28  C   UNL     1      -4.440  -2.669  23.331  0.00  0.00    +0.039 A 
ATOM     29  C   UNL     1      -3.758  -3.440  24.273  0.00  0.00    +0.123 A 
ENDBRANCH  23  24
ENDBRANCH  20  21
ENDBRANCH  16  20
TORSDOF 8
ENDMDL
