MODEL 1
REMARK VINA RESULT:      -3.4      0.000      0.000
REMARK  Name = 51137073
REMARK  4 active torsions:
REMARK  status: ('A' for Active; 'I' for Inactive)
REMARK    1  A    between atoms: N_2  and  C_9
REMARK    2  A    between atoms: C_5  and  C_10
REMARK    3  A    between atoms: C_9  and  C_11
REMARK    4  A    between atoms: C_18  and  C_23
REMARK                            x       y       z     vdW  Elec       q    Type
REMARK                         _______ _______ _______ _____ _____    ______ ____
ROOT
ATOM      2  N   UNL     1      -6.053  -9.642  10.108  0.00  0.00    -0.297 NA
ATOM      5  C   UNL     1      -7.649 -10.255  11.714  0.00  0.00    +0.060 C 
ATOM      6  C   UNL     1      -8.340  -9.507  10.562  0.00  0.00    +0.027 C 
ATOM      7  C   UNL     1      -6.156  -9.947  11.536  0.00  0.00    +0.095 C 
ATOM      8  C   UNL     1      -7.214  -8.799   9.819  0.00  0.00    +0.085 C 
ENDROOT
BRANCH   5  10
ATOM      1  S   UNL     1      -7.099 -10.022  14.428  0.00  0.00    -0.072 S 
ATOM      3  N   UNL     1      -9.390  -9.528  13.352  0.00  0.00    -0.244 NA
ATOM     10  C   UNL     1      -8.161  -9.912  13.093  0.00  0.00    +0.084 A 
ATOM     12  C   UNL     1      -8.374  -9.513  15.472  0.00  0.00    +0.039 A 
ATOM     13  C   UNL     1      -9.527  -9.296  14.712  0.00  0.00    +0.078 A 
ATOM     16  C   UNL     1      -8.354  -9.320  16.863  0.00  0.00    +0.017 A 
ATOM     17  C   UNL     1     -10.701  -8.869  15.370  0.00  0.00    +0.029 A 
ATOM     21  C   UNL     1      -9.529  -8.898  17.489  0.00  0.00    +0.001 A 
ATOM     22  C   UNL     1     -10.688  -8.675  16.755  0.00  0.00    +0.002 A 
ENDBRANCH   5  10
BRANCH   2   9
ATOM      9  C   UNL     1      -4.797  -8.990   9.768  0.00  0.00    +0.119 C 
BRANCH   9  11
ATOM     11  C   UNL     1      -3.668  -9.452  10.649  0.00  0.00    -0.032 A 
ATOM     14  C   UNL     1      -2.373  -8.982  10.431  0.00  0.00    +0.023 A 
ATOM     15  C   UNL     1      -3.918 -10.352  11.685  0.00  0.00    +0.005 A 
ATOM     18  C   UNL     1      -1.328  -9.410  11.250  0.00  0.00    +0.052 A 
ATOM     19  C   UNL     1      -2.873 -10.781  12.504  0.00  0.00    +0.002 A 
ATOM     20  C   UNL     1      -1.578 -10.310  12.286  0.00  0.00    +0.019 A 
BRANCH  18  23
ATOM      4  N   UNL     1       1.076  -8.535  10.847  0.00  0.00    -0.191 NA
ATOM     23  C   UNL     1      -0.002  -8.927  11.028  0.00  0.00    +0.099 C 
ENDBRANCH  18  23
ENDBRANCH   9  11
ENDBRANCH   2   9
TORSDOF 4
ENDMDL
MODEL 2
REMARK VINA RESULT:      -2.3     15.072     17.880
REMARK  Name = 51137073
REMARK  4 active torsions:
REMARK  status: ('A' for Active; 'I' for Inactive)
REMARK    1  A    between atoms: N_2  and  C_9
REMARK    2  A    between atoms: C_5  and  C_10
REMARK    3  A    between atoms: C_9  and  C_11
REMARK    4  A    between atoms: C_18  and  C_23
REMARK                            x       y       z     vdW  Elec       q    Type
REMARK                         _______ _______ _______ _____ _____    ______ ____
ROOT
ATOM      2  N   UNL     1      -3.247  -0.928  24.573  0.00  0.00    -0.297 NA
ATOM      5  C   UNL     1      -0.964  -1.462  24.491  0.00  0.00    +0.060 C 
ATOM      6  C   UNL     1      -1.368  -1.149  25.941  0.00  0.00    +0.027 C 
ATOM      7  C   UNL     1      -2.118  -0.914  23.640  0.00  0.00    +0.095 C 
ATOM      8  C   UNL     1      -2.702  -0.421  25.832  0.00  0.00    +0.085 C 
ENDROOT
BRANCH   5  10
ATOM      1  S   UNL     1       0.476   0.634  23.371  0.00  0.00    -0.072 S 
ATOM      3  N   UNL     1       1.516  -1.571  24.213  0.00  0.00    -0.244 NA
ATOM     10  C   UNL     1       0.383  -0.922  24.075  0.00  0.00    +0.084 A 
ATOM     12  C   UNL     1       2.185   0.455  23.225  0.00  0.00    +0.039 A 
ATOM     13  C   UNL     1       2.559  -0.794  23.730  0.00  0.00    +0.078 A 
ATOM     16  C   UNL     1       3.127   1.356  22.701  0.00  0.00    +0.017 A 
ATOM     17  C   UNL     1       3.924  -1.151  23.709  0.00  0.00    +0.029 A 
ATOM     21  C   UNL     1       4.471   0.977  22.692  0.00  0.00    +0.001 A 
ATOM     22  C   UNL     1       4.867  -0.260  23.190  0.00  0.00    +0.002 A 
ENDBRANCH   5  10
BRANCH   2   9
ATOM      9  C   UNL     1      -4.371  -0.136  24.097  0.00  0.00    +0.119 C 
BRANCH   9  11
ATOM     11  C   UNL     1      -4.373   1.248  24.688  0.00  0.00    -0.032 A 
ATOM     14  C   UNL     1      -3.230   2.043  24.611  0.00  0.00    +0.023 A 
ATOM     15  C   UNL     1      -5.521   1.736  25.313  0.00  0.00    +0.005 A 
ATOM     18  C   UNL     1      -3.234   3.326  25.158  0.00  0.00    +0.052 A 
ATOM     19  C   UNL     1      -5.525   3.019  25.861  0.00  0.00    +0.002 A 
ATOM     20  C   UNL     1      -4.381   3.814  25.784  0.00  0.00    +0.019 A 
BRANCH  18  23
ATOM      4  N   UNL     1      -1.112   4.804  25.013  0.00  0.00    -0.191 NA
ATOM     23  C   UNL     1      -2.063   4.141  25.079  0.00  0.00    +0.099 C 
ENDBRANCH  18  23
ENDBRANCH   9  11
ENDBRANCH   2   9
TORSDOF 4
ENDMDL
MODEL 3
REMARK VINA RESULT:      -1.2     15.432     17.773
REMARK  Name = 51137073
REMARK  4 active torsions:
REMARK  status: ('A' for Active; 'I' for Inactive)
REMARK    1  A    between atoms: N_2  and  C_9
REMARK    2  A    between atoms: C_5  and  C_10
REMARK    3  A    between atoms: C_9  and  C_11
REMARK    4  A    between atoms: C_18  and  C_23
REMARK                            x       y       z     vdW  Elec       q    Type
REMARK                         _______ _______ _______ _____ _____    ______ ____
ROOT
ATOM      2  N   UNL     1      -5.385   3.457  25.063  0.00  0.00    -0.297 NA
ATOM      5  C   UNL     1      -4.999   1.208  24.520  0.00  0.00    +0.060 C 
ATOM      6  C   UNL     1      -5.919   1.290  25.749  0.00  0.00    +0.027 C 
ATOM      7  C   UNL     1      -4.392   2.612  24.395  0.00  0.00    +0.095 C 
ATOM      8  C   UNL     1      -5.763   2.714  26.266  0.00  0.00    +0.085 C 
ENDROOT
BRANCH   5  10
ATOM      1  S   UNL     1      -4.344  -1.442  23.998  0.00  0.00    -0.072 S 
ATOM      3  N   UNL     1      -2.742   0.280  25.055  0.00  0.00    -0.244 NA
ATOM     10  C   UNL     1      -3.955   0.118  24.579  0.00  0.00    +0.084 A 
ATOM     12  C   UNL     1      -2.758  -1.981  24.408  0.00  0.00    +0.039 A 
ATOM     13  C   UNL     1      -2.044  -0.915  24.964  0.00  0.00    +0.078 A 
ATOM     16  C   UNL     1      -2.187  -3.254  24.249  0.00  0.00    +0.017 A 
ATOM     17  C   UNL     1      -0.711  -1.134  25.374  0.00  0.00    +0.029 A 
ATOM     21  C   UNL     1      -0.867  -3.444  24.663  0.00  0.00    +0.001 A 
ATOM     22  C   UNL     1      -0.136  -2.399  25.218  0.00  0.00    +0.002 A 
ENDBRANCH   5  10
BRANCH   2   9
ATOM      9  C   UNL     1      -4.870   4.783  25.371  0.00  0.00    +0.119 C 
BRANCH   9  11
ATOM     11  C   UNL     1      -3.371   4.847  25.241  0.00  0.00    -0.032 A 
ATOM     14  C   UNL     1      -2.581   3.817  25.750  0.00  0.00    +0.023 A 
ATOM     15  C   UNL     1      -2.774   5.940  24.612  0.00  0.00    +0.005 A 
ATOM     18  C   UNL     1      -1.193   3.878  25.628  0.00  0.00    +0.052 A 
ATOM     19  C   UNL     1      -1.386   6.001  24.490  0.00  0.00    +0.002 A 
ATOM     20  C   UNL     1      -0.595   4.971  24.998  0.00  0.00    +0.019 A 
BRANCH  18  23
ATOM      4  N   UNL     1       0.277   1.965  26.570  0.00  0.00    -0.191 NA
ATOM     23  C   UNL     1      -0.382   2.822  26.147  0.00  0.00    +0.099 C 
ENDBRANCH  18  23
ENDBRANCH   9  11
ENDBRANCH   2   9
TORSDOF 4
ENDMDL
MODEL 4
REMARK VINA RESULT:      -1.0     15.358     17.866
REMARK  Name = 51137073
REMARK  4 active torsions:
REMARK  status: ('A' for Active; 'I' for Inactive)
REMARK    1  A    between atoms: N_2  and  C_9
REMARK    2  A    between atoms: C_5  and  C_10
REMARK    3  A    between atoms: C_9  and  C_11
REMARK    4  A    between atoms: C_18  and  C_23
REMARK                            x       y       z     vdW  Elec       q    Type
REMARK                         _______ _______ _______ _____ _____    ______ ____
ROOT
ATOM      2  N   UNL     1      -0.171   3.645  25.394  0.00  0.00    -0.297 NA
ATOM      5  C   UNL     1      -0.237   1.301  25.323  0.00  0.00    +0.060 C 
ATOM      6  C   UNL     1       0.591   1.829  24.138  0.00  0.00    +0.027 C 
ATOM      7  C   UNL     1      -1.006   2.527  25.834  0.00  0.00    +0.095 C 
ATOM      8  C   UNL     1       0.225   3.304  24.027  0.00  0.00    +0.085 C 
ENDROOT
BRANCH   5  10
ATOM      1  S   UNL     1      -0.524  -1.457  25.142  0.00  0.00    -0.072 S 
ATOM      3  N   UNL     1      -2.384   0.246  24.603  0.00  0.00    -0.244 NA
ATOM     10  C   UNL     1      -1.137   0.133  24.998  0.00  0.00    +0.084 A 
ATOM     12  C   UNL     1      -2.049  -2.081  24.634  0.00  0.00    +0.039 A 
ATOM     13  C   UNL     1      -2.920  -1.015  24.390  0.00  0.00    +0.078 A 
ATOM     16  C   UNL     1      -2.446  -3.417  24.464  0.00  0.00    +0.017 A 
ATOM     17  C   UNL     1      -4.235  -1.299  23.961  0.00  0.00    +0.029 A 
ATOM     21  C   UNL     1      -3.752  -3.671  24.038  0.00  0.00    +0.001 A 
ATOM     22  C   UNL     1      -4.636  -2.628  23.790  0.00  0.00    +0.002 A 
ENDBRANCH   5  10
BRANCH   2   9
ATOM      9  C   UNL     1      -0.866   4.921  25.467  0.00  0.00    +0.119 C 
BRANCH   9  11
ATOM     11  C   UNL     1      -2.307   4.800  25.051  0.00  0.00    -0.032 A 
ATOM     14  C   UNL     1      -3.160   3.931  25.731  0.00  0.00    +0.023 A 
ATOM     15  C   UNL     1      -2.789   5.559  23.984  0.00  0.00    +0.005 A 
ATOM     18  C   UNL     1      -4.496   3.822  25.345  0.00  0.00    +0.052 A 
ATOM     19  C   UNL     1      -4.125   5.449  23.598  0.00  0.00    +0.002 A 
ATOM     20  C   UNL     1      -4.979   4.580  24.278  0.00  0.00    +0.019 A 
BRANCH  18  23
ATOM      4  N   UNL     1      -6.081   2.209  26.608  0.00  0.00    -0.191 NA
ATOM     23  C   UNL     1      -5.371   2.932  26.042  0.00  0.00    +0.099 C 
ENDBRANCH  18  23
ENDBRANCH   9  11
ENDBRANCH   2   9
TORSDOF 4
ENDMDL
MODEL 5
REMARK VINA RESULT:      -1.0     15.537     18.407
REMARK  Name = 51137073
REMARK  4 active torsions:
REMARK  status: ('A' for Active; 'I' for Inactive)
REMARK    1  A    between atoms: N_2  and  C_9
REMARK    2  A    between atoms: C_5  and  C_10
REMARK    3  A    between atoms: C_9  and  C_11
REMARK    4  A    between atoms: C_18  and  C_23
REMARK                            x       y       z     vdW  Elec       q    Type
REMARK                         _______ _______ _______ _____ _____    ______ ____
ROOT
ATOM      2  N   UNL     1      -2.673   4.425  25.693  0.00  0.00    -0.297 NA
ATOM      5  C   UNL     1      -0.621   3.319  25.439  0.00  0.00    +0.060 C 
ATOM      6  C   UNL     1      -0.458   4.799  25.055  0.00  0.00    +0.027 C 
ATOM      7  C   UNL     1      -2.137   3.085  25.448  0.00  0.00    +0.095 C 
ATOM      8  C   UNL     1      -1.877   5.310  24.842  0.00  0.00    +0.085 C 
ENDROOT
BRANCH   5  10
ATOM      1  S   UNL     1      -0.735   1.045  23.845  0.00  0.00    -0.072 S 
ATOM      3  N   UNL     1       1.401   2.425  24.273  0.00  0.00    -0.244 NA
ATOM     10  C   UNL     1       0.120   2.347  24.550  0.00  0.00    +0.084 A 
ATOM     12  C   UNL     1       0.719   0.513  23.086  0.00  0.00    +0.039 A 
ATOM     13  C   UNL     1       1.759   1.380  23.434  0.00  0.00    +0.078 A 
ATOM     16  C   UNL     1       0.925  -0.592  22.244  0.00  0.00    +0.017 A 
ATOM     17  C   UNL     1       3.050   1.131  22.920  0.00  0.00    +0.029 A 
ATOM     21  C   UNL     1       2.212  -0.816  21.749  0.00  0.00    +0.001 A 
ATOM     22  C   UNL     1       3.261   0.033  22.080  0.00  0.00    +0.002 A 
ENDBRANCH   5  10
BRANCH   2   9
ATOM      9  C   UNL     1      -4.097   4.516  25.408  0.00  0.00    +0.119 C 
BRANCH   9  11
ATOM     11  C   UNL     1      -4.766   3.169  25.455  0.00  0.00    -0.032 A 
ATOM     14  C   UNL     1      -4.206   2.086  24.778  0.00  0.00    +0.023 A 
ATOM     15  C   UNL     1      -5.948   3.004  26.178  0.00  0.00    +0.005 A 
ATOM     18  C   UNL     1      -4.827   0.838  24.824  0.00  0.00    +0.052 A 
ATOM     19  C   UNL     1      -6.569   1.756  26.224  0.00  0.00    +0.002 A 
ATOM     20  C   UNL     1      -6.009   0.672  25.547  0.00  0.00    +0.019 A 
BRANCH  18  23
ATOM      4  N   UNL     1      -3.788  -1.175  23.568  0.00  0.00    -0.191 NA
ATOM     23  C   UNL     1      -4.253  -0.273  24.131  0.00  0.00    +0.099 C 
ENDBRANCH  18  23
ENDBRANCH   9  11
ENDBRANCH   2   9
TORSDOF 4
ENDMDL
MODEL 6
REMARK VINA RESULT:      -0.5     14.995     16.790
REMARK  Name = 51137073
REMARK  4 active torsions:
REMARK  status: ('A' for Active; 'I' for Inactive)
REMARK    1  A    between atoms: N_2  and  C_9
REMARK    2  A    between atoms: C_5  and  C_10
REMARK    3  A    between atoms: C_9  and  C_11
REMARK    4  A    between atoms: C_18  and  C_23
REMARK                            x       y       z     vdW  Elec       q    Type
REMARK                         _______ _______ _______ _____ _____    ______ ____
ROOT
ATOM      2  N   UNL     1      -2.212  -2.118  24.940  0.00  0.00    -0.297 NA
ATOM      5  C   UNL     1      -4.017  -0.692  25.398  0.00  0.00    +0.060 C 
ATOM      6  C   UNL     1      -4.315  -1.508  24.129  0.00  0.00    +0.027 C 
ATOM      7  C   UNL     1      -2.506  -0.854  25.617  0.00  0.00    +0.095 C 
ATOM      8  C   UNL     1      -2.964  -2.059  23.687  0.00  0.00    +0.085 C 
ENDROOT
BRANCH   5  10
ATOM      1  S   UNL     1      -5.947   1.201  26.042  0.00  0.00    -0.072 S 
ATOM      3  N   UNL     1      -3.757   1.715  24.780  0.00  0.00    -0.244 NA
ATOM     10  C   UNL     1      -4.452   0.753  25.341  0.00  0.00    +0.084 A 
ATOM     12  C   UNL     1      -5.668   2.836  25.567  0.00  0.00    +0.039 A 
ATOM     13  C   UNL     1      -4.441   2.915  24.901  0.00  0.00    +0.078 A 
ATOM     16  C   UNL     1      -6.477   3.966  25.769  0.00  0.00    +0.017 A 
ATOM     17  C   UNL     1      -4.011   4.171  24.422  0.00  0.00    +0.029 A 
ATOM     21  C   UNL     1      -6.028   5.196  25.285  0.00  0.00    +0.001 A 
ATOM     22  C   UNL     1      -4.811   5.300  24.621  0.00  0.00    +0.002 A 
ENDBRANCH   5  10
BRANCH   2   9
ATOM      9  C   UNL     1      -0.786  -2.312  24.721  0.00  0.00    +0.119 C 
BRANCH   9  11
ATOM     11  C   UNL     1      -0.104  -1.039  24.296  0.00  0.00    -0.032 A 
ATOM     14  C   UNL     1      -0.490   0.180  24.854  0.00  0.00    +0.023 A 
ATOM     15  C   UNL     1       0.913  -1.079  23.343  0.00  0.00    +0.005 A 
ATOM     18  C   UNL     1       0.144   1.358  24.460  0.00  0.00    +0.052 A 
ATOM     19  C   UNL     1       1.547   0.099  22.949  0.00  0.00    +0.002 A 
ATOM     20  C   UNL     1       1.162   1.319  23.507  0.00  0.00    +0.019 A 
BRANCH  18  23
ATOM      4  N   UNL     1      -0.570   3.622  25.498  0.00  0.00    -0.191 NA
ATOM     23  C   UNL     1      -0.249   2.607  25.033  0.00  0.00    +0.099 C 
ENDBRANCH  18  23
ENDBRANCH   9  11
ENDBRANCH   2   9
TORSDOF 4
ENDMDL
MODEL 7
REMARK VINA RESULT:      -0.3     15.102     17.893
REMARK  Name = 51137073
REMARK  4 active torsions:
REMARK  status: ('A' for Active; 'I' for Inactive)
REMARK    1  A    between atoms: N_2  and  C_9
REMARK    2  A    between atoms: C_5  and  C_10
REMARK    3  A    between atoms: C_9  and  C_11
REMARK    4  A    between atoms: C_18  and  C_23
REMARK                            x       y       z     vdW  Elec       q    Type
REMARK                         _______ _______ _______ _____ _____    ______ ____
ROOT
ATOM      2  N   UNL     1      -2.742  -0.839  24.613  0.00  0.00    -0.297 NA
ATOM      5  C   UNL     1      -0.797  -1.016  23.315  0.00  0.00    +0.060 C 
ATOM      6  C   UNL     1      -1.230  -2.414  23.786  0.00  0.00    +0.027 C 
ATOM      7  C   UNL     1      -1.580  -0.046  24.210  0.00  0.00    +0.095 C 
ATOM      8  C   UNL     1      -2.204  -2.162  24.930  0.00  0.00    +0.085 C 
ENDROOT
BRANCH   5  10
ATOM      1  S   UNL     1       1.711  -1.903  24.118  0.00  0.00    -0.072 S 
ATOM      3  N   UNL     1       1.282   0.273  22.803  0.00  0.00    -0.244 NA
ATOM     10  C   UNL     1       0.693  -0.770  23.341  0.00  0.00    +0.084 A 
ATOM     12  C   UNL     1       3.081  -0.936  23.714  0.00  0.00    +0.039 A 
ATOM     13  C   UNL     1       2.651   0.192  23.009  0.00  0.00    +0.078 A 
ATOM     16  C   UNL     1       4.437  -1.160  24.000  0.00  0.00    +0.017 A 
ATOM     17  C   UNL     1       3.615   1.127  22.575  0.00  0.00    +0.029 A 
ATOM     21  C   UNL     1       5.371  -0.219  23.560  0.00  0.00    +0.001 A 
ATOM     22  C   UNL     1       4.967   0.910  22.856  0.00  0.00    +0.002 A 
ENDBRANCH   5  10
BRANCH   2   9
ATOM      9  C   UNL     1      -3.456  -0.248  25.735  0.00  0.00    +0.119 C 
BRANCH   9  11
ATOM     11  C   UNL     1      -3.809   1.193  25.480  0.00  0.00    -0.032 A 
ATOM     14  C   UNL     1      -2.806   2.160  25.434  0.00  0.00    +0.023 A 
ATOM     15  C   UNL     1      -5.141   1.560  25.291  0.00  0.00    +0.005 A 
ATOM     18  C   UNL     1      -3.134   3.495  25.197  0.00  0.00    +0.052 A 
ATOM     19  C   UNL     1      -5.470   2.895  25.054  0.00  0.00    +0.002 A 
ATOM     20  C   UNL     1      -4.466   3.863  25.007  0.00  0.00    +0.019 A 
BRANCH  18  23
ATOM      4  N   UNL     1      -1.270   5.291  25.109  0.00  0.00    -0.191 NA
ATOM     23  C   UNL     1      -2.106   4.487  25.148  0.00  0.00    +0.099 C 
ENDBRANCH  18  23
ENDBRANCH   9  11
ENDBRANCH   2   9
TORSDOF 4
ENDMDL
MODEL 8
REMARK VINA RESULT:       0.0     14.913     17.835
REMARK  Name = 51137073
REMARK  4 active torsions:
REMARK  status: ('A' for Active; 'I' for Inactive)
REMARK    1  A    between atoms: N_2  and  C_9
REMARK    2  A    between atoms: C_5  and  C_10
REMARK    3  A    between atoms: C_9  and  C_11
REMARK    4  A    between atoms: C_18  and  C_23
REMARK                            x       y       z     vdW  Elec       q    Type
REMARK                         _______ _______ _______ _____ _____    ______ ____
ROOT
ATOM      2  N   UNL     1      -2.893  -1.359  24.507  0.00  0.00    -0.297 NA
ATOM      5  C   UNL     1      -0.603  -1.821  24.292  0.00  0.00    +0.060 C 
ATOM      6  C   UNL     1      -0.971  -1.722  25.782  0.00  0.00    +0.027 C 
ATOM      7  C   UNL     1      -1.792  -1.188  23.556  0.00  0.00    +0.095 C 
ATOM      8  C   UNL     1      -2.322  -1.018  25.810  0.00  0.00    +0.085 C 
ENDROOT
BRANCH   5  10
ATOM      1  S   UNL     1       0.731   0.264  23.028  0.00  0.00    -0.072 S 
ATOM      3  N   UNL     1       1.892  -1.698  24.235  0.00  0.00    -0.244 NA
ATOM     10  C   UNL     1       0.720  -1.195  23.920  0.00  0.00    +0.084 A 
ATOM     12  C   UNL     1       2.455   0.252  23.047  0.00  0.00    +0.039 A 
ATOM     13  C   UNL     1       2.897  -0.879  23.741  0.00  0.00    +0.078 A 
ATOM     16  C   UNL     1       3.353   1.176  22.489  0.00  0.00    +0.017 A 
ATOM     17  C   UNL     1       4.285  -1.089  23.880  0.00  0.00    +0.029 A 
ATOM     21  C   UNL     1       4.722   0.944  22.640  0.00  0.00    +0.001 A 
ATOM     22  C   UNL     1       5.184  -0.173  23.327  0.00  0.00    +0.002 A 
ENDBRANCH   5  10
BRANCH   2   9
ATOM      9  C   UNL     1      -4.047  -0.537  24.175  0.00  0.00    +0.119 C 
BRANCH   9  11
ATOM     11  C   UNL     1      -3.765   0.929  24.367  0.00  0.00    -0.032 A 
ATOM     14  C   UNL     1      -4.763   1.775  24.850  0.00  0.00    +0.023 A 
ATOM     15  C   UNL     1      -2.505   1.441  24.060  0.00  0.00    +0.005 A 
ATOM     18  C   UNL     1      -4.500   3.134  25.028  0.00  0.00    +0.052 A 
ATOM     19  C   UNL     1      -2.241   2.799  24.238  0.00  0.00    +0.002 A 
ATOM     20  C   UNL     1      -3.239   3.646  24.722  0.00  0.00    +0.019 A 
BRANCH  18  23
ATOM      4  N   UNL     1      -6.351   4.706  25.927  0.00  0.00    -0.191 NA
ATOM     23  C   UNL     1      -5.522   4.001  25.524  0.00  0.00    +0.099 C 
ENDBRANCH  18  23
ENDBRANCH   9  11
ENDBRANCH   2   9
TORSDOF 4
ENDMDL
