MODEL 1
REMARK VINA RESULT:      -5.7      0.000      0.000
REMARK  Name = 56775709
REMARK  8 active torsions:
REMARK  status: ('A' for Active; 'I' for Inactive)
REMARK    1  A    between atoms: O_3  and  C_18
REMARK    2  A    between atoms: O_3  and  C_26
REMARK    3  A    between atoms: N_4  and  C_7
REMARK    4  A    between atoms: N_4  and  C_11
REMARK    5  A    between atoms: C_7  and  C_10
REMARK    6  A    between atoms: C_10  and  C_12
REMARK    7  A    between atoms: C_11  and  C_13
REMARK    8  A    between atoms: C_15  and  C_19
REMARK                            x       y       z     vdW  Elec       q    Type
REMARK                         _______ _______ _______ _____ _____    ______ ____
ROOT
ATOM      1  O   UNL     1      -5.804   4.106  25.394  0.00  0.00    -0.376 OA
ATOM      7  C   UNL     1      -3.752   3.545  25.210  0.00  0.00    +0.072 C 
ATOM      8  C   UNL     1      -4.922   3.233  26.137  0.00  0.00    +0.184 C 
ATOM      9  C   UNL     1      -4.714   4.517  24.537  0.00  0.00    +0.184 C 
ENDROOT
BRANCH   7   4
ATOM      4  N   UNL     1      -3.538   2.401  24.321  0.00  0.00    -0.302 NA
ATOM     27  H   UNL     1      -2.574   2.074  24.262  0.00  0.00    +0.123 HD
BRANCH   4  11
ATOM     11  C   UNL     1      -4.408   1.301  24.738  0.00  0.00    +0.117 C 
BRANCH  11  13
ATOM     13  C   UNL     1      -3.712  -0.018  24.702  0.00  0.00    -0.030 A 
ATOM     16  C   UNL     1      -2.440  -0.150  25.256  0.00  0.00    +0.050 A 
ATOM     17  C   UNL     1      -4.335  -1.119  24.114  0.00  0.00    +0.005 A 
ATOM     18  C   UNL     1      -1.788  -1.383  25.222  0.00  0.00    +0.120 A 
ATOM     20  C   UNL     1      -3.684  -2.352  24.080  0.00  0.00    +0.004 A 
ATOM     21  C   UNL     1      -2.410  -2.484  24.634  0.00  0.00    +0.045 A 
BRANCH  18   3
ATOM      3  O   UNL     1      -0.545  -1.511  25.762  0.00  0.00    -0.495 OA
ATOM     26  C   UNL     1       0.247  -2.610  25.315  0.00  0.00    +0.277 C 
ENDBRANCH  18   3
ENDBRANCH  11  13
ENDBRANCH   4  11
ENDBRANCH   7   4
BRANCH   7  10
ATOM     10  C   UNL     1      -2.481   4.073  25.801  0.00  0.00    +0.085 C 
BRANCH  10  12
ATOM      2  O   UNL     1       0.465   1.981  25.714  0.00  0.00    -0.353 OA
ATOM      5  N   UNL     1      -0.478   2.751  26.385  0.00  0.00    -0.083 NA
ATOM     12  C   UNL     1      -1.308   3.188  25.433  0.00  0.00    +0.086 A 
ATOM     14  C   UNL     1      -0.941   2.732  24.155  0.00  0.00    +0.077 A 
ATOM     15  C   UNL     1       0.179   1.978  24.388  0.00  0.00    +0.186 A 
BRANCH  15  19
ATOM      6  N   UNL     1       2.360   1.619  23.606  0.00  0.00    -0.252 NA
ATOM     19  C   UNL     1       1.070   1.218  23.560  0.00  0.00    +0.109 A 
ATOM     22  C   UNL     1       0.613   0.163  22.788  0.00  0.00    +0.031 A 
ATOM     23  C   UNL     1       1.540  -0.526  22.013  0.00  0.00    +0.004 A 
ATOM     24  C   UNL     1       3.232   0.926  22.839  0.00  0.00    +0.111 A 
ATOM     25  C   UNL     1       2.875  -0.143  22.034  0.00  0.00    +0.020 A 
ENDBRANCH  15  19
ENDBRANCH  10  12
ENDBRANCH   7  10
TORSDOF 7
ENDMDL
MODEL 2
REMARK VINA RESULT:      -4.3      1.741      4.578
REMARK  Name = 56775709
REMARK  8 active torsions:
REMARK  status: ('A' for Active; 'I' for Inactive)
REMARK    1  A    between atoms: O_3  and  C_18
REMARK    2  A    between atoms: O_3  and  C_26
REMARK    3  A    between atoms: N_4  and  C_7
REMARK    4  A    between atoms: N_4  and  C_11
REMARK    5  A    between atoms: C_7  and  C_10
REMARK    6  A    between atoms: C_10  and  C_12
REMARK    7  A    between atoms: C_11  and  C_13
REMARK    8  A    between atoms: C_15  and  C_19
REMARK                            x       y       z     vdW  Elec       q    Type
REMARK                         _______ _______ _______ _____ _____    ______ ____
ROOT
ATOM      1  O   UNL     1      -1.457  -2.770  25.408  0.00  0.00    -0.376 OA
ATOM      7  C   UNL     1      -2.419  -1.037  24.614  0.00  0.00    +0.072 C 
ATOM      8  C   UNL     1      -2.359  -2.528  24.303  0.00  0.00    +0.184 C 
ATOM      9  C   UNL     1      -1.394  -1.355  25.697  0.00  0.00    +0.184 C 
ENDROOT
BRANCH   7   4
ATOM      4  N   UNL     1      -3.704  -0.740  25.251  0.00  0.00    -0.302 NA
ATOM     27  H   UNL     1      -3.641  -0.259  26.148  0.00  0.00    +0.123 HD
BRANCH   4  11
ATOM     11  C   UNL     1      -4.528   0.041  24.328  0.00  0.00    +0.117 C 
BRANCH  11  13
ATOM     13  C   UNL     1      -4.686   1.458  24.768  0.00  0.00    -0.030 A 
ATOM     16  C   UNL     1      -3.661   2.376  24.543  0.00  0.00    +0.050 A 
ATOM     17  C   UNL     1      -5.859   1.863  25.405  0.00  0.00    +0.005 A 
ATOM     18  C   UNL     1      -3.808   3.700  24.955  0.00  0.00    +0.120 A 
ATOM     20  C   UNL     1      -6.006   3.188  25.817  0.00  0.00    +0.004 A 
ATOM     21  C   UNL     1      -4.980   4.107  25.592  0.00  0.00    +0.045 A 
BRANCH  18   3
ATOM      3  O   UNL     1      -2.806   4.596  24.735  0.00  0.00    -0.495 OA
ATOM     26  C   UNL     1      -1.569   4.364  25.407  0.00  0.00    +0.277 C 
ENDBRANCH  18   3
ENDBRANCH  11  13
ENDBRANCH   4  11
ENDBRANCH   7   4
BRANCH   7  10
ATOM     10  C   UNL     1      -2.060  -0.058  23.538  0.00  0.00    +0.085 C 
BRANCH  10  12
ATOM      2  O   UNL     1       1.192   1.483  23.862  0.00  0.00    -0.353 OA
ATOM      5  N   UNL     1      -0.197   1.519  23.907  0.00  0.00    -0.083 NA
ATOM     12  C   UNL     1      -0.585   0.281  23.590  0.00  0.00    +0.086 A 
ATOM     14  C   UNL     1       0.504  -0.571  23.335  0.00  0.00    +0.077 A 
ATOM     15  C   UNL     1       1.596   0.234  23.520  0.00  0.00    +0.186 A 
BRANCH  15  19
ATOM      6  N   UNL     1       3.709   1.132  23.041  0.00  0.00    -0.252 NA
ATOM     19  C   UNL     1       3.015   0.040  23.434  0.00  0.00    +0.109 A 
ATOM     22  C   UNL     1       3.596  -1.181  23.737  0.00  0.00    +0.031 A 
ATOM     23  C   UNL     1       4.978  -1.288  23.631  0.00  0.00    +0.004 A 
ATOM     24  C   UNL     1       5.051   0.989  22.948  0.00  0.00    +0.111 A 
ATOM     25  C   UNL     1       5.726  -0.188  23.229  0.00  0.00    +0.020 A 
ENDBRANCH  15  19
ENDBRANCH  10  12
ENDBRANCH   7  10
TORSDOF 7
ENDMDL
MODEL 3
REMARK VINA RESULT:      -4.2      1.750      2.493
REMARK  Name = 56775709
REMARK  8 active torsions:
REMARK  status: ('A' for Active; 'I' for Inactive)
REMARK    1  A    between atoms: O_3  and  C_18
REMARK    2  A    between atoms: O_3  and  C_26
REMARK    3  A    between atoms: N_4  and  C_7
REMARK    4  A    between atoms: N_4  and  C_11
REMARK    5  A    between atoms: C_7  and  C_10
REMARK    6  A    between atoms: C_10  and  C_12
REMARK    7  A    between atoms: C_11  and  C_13
REMARK    8  A    between atoms: C_15  and  C_19
REMARK                            x       y       z     vdW  Elec       q    Type
REMARK                         _______ _______ _______ _____ _____    ______ ____
ROOT
ATOM      1  O   UNL     1      -1.567   4.932  25.344  0.00  0.00    -0.376 OA
ATOM      7  C   UNL     1      -1.856   2.942  24.627  0.00  0.00    +0.072 C 
ATOM      8  C   UNL     1      -0.697   3.798  25.125  0.00  0.00    +0.184 C 
ATOM      9  C   UNL     1      -2.690   4.207  24.793  0.00  0.00    +0.184 C 
ENDROOT
BRANCH   7   4
ATOM      4  N   UNL     1      -2.226   1.991  25.678  0.00  0.00    -0.302 NA
ATOM     27  H   UNL     1      -2.221   2.370  26.625  0.00  0.00    +0.123 HD
BRANCH   4  11
ATOM     11  C   UNL     1      -3.544   1.431  25.377  0.00  0.00    +0.117 C 
BRANCH  11  13
ATOM     13  C   UNL     1      -3.472  -0.001  24.967  0.00  0.00    -0.030 A 
ATOM     16  C   UNL     1      -2.371  -0.776  25.331  0.00  0.00    +0.050 A 
ATOM     17  C   UNL     1      -4.505  -0.565  24.219  0.00  0.00    +0.005 A 
ATOM     18  C   UNL     1      -2.302  -2.115  24.947  0.00  0.00    +0.120 A 
ATOM     20  C   UNL     1      -4.437  -1.905  23.836  0.00  0.00    +0.004 A 
ATOM     21  C   UNL     1      -3.335  -2.680  24.200  0.00  0.00    +0.045 A 
BRANCH  18   3
ATOM      3  O   UNL     1      -1.227  -2.870  25.302  0.00  0.00    -0.495 OA
ATOM     26  C   UNL     1       0.034  -2.207  25.381  0.00  0.00    +0.277 C 
ENDBRANCH  18   3
ENDBRANCH  11  13
ENDBRANCH   4  11
ENDBRANCH   7   4
BRANCH   7  10
ATOM     10  C   UNL     1      -1.759   2.308  23.273  0.00  0.00    +0.085 C 
BRANCH  10  12
ATOM      2  O   UNL     1       0.641  -0.345  22.766  0.00  0.00    -0.353 OA
ATOM      5  N   UNL     1      -0.647   0.174  22.718  0.00  0.00    -0.083 NA
ATOM     12  C   UNL     1      -0.534   1.423  23.180  0.00  0.00    +0.086 A 
ATOM     14  C   UNL     1       0.789   1.743  23.533  0.00  0.00    +0.077 A 
ATOM     15  C   UNL     1       1.486   0.598  23.254  0.00  0.00    +0.186 A 
BRANCH  15  19
ATOM      6  N   UNL     1       3.750   1.197  23.116  0.00  0.00    -0.252 NA
ATOM     19  C   UNL     1       2.862   0.207  23.360  0.00  0.00    +0.109 A 
ATOM     22  C   UNL     1       3.219  -1.091  23.689  0.00  0.00    +0.031 A 
ATOM     23  C   UNL     1       4.573  -1.392  23.773  0.00  0.00    +0.004 A 
ATOM     24  C   UNL     1       5.058   0.866  23.208  0.00  0.00    +0.111 A 
ATOM     25  C   UNL     1       5.516  -0.401  23.530  0.00  0.00    +0.020 A 
ENDBRANCH  15  19
ENDBRANCH  10  12
ENDBRANCH   7  10
TORSDOF 7
ENDMDL
MODEL 4
REMARK VINA RESULT:      -4.2      2.010      4.777
REMARK  Name = 56775709
REMARK  8 active torsions:
REMARK  status: ('A' for Active; 'I' for Inactive)
REMARK    1  A    between atoms: O_3  and  C_18
REMARK    2  A    between atoms: O_3  and  C_26
REMARK    3  A    between atoms: N_4  and  C_7
REMARK    4  A    between atoms: N_4  and  C_11
REMARK    5  A    between atoms: C_7  and  C_10
REMARK    6  A    between atoms: C_10  and  C_12
REMARK    7  A    between atoms: C_11  and  C_13
REMARK    8  A    between atoms: C_15  and  C_19
REMARK                            x       y       z     vdW  Elec       q    Type
REMARK                         _______ _______ _______ _____ _____    ______ ____
ROOT
ATOM      1  O   UNL     1      -0.639   5.846  24.561  0.00  0.00    -0.376 OA
ATOM      7  C   UNL     1      -2.126   4.361  24.941  0.00  0.00    +0.072 C 
ATOM      8  C   UNL     1      -0.915   4.530  24.030  0.00  0.00    +0.184 C 
ATOM      9  C   UNL     1      -1.828   5.790  25.382  0.00  0.00    +0.184 C 
ENDROOT
BRANCH   7   4
ATOM      4  N   UNL     1      -1.772   3.448  26.029  0.00  0.00    -0.302 NA
ATOM     27  H   UNL     1      -2.368   2.625  26.115  0.00  0.00    +0.123 HD
BRANCH   4  11
ATOM     11  C   UNL     1      -0.377   3.033  25.873  0.00  0.00    +0.117 C 
BRANCH  11  13
ATOM     13  C   UNL     1      -0.254   1.650  25.327  0.00  0.00    -0.030 A 
ATOM     16  C   UNL     1       0.381   1.437  24.104  0.00  0.00    +0.050 A 
ATOM     17  C   UNL     1      -0.775   0.571  26.040  0.00  0.00    +0.005 A 
ATOM     18  C   UNL     1       0.495   0.144  23.593  0.00  0.00    +0.120 A 
ATOM     20  C   UNL     1      -0.661  -0.722  25.529  0.00  0.00    +0.004 A 
ATOM     21  C   UNL     1      -0.025  -0.936  24.306  0.00  0.00    +0.045 A 
BRANCH  18   3
ATOM      3  O   UNL     1       1.115  -0.063  22.399  0.00  0.00    -0.495 OA
ATOM     26  C   UNL     1       2.536   0.065  22.375  0.00  0.00    +0.277 C 
ENDBRANCH  18   3
ENDBRANCH  11  13
ENDBRANCH   4  11
ENDBRANCH   7   4
BRANCH   7  10
ATOM     10  C   UNL     1      -3.457   4.053  24.328  0.00  0.00    +0.085 C 
BRANCH  10  12
ATOM      2  O   UNL     1      -4.954   0.950  25.416  0.00  0.00    -0.353 OA
ATOM      5  N   UNL     1      -4.870   2.337  25.403  0.00  0.00    -0.083 NA
ATOM     12  C   UNL     1      -3.848   2.614  24.587  0.00  0.00    +0.086 A 
ATOM     14  C   UNL     1      -3.255   1.452  24.063  0.00  0.00    +0.077 A 
ATOM     15  C   UNL     1      -3.987   0.435  24.615  0.00  0.00    +0.186 A 
BRANCH  15  19
ATOM      6  N   UNL     1      -4.427  -1.500  23.365  0.00  0.00    -0.252 NA
ATOM     19  C   UNL     1      -3.950  -0.996  24.526  0.00  0.00    +0.109 A 
ATOM     22  C   UNL     1      -3.458  -1.771  25.564  0.00  0.00    +0.031 A 
ATOM     23  C   UNL     1      -3.454  -3.151  25.400  0.00  0.00    +0.004 A 
ATOM     24  C   UNL     1      -4.408  -2.847  23.243  0.00  0.00    +0.111 A 
ATOM     25  C   UNL     1      -3.937  -3.707  24.221  0.00  0.00    +0.020 A 
ENDBRANCH  15  19
ENDBRANCH  10  12
ENDBRANCH   7  10
TORSDOF 7
ENDMDL
MODEL 5
REMARK VINA RESULT:      -3.8      1.776      5.692
REMARK  Name = 56775709
REMARK  8 active torsions:
REMARK  status: ('A' for Active; 'I' for Inactive)
REMARK    1  A    between atoms: O_3  and  C_18
REMARK    2  A    between atoms: O_3  and  C_26
REMARK    3  A    between atoms: N_4  and  C_7
REMARK    4  A    between atoms: N_4  and  C_11
REMARK    5  A    between atoms: C_7  and  C_10
REMARK    6  A    between atoms: C_10  and  C_12
REMARK    7  A    between atoms: C_11  and  C_13
REMARK    8  A    between atoms: C_15  and  C_19
REMARK                            x       y       z     vdW  Elec       q    Type
REMARK                         _______ _______ _______ _____ _____    ______ ____
ROOT
ATOM      1  O   UNL     1       2.840  -0.274  21.892  0.00  0.00    -0.376 OA
ATOM      7  C   UNL     1       1.655   0.787  23.316  0.00  0.00    +0.072 C 
ATOM      8  C   UNL     1       1.441   0.082  21.982  0.00  0.00    +0.184 C 
ATOM      9  C   UNL     1       3.128   0.459  23.104  0.00  0.00    +0.184 C 
ENDROOT
BRANCH   7   4
ATOM      4  N   UNL     1       1.130  -0.063  24.387  0.00  0.00    -0.302 NA
ATOM     27  H   UNL     1       0.654   0.433  25.140  0.00  0.00    +0.123 HD
BRANCH   4  11
ATOM     11  C   UNL     1       0.231  -1.063  23.809  0.00  0.00    +0.117 C 
BRANCH  11  13
ATOM     13  C   UNL     1      -0.977  -1.295  24.652  0.00  0.00    -0.030 A 
ATOM     16  C   UNL     1      -2.031  -2.065  24.162  0.00  0.00    +0.050 A 
ATOM     17  C   UNL     1      -1.053  -0.740  25.929  0.00  0.00    +0.005 A 
ATOM     18  C   UNL     1      -3.162  -2.281  24.949  0.00  0.00    +0.120 A 
ATOM     20  C   UNL     1      -2.184  -0.957  26.717  0.00  0.00    +0.004 A 
ATOM     21  C   UNL     1      -3.239  -1.727  26.227  0.00  0.00    +0.045 A 
BRANCH  18   3
ATOM      3  O   UNL     1      -4.191  -3.032  24.470  0.00  0.00    -0.495 OA
ATOM     26  C   UNL     1      -4.692  -2.697  23.177  0.00  0.00    +0.277 C 
ENDBRANCH  18   3
ENDBRANCH  11  13
ENDBRANCH   4  11
ENDBRANCH   7   4
BRANCH   7  10
ATOM     10  C   UNL     1       1.242   2.221  23.452  0.00  0.00    +0.085 C 
BRANCH  10  12
ATOM      2  O   UNL     1      -1.408   2.626  25.875  0.00  0.00    -0.353 OA
ATOM      5  N   UNL     1      -0.066   2.589  25.514  0.00  0.00    -0.083 NA
ATOM     12  C   UNL     1      -0.069   2.335  24.202  0.00  0.00    +0.086 A 
ATOM     14  C   UNL     1      -1.370   2.202  23.687  0.00  0.00    +0.077 A 
ATOM     15  C   UNL     1      -2.173   2.394  24.779  0.00  0.00    +0.186 A 
BRANCH  15  19
ATOM      6  N   UNL     1      -4.073   3.557  25.513  0.00  0.00    -0.252 NA
ATOM     19  C   UNL     1      -3.591   2.404  24.996  0.00  0.00    +0.109 A 
ATOM     22  C   UNL     1      -4.375   1.303  24.691  0.00  0.00    +0.031 A 
ATOM     23  C   UNL     1      -5.742   1.392  24.929  0.00  0.00    +0.004 A 
ATOM     24  C   UNL     1      -5.407   3.605  25.732  0.00  0.00    +0.111 A 
ATOM     25  C   UNL     1      -6.275   2.560  25.460  0.00  0.00    +0.020 A 
ENDBRANCH  15  19
ENDBRANCH  10  12
ENDBRANCH   7  10
TORSDOF 7
ENDMDL
MODEL 6
REMARK VINA RESULT:      -3.1      2.341      5.150
REMARK  Name = 56775709
REMARK  8 active torsions:
REMARK  status: ('A' for Active; 'I' for Inactive)
REMARK    1  A    between atoms: O_3  and  C_18
REMARK    2  A    between atoms: O_3  and  C_26
REMARK    3  A    between atoms: N_4  and  C_7
REMARK    4  A    between atoms: N_4  and  C_11
REMARK    5  A    between atoms: C_7  and  C_10
REMARK    6  A    between atoms: C_10  and  C_12
REMARK    7  A    between atoms: C_11  and  C_13
REMARK    8  A    between atoms: C_15  and  C_19
REMARK                            x       y       z     vdW  Elec       q    Type
REMARK                         _______ _______ _______ _____ _____    ______ ____
ROOT
ATOM      1  O   UNL     1      -3.990  -3.580  24.059  0.00  0.00    -0.376 OA
ATOM      7  C   UNL     1      -2.740  -2.171  25.066  0.00  0.00    +0.072 C 
ATOM      8  C   UNL     1      -3.387  -2.317  23.693  0.00  0.00    +0.184 C 
ATOM      9  C   UNL     1      -3.329  -3.550  25.344  0.00  0.00    +0.184 C 
ENDROOT
BRANCH   7   4
ATOM      4  N   UNL     1      -3.488  -1.175  25.835  0.00  0.00    -0.302 NA
ATOM     27  H   UNL     1      -2.951  -0.357  26.123  0.00  0.00    +0.123 HD
BRANCH   4  11
ATOM     11  C   UNL     1      -4.657  -0.751  25.062  0.00  0.00    +0.117 C 
BRANCH  11  13
ATOM     13  C   UNL     1      -4.701   0.727  24.864  0.00  0.00    -0.030 A 
ATOM     16  C   UNL     1      -4.037   1.306  23.783  0.00  0.00    +0.050 A 
ATOM     17  C   UNL     1      -5.405   1.530  25.762  0.00  0.00    +0.005 A 
ATOM     18  C   UNL     1      -4.077   2.688  23.599  0.00  0.00    +0.120 A 
ATOM     20  C   UNL     1      -5.445   2.912  25.577  0.00  0.00    +0.004 A 
ATOM     21  C   UNL     1      -4.781   3.491  24.495  0.00  0.00    +0.045 A 
BRANCH  18   3
ATOM      3  O   UNL     1      -3.428   3.252  22.543  0.00  0.00    -0.495 OA
ATOM     26  C   UNL     1      -2.707   2.374  21.680  0.00  0.00    +0.277 C 
ENDBRANCH  18   3
ENDBRANCH  11  13
ENDBRANCH   4  11
ENDBRANCH   7   4
BRANCH   7  10
ATOM     10  C   UNL     1      -1.257  -1.984  25.152  0.00  0.00    +0.085 C 
BRANCH  10  12
ATOM      2  O   UNL     1       0.198   1.054  23.844  0.00  0.00    -0.353 OA
ATOM      5  N   UNL     1       0.109  -0.331  23.928  0.00  0.00    -0.083 NA
ATOM     12  C   UNL     1      -0.873  -0.561  24.805  0.00  0.00    +0.086 A 
ATOM     14  C   UNL     1      -1.434   0.628  25.302  0.00  0.00    +0.077 A 
ATOM     15  C   UNL     1      -0.725   1.613  24.667  0.00  0.00    +0.186 A 
BRANCH  15  19
ATOM      6  N   UNL     1       0.039   3.638  23.765  0.00  0.00    -0.252 NA
ATOM     19  C   UNL     1      -0.755   3.047  24.686  0.00  0.00    +0.109 A 
ATOM     22  C   UNL     1      -1.546   3.739  25.588  0.00  0.00    +0.031 A 
ATOM     23  C   UNL     1      -1.521   5.129  25.543  0.00  0.00    +0.004 A 
ATOM     24  C   UNL     1       0.038   4.991  23.752  0.00  0.00    +0.111 A 
ATOM     25  C   UNL     1      -0.717   5.774  24.610  0.00  0.00    +0.020 A 
ENDBRANCH  15  19
ENDBRANCH  10  12
ENDBRANCH   7  10
TORSDOF 7
ENDMDL
MODEL 7
REMARK VINA RESULT:      -3.0      2.118      5.499
REMARK  Name = 56775709
REMARK  8 active torsions:
REMARK  status: ('A' for Active; 'I' for Inactive)
REMARK    1  A    between atoms: O_3  and  C_18
REMARK    2  A    between atoms: O_3  and  C_26
REMARK    3  A    between atoms: N_4  and  C_7
REMARK    4  A    between atoms: N_4  and  C_11
REMARK    5  A    between atoms: C_7  and  C_10
REMARK    6  A    between atoms: C_10  and  C_12
REMARK    7  A    between atoms: C_11  and  C_13
REMARK    8  A    between atoms: C_15  and  C_19
REMARK                            x       y       z     vdW  Elec       q    Type
REMARK                         _______ _______ _______ _____ _____    ______ ____
ROOT
ATOM      1  O   UNL     1      -3.513  -4.010  24.801  0.00  0.00    -0.376 OA
ATOM      7  C   UNL     1      -2.290  -2.271  24.598  0.00  0.00    +0.072 C 
ATOM      8  C   UNL     1      -2.386  -3.656  23.967  0.00  0.00    +0.184 C 
ATOM      9  C   UNL     1      -3.417  -2.751  25.506  0.00  0.00    +0.184 C 
ENDROOT
BRANCH   7   4
ATOM      4  N   UNL     1      -2.829  -1.286  23.657  0.00  0.00    -0.302 NA
ATOM     27  H   UNL     1      -2.926  -1.614  22.697  0.00  0.00    +0.123 HD
BRANCH   4  11
ATOM     11  C   UNL     1      -4.122  -0.810  24.150  0.00  0.00    +0.117 C 
BRANCH  11  13
ATOM     13  C   UNL     1      -4.241   0.676  24.087  0.00  0.00    -0.030 A 
ATOM     16  C   UNL     1      -4.987   1.357  25.049  0.00  0.00    +0.050 A 
ATOM     17  C   UNL     1      -3.607   1.383  23.066  0.00  0.00    +0.005 A 
ATOM     18  C   UNL     1      -5.099   2.746  24.989  0.00  0.00    +0.120 A 
ATOM     20  C   UNL     1      -3.719   2.772  23.007  0.00  0.00    +0.004 A 
ATOM     21  C   UNL     1      -4.465   3.454  23.969  0.00  0.00    +0.045 A 
BRANCH  18   3
ATOM      3  O   UNL     1      -5.828   3.410  25.928  0.00  0.00    -0.495 OA
ATOM     26  C   UNL     1      -6.010   4.812  25.735  0.00  0.00    +0.277 C 
ENDBRANCH  18   3
ENDBRANCH  11  13
ENDBRANCH   4  11
ENDBRANCH   7   4
BRANCH   7  10
ATOM     10  C   UNL     1      -0.993  -1.844  25.213  0.00  0.00    +0.085 C 
BRANCH  10  12
ATOM      2  O   UNL     1       0.268   1.316  23.995  0.00  0.00    -0.353 OA
ATOM      5  N   UNL     1       0.274  -0.073  24.047  0.00  0.00    -0.083 NA
ATOM     12  C   UNL     1      -0.703  -0.391  24.903  0.00  0.00    +0.086 A 
ATOM     14  C   UNL     1      -1.351   0.746  25.417  0.00  0.00    +0.077 A 
ATOM     15  C   UNL     1      -0.703   1.791  24.814  0.00  0.00    +0.186 A 
BRANCH  15  19
ATOM      6  N   UNL     1      -1.806   3.667  25.687  0.00  0.00    -0.252 NA
ATOM     19  C   UNL     1      -0.832   3.219  24.864  0.00  0.00    +0.109 A 
ATOM     22  C   UNL     1      -0.008   4.043  24.116  0.00  0.00    +0.031 A 
ATOM     23  C   UNL     1      -0.195   5.417  24.219  0.00  0.00    +0.004 A 
ATOM     24  C   UNL     1      -1.959   5.009  25.761  0.00  0.00    +0.111 A 
ATOM     25  C   UNL     1      -1.187   5.917  25.055  0.00  0.00    +0.020 A 
ENDBRANCH  15  19
ENDBRANCH  10  12
ENDBRANCH   7  10
TORSDOF 7
ENDMDL
MODEL 8
REMARK VINA RESULT:      -2.0      1.981      6.648
REMARK  Name = 56775709
REMARK  8 active torsions:
REMARK  status: ('A' for Active; 'I' for Inactive)
REMARK    1  A    between atoms: O_3  and  C_18
REMARK    2  A    between atoms: O_3  and  C_26
REMARK    3  A    between atoms: N_4  and  C_7
REMARK    4  A    between atoms: N_4  and  C_11
REMARK    5  A    between atoms: C_7  and  C_10
REMARK    6  A    between atoms: C_10  and  C_12
REMARK    7  A    between atoms: C_11  and  C_13
REMARK    8  A    between atoms: C_15  and  C_19
REMARK                            x       y       z     vdW  Elec       q    Type
REMARK                         _______ _______ _______ _____ _____    ______ ____
ROOT
ATOM      1  O   UNL     1       2.781  -0.105  21.569  0.00  0.00    -0.376 OA
ATOM      7  C   UNL     1       1.153  -0.127  22.950  0.00  0.00    +0.072 C 
ATOM      8  C   UNL     1       2.658   0.110  22.994  0.00  0.00    +0.184 C 
ATOM      9  C   UNL     1       1.377  -0.433  21.474  0.00  0.00    +0.184 C 
ENDROOT
BRANCH   7   4
ATOM      4  N   UNL     1       0.470   1.163  23.067  0.00  0.00    -0.302 NA
ATOM     27  H   UNL     1      -0.544   1.127  22.965  0.00  0.00    +0.123 HD
BRANCH   4  11
ATOM     11  C   UNL     1       0.815   1.774  24.351  0.00  0.00    +0.117 C 
BRANCH  11  13
ATOM     13  C   UNL     1      -0.057   2.939  24.679  0.00  0.00    -0.030 A 
ATOM     16  C   UNL     1      -1.032   2.824  25.669  0.00  0.00    +0.050 A 
ATOM     17  C   UNL     1       0.103   4.143  23.993  0.00  0.00    +0.005 A 
ATOM     18  C   UNL     1      -1.848   3.913  25.974  0.00  0.00    +0.120 A 
ATOM     20  C   UNL     1      -0.713   5.232  24.299  0.00  0.00    +0.004 A 
ATOM     21  C   UNL     1      -1.689   5.117  25.290  0.00  0.00    +0.045 A 
BRANCH  18   3
ATOM      3  O   UNL     1      -2.800   3.799  26.941  0.00  0.00    -0.495 OA
ATOM     26  C   UNL     1      -4.055   4.430  26.692  0.00  0.00    +0.277 C 
ENDBRANCH  18   3
ENDBRANCH  11  13
ENDBRANCH   4  11
ENDBRANCH   7   4
BRANCH   7  10
ATOM     10  C   UNL     1       0.560  -1.185  23.830  0.00  0.00    +0.085 C 
BRANCH  10  12
ATOM      2  O   UNL     1      -2.311  -0.468  25.904  0.00  0.00    -0.353 OA
ATOM      5  N   UNL     1      -1.070  -1.052  25.680  0.00  0.00    -0.083 NA
ATOM     12  C   UNL     1      -0.750  -0.716  24.427  0.00  0.00    +0.086 A 
ATOM     14  C   UNL     1      -1.743   0.070  23.816  0.00  0.00    +0.077 A 
ATOM     15  C   UNL     1      -2.701   0.196  24.786  0.00  0.00    +0.186 A 
BRANCH  15  19
ATOM      6  N   UNL     1      -4.095   1.939  24.066  0.00  0.00    -0.252 NA
ATOM     19  C   UNL     1      -3.972   0.856  24.866  0.00  0.00    +0.109 A 
ATOM     22  C   UNL     1      -4.972   0.395  25.707  0.00  0.00    +0.031 A 
ATOM     23  C   UNL     1      -6.177   1.089  25.727  0.00  0.00    +0.004 A 
ATOM     24  C   UNL     1      -5.280   2.589  24.113  0.00  0.00    +0.111 A 
ATOM     25  C   UNL     1      -6.341   2.208  24.918  0.00  0.00    +0.020 A 
ENDBRANCH  15  19
ENDBRANCH  10  12
ENDBRANCH   7  10
TORSDOF 7
ENDMDL
MODEL 9
REMARK VINA RESULT:      -1.8      2.009      5.519
REMARK  Name = 56775709
REMARK  8 active torsions:
REMARK  status: ('A' for Active; 'I' for Inactive)
REMARK    1  A    between atoms: O_3  and  C_18
REMARK    2  A    between atoms: O_3  and  C_26
REMARK    3  A    between atoms: N_4  and  C_7
REMARK    4  A    between atoms: N_4  and  C_11
REMARK    5  A    between atoms: C_7  and  C_10
REMARK    6  A    between atoms: C_10  and  C_12
REMARK    7  A    between atoms: C_11  and  C_13
REMARK    8  A    between atoms: C_15  and  C_19
REMARK                            x       y       z     vdW  Elec       q    Type
REMARK                         _______ _______ _______ _____ _____    ______ ____
ROOT
ATOM      1  O   UNL     1      -3.471  -3.666  25.780  0.00  0.00    -0.376 OA
ATOM      7  C   UNL     1      -3.494  -2.098  24.331  0.00  0.00    +0.072 C 
ATOM      8  C   UNL     1      -3.263  -2.235  25.831  0.00  0.00    +0.184 C 
ATOM      9  C   UNL     1      -3.794  -3.592  24.373  0.00  0.00    +0.184 C 
ENDROOT
BRANCH   7   4
ATOM      4  N   UNL     1      -2.202  -1.894  23.672  0.00  0.00    -0.302 NA
ATOM     27  H   UNL     1      -2.168  -1.111  23.020  0.00  0.00    +0.123 HD
BRANCH   4  11
ATOM     11  C   UNL     1      -1.165  -1.734  24.692  0.00  0.00    +0.117 C 
BRANCH  11  13
ATOM     13  C   UNL     1      -0.251  -0.591  24.398  0.00  0.00    -0.030 A 
ATOM     16  C   UNL     1       0.705  -0.705  23.390  0.00  0.00    +0.050 A 
ATOM     17  C   UNL     1      -0.354   0.590  25.133  0.00  0.00    +0.005 A 
ATOM     18  C   UNL     1       1.560   0.363  23.116  0.00  0.00    +0.120 A 
ATOM     20  C   UNL     1       0.500   1.658  24.858  0.00  0.00    +0.004 A 
ATOM     21  C   UNL     1       1.458   1.544  23.850  0.00  0.00    +0.045 A 
BRANCH  18   3
ATOM      3  O   UNL     1       2.494   0.251  22.132  0.00  0.00    -0.495 OA
ATOM     26  C   UNL     1       3.841   0.572  22.476  0.00  0.00    +0.277 C 
ENDBRANCH  18   3
ENDBRANCH  11  13
ENDBRANCH   4  11
ENDBRANCH   7   4
BRANCH   7  10
ATOM     10  C   UNL     1      -4.554  -1.158  23.844  0.00  0.00    +0.085 C 
BRANCH  10  12
ATOM      2  O   UNL     1      -4.569   2.159  25.279  0.00  0.00    -0.353 OA
ATOM      5  N   UNL     1      -5.139   0.910  25.061  0.00  0.00    -0.083 NA
ATOM     12  C   UNL     1      -4.262   0.260  24.290  0.00  0.00    +0.086 A 
ATOM     14  C   UNL     1      -3.132   1.041  23.992  0.00  0.00    +0.077 A 
ATOM     15  C   UNL     1      -3.375   2.224  24.637  0.00  0.00    +0.186 A 
BRANCH  15  19
ATOM      6  N   UNL     1      -1.571   3.572  23.983  0.00  0.00    -0.252 NA
ATOM     19  C   UNL     1      -2.662   3.462  24.773  0.00  0.00    +0.109 A 
ATOM     22  C   UNL     1      -3.086   4.444  25.653  0.00  0.00    +0.031 A 
ATOM     23  C   UNL     1      -2.341   5.616  25.726  0.00  0.00    +0.004 A 
ATOM     24  C   UNL     1      -0.872   4.726  24.082  0.00  0.00    +0.111 A 
ATOM     25  C   UNL     1      -1.212   5.767  24.930  0.00  0.00    +0.020 A 
ENDBRANCH  15  19
ENDBRANCH  10  12
ENDBRANCH   7  10
TORSDOF 7
ENDMDL
