MODEL 1
REMARK VINA RESULT:      -3.0      0.000      0.000
REMARK  Name = 56775614
REMARK  10 active torsions:
REMARK  status: ('A' for Active; 'I' for Inactive)
REMARK    1  A    between atoms: N_4  and  C_8
REMARK    2  A    between atoms: N_4  and  C_9
REMARK    3  A    between atoms: N_7  and  C_22
REMARK    4  A    between atoms: N_7  and  C_23
REMARK    5  A    between atoms: N_7  and  C_24
REMARK    6  A    between atoms: C_8  and  C_12
REMARK    7  A    between atoms: C_12  and  C_17
REMARK    8  A    between atoms: C_18  and  C_21
REMARK    9  A    between atoms: C_20  and  C_22
REMARK   10  A    between atoms: C_23  and  C_25
REMARK                            x       y       z     vdW  Elec       q    Type
REMARK                         _______ _______ _______ _____ _____    ______ ____
ROOT
ATOM     12  C   UNL     1      -2.502   4.423  25.767  0.00  0.00    +0.085 C 
ENDROOT
BRANCH  12  17
ATOM      2  O   UNL     1       0.401   2.275  25.865  0.00  0.00    -0.358 OA
ATOM      6  N   UNL     1      -0.629   2.980  26.476  0.00  0.00    -0.083 NA
ATOM     17  C   UNL     1      -1.293   3.560  25.472  0.00  0.00    +0.086 A 
ATOM     19  C   UNL     1      -0.735   3.260  24.218  0.00  0.00    +0.072 A 
ATOM     20  C   UNL     1       0.328   2.450  24.520  0.00  0.00    +0.151 A 
BRANCH  20  22
ATOM     22  C   UNL     1       1.348   1.768  23.714  0.00  0.00    +0.161 C 
BRANCH  22   7
ATOM      7  N   UNL     1       0.999   0.372  23.396  0.00  0.00    -0.294 NA
ATOM     24  C   UNL     1      -0.369   0.299  22.895  0.00  0.00    +0.105 C 
BRANCH   7  23
ATOM     23  C   UNL     1       1.940  -0.169  22.422  0.00  0.00    +0.119 C 
BRANCH  23  25
ATOM     25  C   UNL     1       3.339  -0.243  22.975  0.00  0.00    -0.033 A 
ATOM     26  C   UNL     1       3.781  -1.408  23.601  0.00  0.00    +0.005 A 
ATOM     27  C   UNL     1       4.192   0.854  22.862  0.00  0.00    +0.005 A 
ATOM     28  C   UNL     1       5.077  -1.476  24.114  0.00  0.00    +0.000 A 
ATOM     29  C   UNL     1       5.488   0.787  23.374  0.00  0.00    +0.000 A 
ATOM     30  C   UNL     1       5.930  -0.379  24.000  0.00  0.00    +0.000 A 
ENDBRANCH  23  25
ENDBRANCH   7  23
ENDBRANCH  22   7
ENDBRANCH  20  22
ENDBRANCH  12  17
BRANCH  12   8
ATOM      1  O   UNL     1      -5.825   4.012  25.784  0.00  0.00    -0.376 OA
ATOM      8  C   UNL     1      -3.760   3.753  25.307  0.00  0.00    +0.072 C 
ATOM     10  C   UNL     1      -4.744   3.236  26.351  0.00  0.00    +0.184 C 
ATOM     11  C   UNL     1      -4.924   4.612  24.826  0.00  0.00    +0.184 C 
BRANCH   8   4
ATOM      4  N   UNL     1      -3.517   2.694  24.323  0.00  0.00    -0.304 NA
ATOM     31  H   UNL     1      -2.579   2.681  23.923  0.00  0.00    +0.123 HD
BRANCH   4   9
ATOM      3  O   UNL     1      -2.191  -3.288  24.831  0.00  0.00    -0.276 OA
ATOM      5  N   UNL     1      -3.662  -1.491  24.892  0.00  0.00    -0.302 N 
ATOM      9  C   UNL     1      -3.833   1.399  24.920  0.00  0.00    +0.057 C 
ATOM     13  C   UNL     1      -2.541   0.666  25.302  0.00  0.00    +0.037 C 
ATOM     14  C   UNL     1      -4.658   0.555  23.940  0.00  0.00    +0.037 C 
ATOM     15  C   UNL     1      -2.845  -0.730  25.840  0.00  0.00    +0.109 C 
ATOM     16  C   UNL     1      -4.920  -0.841  24.505  0.00  0.00    +0.109 C 
ATOM     18  C   UNL     1      -3.236  -2.747  24.462  0.00  0.00    +0.212 C 
ATOM     21  C   UNL     1      -4.132  -3.465  23.484  0.00  0.00    +0.109 C 
ENDBRANCH   4   9
ENDBRANCH   8   4
ENDBRANCH  12   8
TORSDOF 8
ENDMDL
MODEL 2
REMARK VINA RESULT:      -1.5      1.937      6.410
REMARK  Name = 56775614
REMARK  10 active torsions:
REMARK  status: ('A' for Active; 'I' for Inactive)
REMARK    1  A    between atoms: N_4  and  C_8
REMARK    2  A    between atoms: N_4  and  C_9
REMARK    3  A    between atoms: N_7  and  C_22
REMARK    4  A    between atoms: N_7  and  C_23
REMARK    5  A    between atoms: N_7  and  C_24
REMARK    6  A    between atoms: C_8  and  C_12
REMARK    7  A    between atoms: C_12  and  C_17
REMARK    8  A    between atoms: C_18  and  C_21
REMARK    9  A    between atoms: C_20  and  C_22
REMARK   10  A    between atoms: C_23  and  C_25
REMARK                            x       y       z     vdW  Elec       q    Type
REMARK                         _______ _______ _______ _____ _____    ______ ____
ROOT
ATOM     12  C   UNL     1      -3.414  -0.725  23.281  0.00  0.00    +0.085 C 
ENDROOT
BRANCH  12  17
ATOM      2  O   UNL     1      -3.087   2.850  22.874  0.00  0.00    -0.358 OA
ATOM      6  N   UNL     1      -2.772   1.539  22.536  0.00  0.00    -0.083 NA
ATOM     17  C   UNL     1      -3.500   0.785  23.364  0.00  0.00    +0.086 A 
ATOM     19  C   UNL     1      -4.286   1.555  24.237  0.00  0.00    +0.072 A 
ATOM     20  C   UNL     1      -3.989   2.846  23.888  0.00  0.00    +0.151 A 
BRANCH  20  22
ATOM     22  C   UNL     1      -4.435   4.158  24.373  0.00  0.00    +0.161 C 
BRANCH  22   7
ATOM      7  N   UNL     1      -4.918   4.130  25.765  0.00  0.00    -0.294 NA
ATOM     24  C   UNL     1      -5.522   2.835  26.058  0.00  0.00    +0.105 C 
BRANCH   7  23
ATOM     23  C   UNL     1      -3.819   4.412  26.682  0.00  0.00    +0.119 C 
BRANCH  23  25
ATOM     25  C   UNL     1      -2.478   4.210  26.028  0.00  0.00    -0.033 A 
ATOM     26  C   UNL     1      -1.796   3.004  26.194  0.00  0.00    +0.005 A 
ATOM     27  C   UNL     1      -1.917   5.228  25.257  0.00  0.00    +0.005 A 
ATOM     28  C   UNL     1      -0.553   2.817  25.589  0.00  0.00    +0.000 A 
ATOM     29  C   UNL     1      -0.675   5.041  24.652  0.00  0.00    +0.000 A 
ATOM     30  C   UNL     1       0.007   3.835  24.818  0.00  0.00    +0.000 A 
ENDBRANCH  23  25
ENDBRANCH   7  23
ENDBRANCH  22   7
ENDBRANCH  20  22
ENDBRANCH  12  17
BRANCH  12   8
ATOM      1  O   UNL     1      -3.097  -2.958  25.755  0.00  0.00    -0.376 OA
ATOM      8  C   UNL     1      -2.719  -1.285  24.484  0.00  0.00    +0.072 C 
ATOM     10  C   UNL     1      -3.537  -1.581  25.736  0.00  0.00    +0.184 C 
ATOM     11  C   UNL     1      -2.376  -2.771  24.516  0.00  0.00    +0.184 C 
BRANCH   8   4
ATOM      4  N   UNL     1      -1.530  -0.518  24.867  0.00  0.00    -0.304 NA
ATOM     31  H   UNL     1      -1.248  -0.614  25.842  0.00  0.00    +0.123 HD
BRANCH   4   9
ATOM      3  O   UNL     1       4.543  -0.835  23.964  0.00  0.00    -0.276 OA
ATOM      5  N   UNL     1       2.356  -0.625  23.210  0.00  0.00    -0.302 N 
ATOM      9  C   UNL     1      -0.424  -0.871  23.981  0.00  0.00    +0.057 C 
ATOM     13  C   UNL     1       0.696  -1.549  24.780  0.00  0.00    +0.037 C 
ATOM     14  C   UNL     1       0.106   0.384  23.275  0.00  0.00    +0.037 C 
ATOM     15  C   UNL     1       1.902  -1.839  23.891  0.00  0.00    +0.109 C 
ATOM     16  C   UNL     1       1.326   0.055  22.415  0.00  0.00    +0.109 C 
ATOM     18  C   UNL     1       3.687  -0.224  23.319  0.00  0.00    +0.212 C 
ATOM     21  C   UNL     1       4.074   1.038  22.591  0.00  0.00    +0.109 C 
ENDBRANCH   4   9
ENDBRANCH   8   4
ENDBRANCH  12   8
TORSDOF 8
ENDMDL
MODEL 3
REMARK VINA RESULT:      -1.3      1.946      7.183
REMARK  Name = 56775614
REMARK  10 active torsions:
REMARK  status: ('A' for Active; 'I' for Inactive)
REMARK    1  A    between atoms: N_4  and  C_8
REMARK    2  A    between atoms: N_4  and  C_9
REMARK    3  A    between atoms: N_7  and  C_22
REMARK    4  A    between atoms: N_7  and  C_23
REMARK    5  A    between atoms: N_7  and  C_24
REMARK    6  A    between atoms: C_8  and  C_12
REMARK    7  A    between atoms: C_12  and  C_17
REMARK    8  A    between atoms: C_18  and  C_21
REMARK    9  A    between atoms: C_20  and  C_22
REMARK   10  A    between atoms: C_23  and  C_25
REMARK                            x       y       z     vdW  Elec       q    Type
REMARK                         _______ _______ _______ _____ _____    ______ ____
ROOT
ATOM     12  C   UNL     1       1.598  -1.349  24.111  0.00  0.00    +0.085 C 
ENDROOT
BRANCH  12  17
ATOM      2  O   UNL     1      -1.528  -1.921  25.830  0.00  0.00    -0.358 OA
ATOM      6  N   UNL     1      -0.210  -1.483  25.787  0.00  0.00    -0.083 NA
ATOM     17  C   UNL     1       0.189  -1.711  24.532  0.00  0.00    +0.086 A 
ATOM     19  C   UNL     1      -0.824  -2.285  23.746  0.00  0.00    +0.072 A 
ATOM     20  C   UNL     1      -1.882  -2.397  24.609  0.00  0.00    +0.151 A 
BRANCH  20  22
ATOM     22  C   UNL     1      -3.253  -2.904  24.475  0.00  0.00    +0.161 C 
BRANCH  22   7
ATOM      7  N   UNL     1      -4.188  -1.911  23.918  0.00  0.00    -0.294 NA
ATOM     24  C   UNL     1      -5.380  -2.577  23.406  0.00  0.00    +0.105 C 
BRANCH   7  23
ATOM     23  C   UNL     1      -4.539  -0.927  24.937  0.00  0.00    +0.119 C 
BRANCH  23  25
ATOM     25  C   UNL     1      -4.345   0.482  24.445  0.00  0.00    -0.033 A 
ATOM     26  C   UNL     1      -3.420   0.747  23.435  0.00  0.00    +0.005 A 
ATOM     27  C   UNL     1      -5.089   1.524  25.000  0.00  0.00    +0.005 A 
ATOM     28  C   UNL     1      -3.239   2.054  22.980  0.00  0.00    +0.000 A 
ATOM     29  C   UNL     1      -4.909   2.830  24.545  0.00  0.00    +0.000 A 
ATOM     30  C   UNL     1      -3.984   3.094  23.535  0.00  0.00    +0.000 A 
ENDBRANCH  23  25
ENDBRANCH   7  23
ENDBRANCH  22   7
ENDBRANCH  20  22
ENDBRANCH  12  17
BRANCH  12   8
ATOM      1  O   UNL     1       3.065   0.729  21.934  0.00  0.00    -0.376 OA
ATOM      8  C   UNL     1       1.592  -0.162  23.197  0.00  0.00    +0.072 C 
ATOM     10  C   UNL     1       2.703   0.874  23.327  0.00  0.00    +0.184 C 
ATOM     11  C   UNL     1       2.093  -0.328  21.766  0.00  0.00    +0.184 C 
BRANCH   8   4
ATOM      4  N   UNL     1       0.301   0.531  23.167  0.00  0.00    -0.304 NA
ATOM     31  H   UNL     1      -0.513  -0.062  23.324  0.00  0.00    +0.123 HD
BRANCH   4   9
ATOM      3  O   UNL     1      -2.856   4.333  26.824  0.00  0.00    -0.276 OA
ATOM      5  N   UNL     1      -1.023   3.795  25.502  0.00  0.00    -0.302 N 
ATOM      9  C   UNL     1       0.322   1.629  24.129  0.00  0.00    +0.057 C 
ATOM     13  C   UNL     1      -0.688   1.365  25.253  0.00  0.00    +0.037 C 
ATOM     14  C   UNL     1       0.004   2.954  23.423  0.00  0.00    +0.037 C 
ATOM     15  C   UNL     1      -0.752   2.546  26.218  0.00  0.00    +0.109 C 
ATOM     16  C   UNL     1      -0.074   4.104  24.426  0.00  0.00    +0.109 C 
ATOM     18  C   UNL     1      -2.094   4.598  25.891  0.00  0.00    +0.212 C 
ATOM     21  C   UNL     1      -2.308   5.866  25.102  0.00  0.00    +0.109 C 
ENDBRANCH   4   9
ENDBRANCH   8   4
ENDBRANCH  12   8
TORSDOF 8
ENDMDL
MODEL 4
REMARK VINA RESULT:      -0.5      2.120      6.485
REMARK  Name = 56775614
REMARK  10 active torsions:
REMARK  status: ('A' for Active; 'I' for Inactive)
REMARK    1  A    between atoms: N_4  and  C_8
REMARK    2  A    between atoms: N_4  and  C_9
REMARK    3  A    between atoms: N_7  and  C_22
REMARK    4  A    between atoms: N_7  and  C_23
REMARK    5  A    between atoms: N_7  and  C_24
REMARK    6  A    between atoms: C_8  and  C_12
REMARK    7  A    between atoms: C_12  and  C_17
REMARK    8  A    between atoms: C_18  and  C_21
REMARK    9  A    between atoms: C_20  and  C_22
REMARK   10  A    between atoms: C_23  and  C_25
REMARK                            x       y       z     vdW  Elec       q    Type
REMARK                         _______ _______ _______ _____ _____    ______ ____
ROOT
ATOM     12  C   UNL     1      -3.341  -1.151  26.052  0.00  0.00    +0.085 C 
ENDROOT
BRANCH  12  17
ATOM      2  O   UNL     1      -5.607   1.541  25.232  0.00  0.00    -0.358 OA
ATOM      6  N   UNL     1      -5.324   0.293  25.775  0.00  0.00    -0.083 NA
ATOM     17  C   UNL     1      -4.014   0.121  25.578  0.00  0.00    +0.086 A 
ATOM     19  C   UNL     1      -3.424   1.215  24.924  0.00  0.00    +0.072 A 
ATOM     20  C   UNL     1      -4.468   2.079  24.728  0.00  0.00    +0.151 A 
BRANCH  20  22
ATOM     22  C   UNL     1      -4.587   3.407  24.113  0.00  0.00    +0.161 C 
BRANCH  22   7
ATOM      7  N   UNL     1      -4.696   4.496  25.099  0.00  0.00    -0.294 NA
ATOM     24  C   UNL     1      -6.081   4.640  25.534  0.00  0.00    +0.105 C 
BRANCH   7  23
ATOM     23  C   UNL     1      -3.818   4.234  26.234  0.00  0.00    +0.119 C 
BRANCH  23  25
ATOM     25  C   UNL     1      -2.372   4.173  25.822  0.00  0.00    -0.033 A 
ATOM     26  C   UNL     1      -1.846   5.151  24.978  0.00  0.00    +0.005 A 
ATOM     27  C   UNL     1      -1.558   3.138  26.282  0.00  0.00    +0.005 A 
ATOM     28  C   UNL     1      -0.505   5.094  24.594  0.00  0.00    +0.000 A 
ATOM     29  C   UNL     1      -0.218   3.081  25.900  0.00  0.00    +0.000 A 
ATOM     30  C   UNL     1       0.308   4.059  25.056  0.00  0.00    +0.000 A 
ENDBRANCH  23  25
ENDBRANCH   7  23
ENDBRANCH  22   7
ENDBRANCH  20  22
ENDBRANCH  12  17
BRANCH  12   8
ATOM      1  O   UNL     1      -4.241  -3.082  23.469  0.00  0.00    -0.376 OA
ATOM      8  C   UNL     1      -3.032  -2.052  24.896  0.00  0.00    +0.072 C 
ATOM     10  C   UNL     1      -3.752  -3.393  24.794  0.00  0.00    +0.184 C 
ATOM     11  C   UNL     1      -3.663  -1.759  23.539  0.00  0.00    +0.184 C 
BRANCH   8   4
ATOM      4  N   UNL     1      -1.595  -2.273  24.710  0.00  0.00    -0.304 NA
ATOM     31  H   UNL     1      -1.344  -3.170  24.296  0.00  0.00    +0.123 HD
BRANCH   4   9
ATOM      3  O   UNL     1       3.048  -0.124  21.301  0.00  0.00    -0.276 OA
ATOM      5  N   UNL     1       1.239   0.158  22.731  0.00  0.00    -0.302 N 
ATOM      9  C   UNL     1      -1.037  -1.177  23.924  0.00  0.00    +0.057 C 
ATOM     13  C   UNL     1      -0.351  -1.726  22.667  0.00  0.00    +0.037 C 
ATOM     14  C   UNL     1      -0.042  -0.374  24.771  0.00  0.00    +0.037 C 
ATOM     15  C   UNL     1       0.323  -0.604  21.879  0.00  0.00    +0.109 C 
ATOM     16  C   UNL     1       0.627   0.721  23.941  0.00  0.00    +0.109 C 
ATOM     18  C   UNL     1       2.567   0.330  22.342  0.00  0.00    +0.212 C 
ATOM     21  C   UNL     1       3.446   1.124  23.275  0.00  0.00    +0.109 C 
ENDBRANCH   4   9
ENDBRANCH   8   4
ENDBRANCH  12   8
TORSDOF 8
ENDMDL
MODEL 5
REMARK VINA RESULT:       0.0      1.727      4.565
REMARK  Name = 56775614
REMARK  10 active torsions:
REMARK  status: ('A' for Active; 'I' for Inactive)
REMARK    1  A    between atoms: N_4  and  C_8
REMARK    2  A    between atoms: N_4  and  C_9
REMARK    3  A    between atoms: N_7  and  C_22
REMARK    4  A    between atoms: N_7  and  C_23
REMARK    5  A    between atoms: N_7  and  C_24
REMARK    6  A    between atoms: C_8  and  C_12
REMARK    7  A    between atoms: C_12  and  C_17
REMARK    8  A    between atoms: C_18  and  C_21
REMARK    9  A    between atoms: C_20  and  C_22
REMARK   10  A    between atoms: C_23  and  C_25
REMARK                            x       y       z     vdW  Elec       q    Type
REMARK                         _______ _______ _______ _____ _____    ______ ____
ROOT
ATOM     12  C   UNL     1      -4.725  -0.811  24.650  0.00  0.00    +0.085 C 
ENDROOT
BRANCH  12  17
ATOM      2  O   UNL     1      -1.309  -1.280  25.730  0.00  0.00    -0.358 OA
ATOM      6  N   UNL     1      -2.679  -1.246  25.962  0.00  0.00    -0.083 NA
ATOM     17  C   UNL     1      -3.221  -0.936  24.781  0.00  0.00    +0.086 A 
ATOM     19  C   UNL     1      -2.253  -0.764  23.777  0.00  0.00    +0.072 A 
ATOM     20  C   UNL     1      -1.068  -0.991  24.426  0.00  0.00    +0.151 A 
BRANCH  20  22
ATOM     22  C   UNL     1       0.338  -0.984  24.005  0.00  0.00    +0.161 C 
BRANCH  22   7
ATOM      7  N   UNL     1       0.675   0.146  23.121  0.00  0.00    -0.294 NA
ATOM     24  C   UNL     1       1.104   1.291  23.915  0.00  0.00    +0.105 C 
BRANCH   7  23
ATOM     23  C   UNL     1       1.712  -0.251  22.175  0.00  0.00    +0.119 C 
BRANCH  23  25
ATOM     25  C   UNL     1       3.079  -0.240  22.805  0.00  0.00    -0.033 A 
ATOM     26  C   UNL     1       3.874   0.903  22.724  0.00  0.00    +0.005 A 
ATOM     27  C   UNL     1       3.551  -1.373  23.467  0.00  0.00    +0.005 A 
ATOM     28  C   UNL     1       5.142   0.912  23.307  0.00  0.00    +0.000 A 
ATOM     29  C   UNL     1       4.817  -1.364  24.051  0.00  0.00    +0.000 A 
ATOM     30  C   UNL     1       5.613  -0.220  23.971  0.00  0.00    +0.000 A 
ENDBRANCH  23  25
ENDBRANCH   7  23
ENDBRANCH  22   7
ENDBRANCH  20  22
ENDBRANCH  12  17
BRANCH  12   8
ATOM      1  O   UNL     1      -6.684   1.584  25.931  0.00  0.00    -0.376 OA
ATOM      8  C   UNL     1      -5.156   0.616  24.797  0.00  0.00    +0.072 C 
ATOM     10  C   UNL     1      -6.631   0.962  24.626  0.00  0.00    +0.184 C 
ATOM     11  C   UNL     1      -5.314   1.202  26.195  0.00  0.00    +0.184 C 
BRANCH   8   4
ATOM      4  N   UNL     1      -4.357   1.540  23.986  0.00  0.00    -0.304 NA
ATOM     31  H   UNL     1      -4.890   2.119  23.337  0.00  0.00    +0.123 HD
BRANCH   4   9
ATOM      3  O   UNL     1      -1.608   6.950  24.974  0.00  0.00    -0.276 OA
ATOM      5  N   UNL     1      -1.803   4.654  25.267  0.00  0.00    -0.302 N 
ATOM      9  C   UNL     1      -3.549   2.379  24.866  0.00  0.00    +0.057 C 
ATOM     13  C   UNL     1      -4.087   3.815  24.867  0.00  0.00    +0.037 C 
ATOM     14  C   UNL     1      -2.083   2.355  24.416  0.00  0.00    +0.037 C 
ATOM     15  C   UNL     1      -3.198   4.730  25.706  0.00  0.00    +0.109 C 
ATOM     16  C   UNL     1      -1.233   3.301  25.265  0.00  0.00    +0.109 C 
ATOM     18  C   UNL     1      -1.117   5.819  24.929  0.00  0.00    +0.212 C 
ATOM     21  C   UNL     1       0.314   5.656  24.484  0.00  0.00    +0.109 C 
ENDBRANCH   4   9
ENDBRANCH   8   4
ENDBRANCH  12   8
TORSDOF 8
ENDMDL
MODEL 6
REMARK VINA RESULT:       0.2      1.583      4.077
REMARK  Name = 56775614
REMARK  10 active torsions:
REMARK  status: ('A' for Active; 'I' for Inactive)
REMARK    1  A    between atoms: N_4  and  C_8
REMARK    2  A    between atoms: N_4  and  C_9
REMARK    3  A    between atoms: N_7  and  C_22
REMARK    4  A    between atoms: N_7  and  C_23
REMARK    5  A    between atoms: N_7  and  C_24
REMARK    6  A    between atoms: C_8  and  C_12
REMARK    7  A    between atoms: C_12  and  C_17
REMARK    8  A    between atoms: C_18  and  C_21
REMARK    9  A    between atoms: C_20  and  C_22
REMARK   10  A    between atoms: C_23  and  C_25
REMARK                            x       y       z     vdW  Elec       q    Type
REMARK                         _______ _______ _______ _____ _____    ______ ____
ROOT
ATOM     12  C   UNL     1      -2.879  -0.951  26.002  0.00  0.00    +0.085 C 
ENDROOT
BRANCH  12  17
ATOM      2  O   UNL     1      -0.180   1.368  25.372  0.00  0.00    -0.358 OA
ATOM      6  N   UNL     1      -1.288   0.936  26.091  0.00  0.00    -0.083 NA
ATOM     17  C   UNL     1      -1.679  -0.188  25.481  0.00  0.00    +0.086 A 
ATOM     19  C   UNL     1      -0.863  -0.510  24.383  0.00  0.00    +0.072 A 
ATOM     20  C   UNL     1       0.062   0.500  24.358  0.00  0.00    +0.151 A 
BRANCH  20  22
ATOM     22  C   UNL     1       1.207   0.807  23.492  0.00  0.00    +0.161 C 
BRANCH  22   7
ATOM      7  N   UNL     1       1.460  -0.228  22.474  0.00  0.00    -0.294 NA
ATOM     24  C   UNL     1       0.375  -0.247  21.500  0.00  0.00    +0.105 C 
BRANCH   7  23
ATOM     23  C   UNL     1       2.742   0.015  21.821  0.00  0.00    +0.119 C 
BRANCH  23  25
ATOM     25  C   UNL     1       3.896  -0.152  22.772  0.00  0.00    -0.033 A 
ATOM     26  C   UNL     1       4.118  -1.383  23.389  0.00  0.00    +0.005 A 
ATOM     27  C   UNL     1       4.744   0.923  23.038  0.00  0.00    +0.005 A 
ATOM     28  C   UNL     1       5.187  -1.538  24.272  0.00  0.00    +0.000 A 
ATOM     29  C   UNL     1       5.813   0.769  23.919  0.00  0.00    +0.000 A 
ATOM     30  C   UNL     1       6.035  -0.462  24.536  0.00  0.00    +0.000 A 
ENDBRANCH  23  25
ENDBRANCH   7  23
ENDBRANCH  22   7
ENDBRANCH  20  22
ENDBRANCH  12  17
BRANCH  12   8
ATOM      1  O   UNL     1      -4.051  -2.359  23.200  0.00  0.00    -0.376 OA
ATOM      8  C   UNL     1      -3.911  -1.115  24.929  0.00  0.00    +0.072 C 
ATOM     10  C   UNL     1      -3.473  -1.062  23.469  0.00  0.00    +0.184 C 
ATOM     11  C   UNL     1      -4.411  -2.516  24.591  0.00  0.00    +0.184 C 
BRANCH   8   4
ATOM      4  N   UNL     1      -5.067  -0.232  25.107  0.00  0.00    -0.304 NA
ATOM     31  H   UNL     1      -5.393  -0.132  26.068  0.00  0.00    +0.123 HD
BRANCH   4   9
ATOM      3  O   UNL     1      -0.834   3.976  23.633  0.00  0.00    -0.276 OA
ATOM      5  N   UNL     1      -2.985   3.342  24.237  0.00  0.00    -0.302 N 
ATOM      9  C   UNL     1      -4.766   1.078  24.535  0.00  0.00    +0.057 C 
ATOM     13  C   UNL     1      -3.500   0.997  23.673  0.00  0.00    +0.037 C 
ATOM     14  C   UNL     1      -4.588   2.112  25.654  0.00  0.00    +0.037 C 
ATOM     15  C   UNL     1      -3.112   2.376  23.144  0.00  0.00    +0.109 C 
ATOM     16  C   UNL     1      -4.177   3.470  25.085  0.00  0.00    +0.109 C 
ATOM     18  C   UNL     1      -1.809   4.076  24.381  0.00  0.00    +0.212 C 
ATOM     21  C   UNL     1      -1.756   5.047  25.534  0.00  0.00    +0.109 C 
ENDBRANCH   4   9
ENDBRANCH   8   4
ENDBRANCH  12   8
TORSDOF 8
ENDMDL
MODEL 7
REMARK VINA RESULT:       0.4      1.419      1.975
REMARK  Name = 56775614
REMARK  10 active torsions:
REMARK  status: ('A' for Active; 'I' for Inactive)
REMARK    1  A    between atoms: N_4  and  C_8
REMARK    2  A    between atoms: N_4  and  C_9
REMARK    3  A    between atoms: N_7  and  C_22
REMARK    4  A    between atoms: N_7  and  C_23
REMARK    5  A    between atoms: N_7  and  C_24
REMARK    6  A    between atoms: C_8  and  C_12
REMARK    7  A    between atoms: C_12  and  C_17
REMARK    8  A    between atoms: C_18  and  C_21
REMARK    9  A    between atoms: C_20  and  C_22
REMARK   10  A    between atoms: C_23  and  C_25
REMARK                            x       y       z     vdW  Elec       q    Type
REMARK                         _______ _______ _______ _____ _____    ______ ____
ROOT
ATOM     12  C   UNL     1      -1.024   4.004  24.724  0.00  0.00    +0.085 C 
ENDROOT
BRANCH  12  17
ATOM      2  O   UNL     1      -0.299   0.537  25.436  0.00  0.00    -0.358 OA
ATOM      6  N   UNL     1      -0.673   1.820  25.819  0.00  0.00    -0.083 NA
ATOM     17  C   UNL     1      -0.661   2.534  24.690  0.00  0.00    +0.086 A 
ATOM     19  C   UNL     1      -0.292   1.764  23.575  0.00  0.00    +0.072 A 
ATOM     20  C   UNL     1      -0.075   0.516  24.098  0.00  0.00    +0.151 A 
BRANCH  20  22
ATOM     22  C   UNL     1       0.330  -0.771  23.521  0.00  0.00    +0.161 C 
BRANCH  22   7
ATOM      7  N   UNL     1       1.342  -0.639  22.458  0.00  0.00    -0.294 NA
ATOM     24  C   UNL     1       0.691  -0.509  21.160  0.00  0.00    +0.105 C 
BRANCH   7  23
ATOM     23  C   UNL     1       2.203   0.509  22.727  0.00  0.00    +0.119 C 
BRANCH  23  25
ATOM     25  C   UNL     1       3.569   0.087  23.195  0.00  0.00    -0.033 A 
ATOM     26  C   UNL     1       4.618   1.006  23.202  0.00  0.00    +0.005 A 
ATOM     27  C   UNL     1       3.788  -1.223  23.622  0.00  0.00    +0.005 A 
ATOM     28  C   UNL     1       5.886   0.615  23.636  0.00  0.00    +0.000 A 
ATOM     29  C   UNL     1       5.054  -1.614  24.056  0.00  0.00    +0.000 A 
ATOM     30  C   UNL     1       6.103  -0.694  24.063  0.00  0.00    +0.000 A 
ENDBRANCH  23  25
ENDBRANCH   7  23
ENDBRANCH  22   7
ENDBRANCH  20  22
ENDBRANCH  12  17
BRANCH  12   8
ATOM      1  O   UNL     1      -3.548   4.598  26.842  0.00  0.00    -0.376 OA
ATOM      8  C   UNL     1      -2.477   4.186  25.042  0.00  0.00    +0.072 C 
ATOM     10  C   UNL     1      -3.084   3.392  26.194  0.00  0.00    +0.184 C 
ATOM     11  C   UNL     1      -2.913   5.415  25.833  0.00  0.00    +0.184 C 
BRANCH   8   4
ATOM      4  N   UNL     1      -3.341   4.050  23.867  0.00  0.00    -0.304 NA
ATOM     31  H   UNL     1      -2.881   4.202  22.970  0.00  0.00    +0.123 HD
BRANCH   4   9
ATOM      3  O   UNL     1      -3.709  -1.543  26.394  0.00  0.00    -0.276 OA
ATOM      5  N   UNL     1      -3.955  -0.063  24.620  0.00  0.00    -0.302 N 
ATOM      9  C   UNL     1      -3.985   2.739  23.891  0.00  0.00    +0.057 C 
ATOM     13  C   UNL     1      -4.196   2.283  25.340  0.00  0.00    +0.037 C 
ATOM     14  C   UNL     1      -3.130   1.719  23.127  0.00  0.00    +0.037 C 
ATOM     15  C   UNL     1      -4.779   0.873  25.388  0.00  0.00    +0.109 C 
ATOM     16  C   UNL     1      -3.735   0.319  23.220  0.00  0.00    +0.109 C 
ATOM     18  C   UNL     1      -3.480  -1.226  25.224  0.00  0.00    +0.212 C 
ATOM     21  C   UNL     1      -2.636  -2.136  24.367  0.00  0.00    +0.109 C 
ENDBRANCH   4   9
ENDBRANCH   8   4
ENDBRANCH  12   8
TORSDOF 8
ENDMDL
MODEL 8
REMARK VINA RESULT:       0.4      1.424      2.100
REMARK  Name = 56775614
REMARK  10 active torsions:
REMARK  status: ('A' for Active; 'I' for Inactive)
REMARK    1  A    between atoms: N_4  and  C_8
REMARK    2  A    between atoms: N_4  and  C_9
REMARK    3  A    between atoms: N_7  and  C_22
REMARK    4  A    between atoms: N_7  and  C_23
REMARK    5  A    between atoms: N_7  and  C_24
REMARK    6  A    between atoms: C_8  and  C_12
REMARK    7  A    between atoms: C_12  and  C_17
REMARK    8  A    between atoms: C_18  and  C_21
REMARK    9  A    between atoms: C_20  and  C_22
REMARK   10  A    between atoms: C_23  and  C_25
REMARK                            x       y       z     vdW  Elec       q    Type
REMARK                         _______ _______ _______ _____ _____    ______ ____
ROOT
ATOM     12  C   UNL     1      -4.223   3.414  23.571  0.00  0.00    +0.085 C 
ENDROOT
BRANCH  12  17
ATOM      2  O   UNL     1      -1.264   1.637  22.503  0.00  0.00    -0.358 OA
ATOM      6  N   UNL     1      -2.574   2.066  22.323  0.00  0.00    -0.083 NA
ATOM     17  C   UNL     1      -2.857   2.778  23.417  0.00  0.00    +0.086 A 
ATOM     19  C   UNL     1      -1.776   2.833  24.313  0.00  0.00    +0.072 A 
ATOM     20  C   UNL     1      -0.800   2.100  23.692  0.00  0.00    +0.151 A 
BRANCH  20  22
ATOM     22  C   UNL     1       0.579   1.738  24.043  0.00  0.00    +0.161 C 
BRANCH  22   7
ATOM      7  N   UNL     1       0.875   0.310  23.835  0.00  0.00    -0.294 NA
ATOM     24  C   UNL     1      -0.365  -0.439  23.669  0.00  0.00    +0.105 C 
BRANCH   7  23
ATOM     23  C   UNL     1       1.745   0.143  22.676  0.00  0.00    +0.119 C 
BRANCH  23  25
ATOM     25  C   UNL     1       3.179  -0.075  23.078  0.00  0.00    -0.033 A 
ATOM     26  C   UNL     1       4.107   0.956  22.936  0.00  0.00    +0.005 A 
ATOM     27  C   UNL     1       3.580  -1.309  23.591  0.00  0.00    +0.005 A 
ATOM     28  C   UNL     1       5.437   0.754  23.307  0.00  0.00    +0.000 A 
ATOM     29  C   UNL     1       4.909  -1.511  23.963  0.00  0.00    +0.000 A 
ATOM     30  C   UNL     1       5.837  -0.479  23.821  0.00  0.00    +0.000 A 
ENDBRANCH  23  25
ENDBRANCH   7  23
ENDBRANCH  22   7
ENDBRANCH  20  22
ENDBRANCH  12  17
BRANCH  12   8
ATOM      1  O   UNL     1      -4.833   4.604  26.640  0.00  0.00    -0.376 OA
ATOM      8  C   UNL     1      -4.722   3.271  24.976  0.00  0.00    +0.072 C 
ATOM     10  C   UNL     1      -3.821   3.709  26.126  0.00  0.00    +0.184 C 
ATOM     11  C   UNL     1      -5.701   4.305  25.522  0.00  0.00    +0.184 C 
BRANCH   8   4
ATOM      4  N   UNL     1      -5.240   1.931  25.266  0.00  0.00    -0.304 NA
ATOM     31  H   UNL     1      -6.157   1.726  24.870  0.00  0.00    +0.123 HD
BRANCH   4   9
ATOM      3  O   UNL     1      -4.008  -3.952  23.974  0.00  0.00    -0.276 OA
ATOM      5  N   UNL     1      -3.393  -1.822  24.669  0.00  0.00    -0.302 N 
ATOM      9  C   UNL     1      -4.266   0.934  24.834  0.00  0.00    +0.057 C 
ATOM     13  C   UNL     1      -4.922  -0.062  23.869  0.00  0.00    +0.037 C 
ATOM     14  C   UNL     1      -3.689   0.199  26.051  0.00  0.00    +0.037 C 
ATOM     15  C   UNL     1      -3.946  -1.169  23.480  0.00  0.00    +0.109 C 
ATOM     16  C   UNL     1      -2.736  -0.915  25.618  0.00  0.00    +0.109 C 
ATOM     18  C   UNL     1      -3.482  -3.207  24.805  0.00  0.00    +0.212 C 
ATOM     21  C   UNL     1      -2.892  -3.802  26.058  0.00  0.00    +0.109 C 
ENDBRANCH   4   9
ENDBRANCH   8   4
ENDBRANCH  12   8
TORSDOF 8
ENDMDL
MODEL 9
REMARK VINA RESULT:       0.7      1.947      6.639
REMARK  Name = 56775614
REMARK  10 active torsions:
REMARK  status: ('A' for Active; 'I' for Inactive)
REMARK    1  A    between atoms: N_4  and  C_8
REMARK    2  A    between atoms: N_4  and  C_9
REMARK    3  A    between atoms: N_7  and  C_22
REMARK    4  A    between atoms: N_7  and  C_23
REMARK    5  A    between atoms: N_7  and  C_24
REMARK    6  A    between atoms: C_8  and  C_12
REMARK    7  A    between atoms: C_12  and  C_17
REMARK    8  A    between atoms: C_18  and  C_21
REMARK    9  A    between atoms: C_20  and  C_22
REMARK   10  A    between atoms: C_23  and  C_25
REMARK                            x       y       z     vdW  Elec       q    Type
REMARK                         _______ _______ _______ _____ _____    ______ ____
ROOT
ATOM     12  C   UNL     1       0.953   1.279  22.581  0.00  0.00    +0.085 C 
ENDROOT
BRANCH  12  17
ATOM      2  O   UNL     1       0.317   2.573  25.894  0.00  0.00    -0.358 OA
ATOM      6  N   UNL     1       1.126   1.952  24.950  0.00  0.00    -0.083 NA
ATOM     17  C   UNL     1       0.385   1.900  23.840  0.00  0.00    +0.086 A 
ATOM     19  C   UNL     1      -0.887   2.469  24.021  0.00  0.00    +0.072 A 
ATOM     20  C   UNL     1      -0.879   2.876  25.328  0.00  0.00    +0.151 A 
BRANCH  20  22
ATOM     22  C   UNL     1      -1.862   3.543  26.191  0.00  0.00    +0.161 C 
BRANCH  22   7
ATOM      7  N   UNL     1      -2.499   4.708  25.553  0.00  0.00    -0.294 NA
ATOM     24  C   UNL     1      -1.480   5.646  25.093  0.00  0.00    +0.105 C 
BRANCH   7  23
ATOM     23  C   UNL     1      -3.344   4.273  24.447  0.00  0.00    +0.119 C 
BRANCH  23  25
ATOM     25  C   UNL     1      -4.323   3.212  24.873  0.00  0.00    -0.033 A 
ATOM     26  C   UNL     1      -5.320   3.515  25.800  0.00  0.00    +0.005 A 
ATOM     27  C   UNL     1      -4.231   1.925  24.343  0.00  0.00    +0.005 A 
ATOM     28  C   UNL     1      -6.227   2.531  26.196  0.00  0.00    +0.000 A 
ATOM     29  C   UNL     1      -5.137   0.941  24.738  0.00  0.00    +0.000 A 
ATOM     30  C   UNL     1      -6.135   1.245  25.665  0.00  0.00    +0.000 A 
ENDBRANCH  23  25
ENDBRANCH   7  23
ENDBRANCH  22   7
ENDBRANCH  20  22
ENDBRANCH  12  17
BRANCH  12   8
ATOM      1  O   UNL     1       4.159   0.315  22.535  0.00  0.00    -0.376 OA
ATOM      8  C   UNL     1       2.058   0.323  22.912  0.00  0.00    +0.072 C 
ATOM     10  C   UNL     1       2.997  -0.132  21.799  0.00  0.00    +0.184 C 
ATOM     11  C   UNL     1       3.320   0.853  23.582  0.00  0.00    +0.184 C 
BRANCH   8   4
ATOM      4  N   UNL     1       1.592  -0.857  23.648  0.00  0.00    -0.304 NA
ATOM     31  H   UNL     1       2.189  -1.148  24.421  0.00  0.00    +0.123 HD
BRANCH   4   9
ATOM      3  O   UNL     1      -3.611  -3.191  25.945  0.00  0.00    -0.276 OA
ATOM      5  N   UNL     1      -2.425  -1.612  24.721  0.00  0.00    -0.302 N 
ATOM      9  C   UNL     1       0.229  -0.624  24.118  0.00  0.00    +0.057 C 
ATOM     13  C   UNL     1      -0.049  -1.471  25.366  0.00  0.00    +0.037 C 
ATOM     14  C   UNL     1      -0.775  -0.960  23.007  0.00  0.00    +0.037 C 
ATOM     15  C   UNL     1      -1.499  -1.316  25.817  0.00  0.00    +0.109 C 
ATOM     16  C   UNL     1      -2.212  -0.816  23.506  0.00  0.00    +0.109 C 
ATOM     18  C   UNL     1      -3.431  -2.560  24.900  0.00  0.00    +0.212 C 
ATOM     21  C   UNL     1      -4.340  -2.810  23.723  0.00  0.00    +0.109 C 
ENDBRANCH   4   9
ENDBRANCH   8   4
ENDBRANCH  12   8
TORSDOF 8
ENDMDL
MODEL 10
REMARK VINA RESULT:       0.9      2.735      5.805
REMARK  Name = 56775614
REMARK  10 active torsions:
REMARK  status: ('A' for Active; 'I' for Inactive)
REMARK    1  A    between atoms: N_4  and  C_8
REMARK    2  A    between atoms: N_4  and  C_9
REMARK    3  A    between atoms: N_7  and  C_22
REMARK    4  A    between atoms: N_7  and  C_23
REMARK    5  A    between atoms: N_7  and  C_24
REMARK    6  A    between atoms: C_8  and  C_12
REMARK    7  A    between atoms: C_12  and  C_17
REMARK    8  A    between atoms: C_18  and  C_21
REMARK    9  A    between atoms: C_20  and  C_22
REMARK   10  A    between atoms: C_23  and  C_25
REMARK                            x       y       z     vdW  Elec       q    Type
REMARK                         _______ _______ _______ _____ _____    ______ ____
ROOT
ATOM     12  C   UNL     1      -0.300   2.792  23.621  0.00  0.00    +0.085 C 
ENDROOT
BRANCH  12  17
ATOM      2  O   UNL     1       1.010  -0.561  23.311  0.00  0.00    -0.358 OA
ATOM      6  N   UNL     1       1.149   0.822  23.284  0.00  0.00    -0.083 NA
ATOM     17  C   UNL     1      -0.069   1.297  23.562  0.00  0.00    +0.086 A 
ATOM     19  C   UNL     1      -1.006   0.271  23.772  0.00  0.00    +0.072 A 
ATOM     20  C   UNL     1      -0.278  -0.876  23.603  0.00  0.00    +0.151 A 
BRANCH  20  22
ATOM     22  C   UNL     1      -0.602  -2.306  23.673  0.00  0.00    +0.161 C 
BRANCH  22   7
ATOM      7  N   UNL     1      -0.550  -2.847  25.042  0.00  0.00    -0.294 NA
ATOM     24  C   UNL     1      -0.042  -1.834  25.961  0.00  0.00    +0.105 C 
BRANCH   7  23
ATOM     23  C   UNL     1      -1.873  -3.305  25.451  0.00  0.00    +0.119 C 
BRANCH  23  25
ATOM     25  C   UNL     1      -2.948  -2.321  25.073  0.00  0.00    -0.033 A 
ATOM     26  C   UNL     1      -3.177  -1.198  25.868  0.00  0.00    +0.005 A 
ATOM     27  C   UNL     1      -3.716  -2.533  23.928  0.00  0.00    +0.005 A 
ATOM     28  C   UNL     1      -4.174  -0.287  25.518  0.00  0.00    +0.000 A 
ATOM     29  C   UNL     1      -4.712  -1.622  23.577  0.00  0.00    +0.000 A 
ATOM     30  C   UNL     1      -4.940  -0.499  24.373  0.00  0.00    +0.000 A 
ENDBRANCH  23  25
ENDBRANCH   7  23
ENDBRANCH  22   7
ENDBRANCH  20  22
ENDBRANCH  12  17
BRANCH  12   8
ATOM      1  O   UNL     1      -0.382   2.260  26.925  0.00  0.00    -0.376 OA
ATOM      8  C   UNL     1      -0.494   3.246  25.035  0.00  0.00    +0.072 C 
ATOM     10  C   UNL     1      -1.426   2.451  25.943  0.00  0.00    +0.184 C 
ATOM     11  C   UNL     1       0.578   2.922  26.070  0.00  0.00    +0.184 C 
BRANCH   8   4
ATOM      4  N   UNL     1      -0.835   4.668  25.138  0.00  0.00    -0.304 NA
ATOM     31  H   UNL     1      -0.441   5.262  24.409  0.00  0.00    +0.123 HD
BRANCH   4   9
ATOM      3  O   UNL     1      -6.258   2.418  26.962  0.00  0.00    -0.276 OA
ATOM      5  N   UNL     1      -4.921   3.659  25.524  0.00  0.00    -0.302 N 
ATOM      9  C   UNL     1      -2.287   4.813  25.182  0.00  0.00    +0.057 C 
ATOM     13  C   UNL     1      -2.815   4.410  26.565  0.00  0.00    +0.037 C 
ATOM     14  C   UNL     1      -2.936   3.954  24.089  0.00  0.00    +0.037 C 
ATOM     15  C   UNL     1      -4.341   4.463  26.603  0.00  0.00    +0.109 C 
ATOM     16  C   UNL     1      -4.461   4.016  24.177  0.00  0.00    +0.109 C 
ATOM     18  C   UNL     1      -5.860   2.674  25.822  0.00  0.00    +0.212 C 
ATOM     21  C   UNL     1      -6.407   1.888  24.657  0.00  0.00    +0.109 C 
ENDBRANCH   4   9
ENDBRANCH   8   4
ENDBRANCH  12   8
TORSDOF 8
ENDMDL
