MODEL 1
REMARK VINA RESULT:      -2.5      0.000      0.000
REMARK  Name = 45783569
REMARK  9 active torsions:
REMARK  status: ('A' for Active; 'I' for Inactive)
REMARK    1  A    between atoms: O_2  and  C_24
REMARK    2  A    between atoms: O_2  and  C_25
REMARK    3  A    between atoms: O_3  and  C_26
REMARK    4  A    between atoms: O_3  and  C_27
REMARK    5  A    between atoms: N_4  and  C_14
REMARK    6  A    between atoms: C_10  and  C_15
REMARK    7  A    between atoms: C_14  and  C_16
REMARK    8  A    between atoms: C_17  and  C_20
REMARK    9  A    between atoms: C_25  and  C_26
REMARK                            x       y       z     vdW  Elec       q    Type
REMARK                         _______ _______ _______ _____ _____    ______ ____
ROOT
ATOM      1  O   UNL     1      -2.875  -0.770  25.072  0.00  0.00    -0.336 OA
ATOM      5  N   UNL     1      -1.926   1.196  24.577  0.00  0.00    -0.190 NA
ATOM      8  N   UNL     1      -1.625  -1.071  24.518  0.00  0.00    -0.056 NA
ATOM     15  C   UNL     1      -2.972   0.584  25.070  0.00  0.00    +0.245 A 
ATOM     17  C   UNL     1      -1.125   0.140  24.251  0.00  0.00    +0.204 A 
ENDROOT
BRANCH  17  20
ATOM      9  N   UNL     1       2.208   1.619  23.524  0.00  0.00    -0.221 NA
ATOM     20  C   UNL     1       0.167   0.329  23.659  0.00  0.00    +0.041 A 
ATOM     21  C   UNL     1       0.643  -0.539  22.684  0.00  0.00    +0.018 A 
ATOM     22  C   UNL     1       0.982   1.384  24.042  0.00  0.00    +0.126 A 
ATOM     23  C   UNL     1       1.900  -0.329  22.127  0.00  0.00    +0.068 A 
ATOM     24  C   UNL     1       2.637   0.755  22.578  0.00  0.00    +0.215 A 
BRANCH  24   2
ATOM      2  O   UNL     1       3.878   0.982  22.045  0.00  0.00    -0.474 OA
BRANCH   2  25
ATOM     25  C   UNL     1       4.916   0.091  22.437  0.00  0.00    +0.258 C 
BRANCH  25  26
ATOM     26  C   UNL     1       5.417   0.489  23.811  0.00  0.00    +0.200 C 
BRANCH  26   3
ATOM      3  O   UNL     1       5.428  -0.659  24.652  0.00  0.00    -0.380 OA
ATOM     27  C   UNL     1       4.805  -1.770  24.024  0.00  0.00    +0.194 C 
ENDBRANCH  26   3
ENDBRANCH  25  26
ENDBRANCH   2  25
ENDBRANCH  24   2
ENDBRANCH  17  20
BRANCH  15  10
ATOM      4  N   UNL     1      -4.396   2.610  25.331  0.00  0.00    -0.284 NA
ATOM     10  C   UNL     1      -4.251   1.171  25.630  0.00  0.00    +0.146 C 
ATOM     11  C   UNL     1      -5.514   0.519  25.035  0.00  0.00    +0.030 C 
ATOM     12  C   UNL     1      -6.334   1.675  24.479  0.00  0.00    +0.017 C 
ATOM     13  C   UNL     1      -5.833   2.875  25.258  0.00  0.00    +0.085 C 
BRANCH   4  14
ATOM     14  C   UNL     1      -3.728   3.467  26.302  0.00  0.00    +0.159 C 
BRANCH  14  16
ATOM      6  N   UNL     1      -1.234   3.482  26.066  0.00  0.00    -0.347 N 
ATOM      7  N   UNL     1      -2.318   5.077  24.966  0.00  0.00    -0.239 NA
ATOM     16  C   UNL     1      -2.444   4.036  25.758  0.00  0.00    +0.121 A 
ATOM     18  C   UNL     1      -0.273   4.215  25.429  0.00  0.00    +0.104 A 
ATOM     19  C   UNL     1      -0.966   5.193  24.756  0.00  0.00    +0.130 A 
ATOM     28  H   UNL     1      -1.076   2.677  26.659  0.00  0.00    +0.167 HD
ENDBRANCH  14  16
ENDBRANCH   4  14
ENDBRANCH  15  10
TORSDOF 8
ENDMDL
MODEL 2
REMARK VINA RESULT:      -2.4     15.015     16.717
REMARK  Name = 45783569
REMARK  9 active torsions:
REMARK  status: ('A' for Active; 'I' for Inactive)
REMARK    1  A    between atoms: O_2  and  C_24
REMARK    2  A    between atoms: O_2  and  C_25
REMARK    3  A    between atoms: O_3  and  C_26
REMARK    4  A    between atoms: O_3  and  C_27
REMARK    5  A    between atoms: N_4  and  C_14
REMARK    6  A    between atoms: C_10  and  C_15
REMARK    7  A    between atoms: C_14  and  C_16
REMARK    8  A    between atoms: C_17  and  C_20
REMARK    9  A    between atoms: C_25  and  C_26
REMARK                            x       y       z     vdW  Elec       q    Type
REMARK                         _______ _______ _______ _____ _____    ______ ____
ROOT
ATOM      1  O   UNL     1      -6.838 -10.455  14.024  0.00  0.00    -0.336 OA
ATOM      5  N   UNL     1      -6.153 -10.478  11.893  0.00  0.00    -0.190 NA
ATOM      8  N   UNL     1      -5.451 -10.269  14.060  0.00  0.00    -0.056 NA
ATOM     15  C   UNL     1      -7.170 -10.569  12.712  0.00  0.00    +0.245 A 
ATOM     17  C   UNL     1      -5.119 -10.295  12.765  0.00  0.00    +0.204 A 
ENDROOT
BRANCH  17  20
ATOM      9  N   UNL     1      -1.406 -10.482  12.702  0.00  0.00    -0.221 NA
ATOM     20  C   UNL     1      -3.768 -10.141  12.311  0.00  0.00    +0.041 A 
ATOM     21  C   UNL     1      -3.487  -9.533  11.093  0.00  0.00    +0.018 A 
ATOM     22  C   UNL     1      -2.702 -10.595  13.071  0.00  0.00    +0.126 A 
ATOM     23  C   UNL     1      -2.165  -9.397  10.679  0.00  0.00    +0.068 A 
ATOM     24  C   UNL     1      -1.171  -9.884  11.513  0.00  0.00    +0.215 A 
BRANCH  24   2
ATOM      2  O   UNL     1       0.138  -9.762  11.127  0.00  0.00    -0.474 OA
BRANCH   2  25
ATOM     25  C   UNL     1       0.654  -8.441  11.020  0.00  0.00    +0.258 C 
BRANCH  25  26
ATOM     26  C   UNL     1       0.443  -7.720  12.337  0.00  0.00    +0.200 C 
BRANCH  26   3
ATOM      3  O   UNL     1       1.467  -6.746  12.502  0.00  0.00    -0.380 OA
ATOM     27  C   UNL     1       2.672  -7.144  11.865  0.00  0.00    +0.194 C 
ENDBRANCH  26   3
ENDBRANCH  25  26
ENDBRANCH   2  25
ENDBRANCH  24   2
ENDBRANCH  17  20
BRANCH  15  10
ATOM      4  N   UNL     1      -9.519  -9.928  13.224  0.00  0.00    -0.284 NA
ATOM     10  C   UNL     1      -8.637 -10.779  12.401  0.00  0.00    +0.146 C 
ATOM     11  C   UNL     1      -8.993 -10.420  10.946  0.00  0.00    +0.030 C 
ATOM     12  C   UNL     1     -10.125  -9.408  11.051  0.00  0.00    +0.017 C 
ATOM     13  C   UNL     1     -10.716  -9.676  12.421  0.00  0.00    +0.085 C 
BRANCH   4  14
ATOM     14  C   UNL     1      -9.841 -10.516  14.518  0.00  0.00    +0.159 C 
BRANCH  14  16
ATOM      6  N   UNL     1      -8.695  -9.412  16.454  0.00  0.00    -0.347 N 
ATOM      7  N   UNL     1     -10.699  -8.611  15.933  0.00  0.00    -0.239 NA
ATOM     16  C   UNL     1      -9.779  -9.498  15.626  0.00  0.00    +0.121 A 
ATOM     18  C   UNL     1      -8.939  -8.406  17.345  0.00  0.00    +0.104 A 
ATOM     19  C   UNL     1     -10.181  -7.927  17.004  0.00  0.00    +0.130 A 
ATOM     28  H   UNL     1      -7.865  -9.989  16.416  0.00  0.00    +0.167 HD
ENDBRANCH  14  16
ENDBRANCH   4  14
ENDBRANCH  15  10
TORSDOF 8
ENDMDL
MODEL 3
REMARK VINA RESULT:      -2.3      1.829      3.512
REMARK  Name = 45783569
REMARK  9 active torsions:
REMARK  status: ('A' for Active; 'I' for Inactive)
REMARK    1  A    between atoms: O_2  and  C_24
REMARK    2  A    between atoms: O_2  and  C_25
REMARK    3  A    between atoms: O_3  and  C_26
REMARK    4  A    between atoms: O_3  and  C_27
REMARK    5  A    between atoms: N_4  and  C_14
REMARK    6  A    between atoms: C_10  and  C_15
REMARK    7  A    between atoms: C_14  and  C_16
REMARK    8  A    between atoms: C_17  and  C_20
REMARK    9  A    between atoms: C_25  and  C_26
REMARK                            x       y       z     vdW  Elec       q    Type
REMARK                         _______ _______ _______ _____ _____    ______ ____
ROOT
ATOM      1  O   UNL     1      -2.280   3.637  24.739  0.00  0.00    -0.336 OA
ATOM      5  N   UNL     1      -2.208   1.557  23.913  0.00  0.00    -0.190 NA
ATOM      8  N   UNL     1      -0.926   3.347  24.533  0.00  0.00    -0.056 NA
ATOM     15  C   UNL     1      -2.966   2.531  24.349  0.00  0.00    +0.245 A 
ATOM     17  C   UNL     1      -0.964   2.104  24.044  0.00  0.00    +0.204 A 
ENDROOT
BRANCH  17  20
ATOM      9  N   UNL     1       2.625   1.343  23.438  0.00  0.00    -0.221 NA
ATOM     20  C   UNL     1       0.219   1.380  23.680  0.00  0.00    +0.041 A 
ATOM     21  C   UNL     1       0.145   0.068  23.228  0.00  0.00    +0.018 A 
ATOM     22  C   UNL     1       1.471   1.968  23.765  0.00  0.00    +0.126 A 
ATOM     23  C   UNL     1       1.310  -0.609  22.881  0.00  0.00    +0.068 A 
ATOM     24  C   UNL     1       2.513   0.068  23.002  0.00  0.00    +0.215 A 
BRANCH  24   2
ATOM      2  O   UNL     1       3.675  -0.578  22.666  0.00  0.00    -0.474 OA
BRANCH   2  25
ATOM     25  C   UNL     1       4.261  -1.401  23.667  0.00  0.00    +0.258 C 
BRANCH  25  26
ATOM     26  C   UNL     1       5.339  -0.614  24.386  0.00  0.00    +0.200 C 
BRANCH  26   3
ATOM      3  O   UNL     1       6.022   0.204  23.445  0.00  0.00    -0.380 OA
ATOM     27  C   UNL     1       7.114  -0.483  22.851  0.00  0.00    +0.194 C 
ENDBRANCH  26   3
ENDBRANCH  25  26
ENDBRANCH   2  25
ENDBRANCH  24   2
ENDBRANCH  17  20
BRANCH  15  10
ATOM      4  N   UNL     1      -5.036   1.408  25.155  0.00  0.00    -0.284 NA
ATOM     10  C   UNL     1      -4.474   2.592  24.474  0.00  0.00    +0.146 C 
ATOM     11  C   UNL     1      -4.953   3.791  25.314  0.00  0.00    +0.030 C 
ATOM     12  C   UNL     1      -5.826   3.188  26.406  0.00  0.00    +0.017 C 
ATOM     13  C   UNL     1      -6.258   1.857  25.823  0.00  0.00    +0.085 C 
BRANCH   4  14
ATOM     14  C   UNL     1      -5.283   0.290  24.253  0.00  0.00    +0.159 C 
BRANCH  14  16
ATOM      6  N   UNL     1      -3.402  -0.797  25.501  0.00  0.00    -0.347 N 
ATOM      7  N   UNL     1      -4.283  -1.991  23.849  0.00  0.00    -0.239 NA
ATOM     16  C   UNL     1      -4.338  -0.854  24.507  0.00  0.00    +0.121 A 
ATOM     18  C   UNL     1      -2.706  -1.973  25.477  0.00  0.00    +0.104 A 
ATOM     19  C   UNL     1      -3.268  -2.693  24.450  0.00  0.00    +0.130 A 
ATOM     28  H   UNL     1      -3.250  -0.026  26.137  0.00  0.00    +0.167 HD
ENDBRANCH  14  16
ENDBRANCH   4  14
ENDBRANCH  15  10
TORSDOF 8
ENDMDL
MODEL 4
REMARK VINA RESULT:      -1.0     15.973     17.705
REMARK  Name = 45783569
REMARK  9 active torsions:
REMARK  status: ('A' for Active; 'I' for Inactive)
REMARK    1  A    between atoms: O_2  and  C_24
REMARK    2  A    between atoms: O_2  and  C_25
REMARK    3  A    between atoms: O_3  and  C_26
REMARK    4  A    between atoms: O_3  and  C_27
REMARK    5  A    between atoms: N_4  and  C_14
REMARK    6  A    between atoms: C_10  and  C_15
REMARK    7  A    between atoms: C_14  and  C_16
REMARK    8  A    between atoms: C_17  and  C_20
REMARK    9  A    between atoms: C_25  and  C_26
REMARK                            x       y       z     vdW  Elec       q    Type
REMARK                         _______ _______ _______ _____ _____    ______ ____
ROOT
ATOM      1  O   UNL     1      -7.229  -9.133  11.841  0.00  0.00    -0.336 OA
ATOM      5  N   UNL     1      -5.890  -9.966  10.251  0.00  0.00    -0.190 NA
ATOM      8  N   UNL     1      -5.919  -8.946  12.298  0.00  0.00    -0.056 NA
ATOM     15  C   UNL     1      -7.122  -9.739  10.630  0.00  0.00    +0.245 A 
ATOM     17  C   UNL     1      -5.186  -9.462  11.307  0.00  0.00    +0.204 A 
ENDROOT
BRANCH  17  20
ATOM      9  N   UNL     1      -1.651  -8.920  10.289  0.00  0.00    -0.221 NA
ATOM     20  C   UNL     1      -3.753  -9.492  11.339  0.00  0.00    +0.041 A 
ATOM     21  C   UNL     1      -3.073 -10.091  12.393  0.00  0.00    +0.018 A 
ATOM     22  C   UNL     1      -3.003  -8.926  10.320  0.00  0.00    +0.126 A 
ATOM     23  C   UNL     1      -1.682 -10.106  12.396  0.00  0.00    +0.068 A 
ATOM     24  C   UNL     1      -1.024  -9.512  11.330  0.00  0.00    +0.215 A 
BRANCH  24   2
ATOM      2  O   UNL     1       0.346  -9.514  11.311  0.00  0.00    -0.474 OA
BRANCH   2  25
ATOM     25  C   UNL     1       0.984  -8.257  11.115  0.00  0.00    +0.258 C 
BRANCH  25  26
ATOM     26  C   UNL     1       1.086  -7.541  12.448  0.00  0.00    +0.200 C 
BRANCH  26   3
ATOM      3  O   UNL     1       1.802  -6.325  12.267  0.00  0.00    -0.380 OA
ATOM     27  C   UNL     1       3.174  -6.564  11.989  0.00  0.00    +0.194 C 
ENDBRANCH  26   3
ENDBRANCH  25  26
ENDBRANCH   2  25
ENDBRANCH  24   2
ENDBRANCH  17  20
BRANCH  15  10
ATOM      4  N   UNL     1      -9.609  -9.679  10.706  0.00  0.00    -0.284 NA
ATOM     10  C   UNL     1      -8.420 -10.054   9.916  0.00  0.00    +0.146 C 
ATOM     11  C   UNL     1      -8.571  -9.282   8.591  0.00  0.00    +0.030 C 
ATOM     12  C   UNL     1      -9.902  -8.552   8.706  0.00  0.00    +0.017 C 
ATOM     13  C   UNL     1     -10.662  -9.356   9.742  0.00  0.00    +0.085 C 
BRANCH   4  14
ATOM     14  C   UNL     1     -10.024 -10.714  11.645  0.00  0.00    +0.159 C 
BRANCH  14  16
ATOM      6  N   UNL     1     -10.700  -8.925  13.264  0.00  0.00    -0.347 N 
ATOM      7  N   UNL     1      -9.877 -10.781  14.163  0.00  0.00    -0.239 NA
ATOM     16  C   UNL     1     -10.187 -10.172  13.040  0.00  0.00    +0.121 A 
ATOM     18  C   UNL     1     -10.720  -8.726  14.616  0.00  0.00    +0.104 A 
ATOM     19  C   UNL     1     -10.207  -9.886  15.149  0.00  0.00    +0.130 A 
ATOM     28  H   UNL     1     -11.007  -8.268  12.559  0.00  0.00    +0.167 HD
ENDBRANCH  14  16
ENDBRANCH   4  14
ENDBRANCH  15  10
TORSDOF 8
ENDMDL
MODEL 5
REMARK VINA RESULT:       0.8      1.587      2.525
REMARK  Name = 45783569
REMARK  9 active torsions:
REMARK  status: ('A' for Active; 'I' for Inactive)
REMARK    1  A    between atoms: O_2  and  C_24
REMARK    2  A    between atoms: O_2  and  C_25
REMARK    3  A    between atoms: O_3  and  C_26
REMARK    4  A    between atoms: O_3  and  C_27
REMARK    5  A    between atoms: N_4  and  C_14
REMARK    6  A    between atoms: C_10  and  C_15
REMARK    7  A    between atoms: C_14  and  C_16
REMARK    8  A    between atoms: C_17  and  C_20
REMARK    9  A    between atoms: C_25  and  C_26
REMARK                            x       y       z     vdW  Elec       q    Type
REMARK                         _______ _______ _______ _____ _____    ______ ____
ROOT
ATOM      1  O   UNL     1      -2.024   1.001  25.763  0.00  0.00    -0.336 OA
ATOM      5  N   UNL     1      -1.269  -0.426  24.211  0.00  0.00    -0.190 NA
ATOM      8  N   UNL     1      -0.756   1.466  25.391  0.00  0.00    -0.056 NA
ATOM     15  C   UNL     1      -2.248  -0.114  25.022  0.00  0.00    +0.245 A 
ATOM     17  C   UNL     1      -0.375   0.573  24.473  0.00  0.00    +0.204 A 
ENDROOT
BRANCH  17  20
ATOM      9  N   UNL     1       2.569  -0.432  22.436  0.00  0.00    -0.221 NA
ATOM     20  C   UNL     1       0.889   0.647  23.800  0.00  0.00    +0.041 A 
ATOM     21  C   UNL     1       1.654   1.807  23.840  0.00  0.00    +0.018 A 
ATOM     22  C   UNL     1       1.386  -0.435  23.091  0.00  0.00    +0.126 A 
ATOM     23  C   UNL     1       2.878   1.848  23.178  0.00  0.00    +0.068 A 
ATOM     24  C   UNL     1       3.286   0.713  22.497  0.00  0.00    +0.215 A 
BRANCH  24   2
ATOM      2  O   UNL     1       4.487   0.730  21.838  0.00  0.00    -0.474 OA
BRANCH   2  25
ATOM     25  C   UNL     1       5.559   0.017  22.442  0.00  0.00    +0.258 C 
BRANCH  25  26
ATOM     26  C   UNL     1       5.711   0.477  23.879  0.00  0.00    +0.200 C 
BRANCH  26   3
ATOM      3  O   UNL     1       5.484  -0.627  24.747  0.00  0.00    -0.380 OA
ATOM     27  C   UNL     1       5.106  -1.789  24.024  0.00  0.00    +0.194 C 
ENDBRANCH  26   3
ENDBRANCH  25  26
ENDBRANCH   2  25
ENDBRANCH  24   2
ENDBRANCH  17  20
BRANCH  15  10
ATOM      4  N   UNL     1      -4.658  -0.250  24.414  0.00  0.00    -0.284 NA
ATOM     10  C   UNL     1      -3.573  -0.815  25.240  0.00  0.00    +0.146 C 
ATOM     11  C   UNL     1      -3.526  -2.307  24.857  0.00  0.00    +0.030 C 
ATOM     12  C   UNL     1      -4.659  -2.496  23.859  0.00  0.00    +0.017 C 
ATOM     13  C   UNL     1      -5.596  -1.343  24.159  0.00  0.00    +0.085 C 
BRANCH   4  14
ATOM     14  C   UNL     1      -5.310   0.899  25.031  0.00  0.00    +0.159 C 
BRANCH  14  16
ATOM      6  N   UNL     1      -3.866   2.386  23.623  0.00  0.00    -0.347 N 
ATOM      7  N   UNL     1      -4.430   3.190  25.615  0.00  0.00    -0.239 NA
ATOM     16  C   UNL     1      -4.545   2.173  24.790  0.00  0.00    +0.121 A 
ATOM     18  C   UNL     1      -3.281   3.618  23.708  0.00  0.00    +0.104 A 
ATOM     19  C   UNL     1      -3.643   4.095  24.946  0.00  0.00    +0.130 A 
ATOM     28  H   UNL     1      -3.805   1.748  22.841  0.00  0.00    +0.167 HD
ENDBRANCH  14  16
ENDBRANCH   4  14
ENDBRANCH  15  10
TORSDOF 8
ENDMDL
