MODEL 1
REMARK VINA RESULT:      11.0      0.000      0.000
REMARK  Name = 11867054
REMARK  13 active torsions:
REMARK  status: ('A' for Active; 'I' for Inactive)
REMARK    1  A    between atoms: O_2  and  C_14
REMARK    2  A    between atoms: O_3  and  C_19
REMARK    3  A    between atoms: N_7  and  C_25
REMARK    4  A    between atoms: C_9  and  C_17
REMARK    5  A    between atoms: C_11  and  C_19
REMARK    6  A    between atoms: C_11  and  C_20
REMARK    7  A    between atoms: C_12  and  C_22
REMARK    8  A    between atoms: C_22  and  C_23
REMARK    9  A    between atoms: C_26  and  C_27
REMARK   10  A    between atoms: C_27  and  C_28
REMARK   11  A    between atoms: C_28  and  C_31
REMARK   12  A    between atoms: C_28  and  C_32
REMARK   13  A    between atoms: C_28  and  C_33
REMARK                            x       y       z     vdW  Elec       q    Type
REMARK                         _______ _______ _______ _____ _____    ______ ____
ROOT
ATOM      1  S   UNL     1      -0.781  -0.624  22.780  0.00  0.00    -0.057 S 
ATOM      5  O   UNL     1       3.215   1.626  23.607  0.00  0.00    -0.275 OA
ATOM      6  N   UNL     1       0.275   1.435  23.938  0.00  0.00    -0.229 NA
ATOM      8  N   UNL     1       1.775  -0.039  22.758  0.00  0.00    -0.265 N 
ATOM      9  C   UNL     1      -3.294   2.631  24.778  0.00  0.00    -0.019 C 
ATOM     10  C   UNL     1      -3.853   1.143  24.877  0.00  0.00    +0.011 C 
ATOM     11  C   UNL     1      -5.405   0.976  25.103  0.00  0.00    +0.021 C 
ATOM     12  C   UNL     1      -1.710   2.577  24.994  0.00  0.00    +0.054 C 
ATOM     13  C   UNL     1      -3.912   3.491  25.910  0.00  0.00    +0.010 C 
ATOM     14  C   UNL     1      -5.865   1.938  26.234  0.00  0.00    +0.123 C 
ATOM     15  C   UNL     1      -3.284   0.244  23.741  0.00  0.00    +0.049 C 
ATOM     16  C   UNL     1      -5.427   3.382  26.011  0.00  0.00    +0.032 C 
ATOM     17  C   UNL     1      -3.605   3.301  23.418  0.00  0.00    +0.012 C 
ATOM     18  C   UNL     1      -1.088   1.481  24.167  0.00  0.00    +0.058 A 
ATOM     20  C   UNL     1      -5.694  -0.474  25.583  0.00  0.00    +0.016 C 
ATOM     21  C   UNL     1      -1.809   0.435  23.630  0.00  0.00    +0.015 A 
ATOM     24  C   UNL     1       0.550   0.373  23.211  0.00  0.00    +0.165 A 
ATOM     26  C   UNL     1       3.010   0.594  22.974  0.00  0.00    +0.219 C 
ATOM     40  H   UNL     1       1.761  -0.892  22.207  0.00  0.00    +0.157 HD
ENDROOT
BRANCH  14   2
ATOM      2  O   UNL     1      -7.285   1.906  26.375  0.00  0.00    -0.391 OA
ATOM     37  H   UNL     1      -7.670   1.910  25.482  0.00  0.00    +0.210 HD
ENDBRANCH  14   2
BRANCH  11  19
ATOM     19  C   UNL     1      -6.262   1.171  23.832  0.00  0.00    +0.165 C 
BRANCH  19   3
ATOM      3  O   UNL     1      -7.555   1.557  24.239  0.00  0.00    -0.394 OA
ATOM     38  H   UNL     1      -7.504   2.484  24.528  0.00  0.00    +0.209 HD
ENDBRANCH  19   3
ENDBRANCH  11  19
BRANCH  12  22
ATOM     22  C   UNL     1      -0.992   3.917  24.785  0.00  0.00    +0.106 C 
BRANCH  22  23
ATOM      4  O   UNL     1       0.811   5.145  25.804  0.00  0.00    -0.275 OA
ATOM      7  N   UNL     1       0.145   3.080  26.702  0.00  0.00    -0.285 N 
ATOM     23  C   UNL     1       0.099   4.146  25.809  0.00  0.00    +0.218 C 
ATOM     39  H   UNL     1      -0.514   2.316  26.565  0.00  0.00    +0.155 HD
BRANCH   7  25
ATOM     25  C   UNL     1       1.020   2.911  27.801  0.00  0.00    +0.033 A 
ATOM     29  C   UNL     1       0.525   2.456  29.024  0.00  0.00    +0.023 A 
ATOM     30  C   UNL     1       2.378   3.199  27.662  0.00  0.00    +0.023 A 
ATOM     34  C   UNL     1       1.389   2.290  30.106  0.00  0.00    +0.002 A 
ATOM     35  C   UNL     1       3.241   3.033  28.745  0.00  0.00    +0.002 A 
ATOM     36  C   UNL     1       2.746   2.579  29.968  0.00  0.00    +0.000 A 
ENDBRANCH   7  25
ENDBRANCH  22  23
ENDBRANCH  12  22
BRANCH  26  27
ATOM     27  C   UNL     1       4.171  -0.140  22.313  0.00  0.00    +0.102 C 
BRANCH  27  28
ATOM     28  C   UNL     1       5.334  -0.508  23.265  0.00  0.00    -0.029 C 
ATOM     31  C   UNL     1       6.646  -0.729  22.495  0.00  0.00    +0.011 C 
ATOM     32  C   UNL     1       4.965  -1.820  23.984  0.00  0.00    +0.011 C 
ATOM     33  C   UNL     1       5.546   0.585  24.325  0.00  0.00    +0.011 C 
ENDBRANCH  27  28
ENDBRANCH  26  27
TORSDOF 8
ENDMDL
