MODEL 1
REMARK VINA RESULT:      12.1      0.000      0.000
REMARK  Name = 7156507
REMARK  11 active torsions:
REMARK  status: ('A' for Active; 'I' for Inactive)
REMARK    1  A    between atoms: O_2  and  C_13
REMARK    2  A    between atoms: O_3  and  C_18
REMARK    3  A    between atoms: N_6  and  C_25
REMARK    4  A    between atoms: C_8  and  C_16
REMARK    5  A    between atoms: C_10  and  C_18
REMARK    6  A    between atoms: C_10  and  C_19
REMARK    7  A    between atoms: C_11  and  C_21
REMARK    8  A    between atoms: C_21  and  C_22
REMARK    9  A    between atoms: C_23  and  C_24
REMARK   10  A    between atoms: C_25  and  C_28
REMARK   11  A    between atoms: C_25  and  C_29
REMARK                            x       y       z     vdW  Elec       q    Type
REMARK                         _______ _______ _______ _____ _____    ______ ____
ROOT
ATOM      1  S   UNL     1       0.171   3.576  24.001  0.00  0.00    -0.072 S 
ATOM      5  N   UNL     1      -1.060   1.340  24.424  0.00  0.00    -0.243 NA
ATOM      8  C   UNL     1       2.130  -0.485  23.254  0.00  0.00    -0.020 C 
ATOM      9  C   UNL     1       3.082   0.674  23.787  0.00  0.00    +0.011 C 
ATOM     10  C   UNL     1       4.622   0.537  23.470  0.00  0.00    +0.021 C 
ATOM     11  C   UNL     1       0.743  -0.384  24.042  0.00  0.00    +0.053 C 
ATOM     12  C   UNL     1       2.768  -1.863  23.566  0.00  0.00    +0.010 C 
ATOM     13  C   UNL     1       5.086  -0.911  23.794  0.00  0.00    +0.123 C 
ATOM     14  C   UNL     1       2.500   2.081  23.470  0.00  0.00    +0.049 C 
ATOM     15  C   UNL     1       4.223  -1.981  23.133  0.00  0.00    +0.032 C 
ATOM     16  C   UNL     1       1.865  -0.393  21.731  0.00  0.00    +0.012 C 
ATOM     17  C   UNL     1       0.247   1.039  24.085  0.00  0.00    +0.056 A 
ATOM     19  C   UNL     1       5.418   1.497  24.398  0.00  0.00    +0.016 C 
ATOM     20  C   UNL     1       1.056   2.131  23.843  0.00  0.00    +0.014 A 
ATOM     23  C   UNL     1      -1.216   2.646  24.406  0.00  0.00    +0.110 A 
ENDROOT
BRANCH  23  24
ATOM      7  N   UNL     1      -4.448   4.419  23.884  0.00  0.00    -0.263 NA
ATOM     24  C   UNL     1      -2.450   3.336  24.698  0.00  0.00    +0.025 A 
ATOM     26  C   UNL     1      -2.835   3.583  26.008  0.00  0.00    +0.013 A 
ATOM     27  C   UNL     1      -3.281   3.768  23.680  0.00  0.00    +0.121 A 
ATOM     30  C   UNL     1      -4.028   4.250  26.260  0.00  0.00    +0.020 A 
ATOM     31  C   UNL     1      -4.792   4.644  25.173  0.00  0.00    +0.111 A 
ENDBRANCH  23  24
BRANCH  13   2
ATOM      2  O   UNL     1       6.443  -1.105  23.397  0.00  0.00    -0.391 OA
ATOM     37  H   UNL     1       6.857  -1.703  24.042  0.00  0.00    +0.210 HD
ENDBRANCH  13   2
BRANCH  10  18
ATOM     18  C   UNL     1       5.015   0.932  22.029  0.00  0.00    +0.165 C 
BRANCH  18   3
ATOM      3  O   UNL     1       3.849   0.893  21.237  0.00  0.00    -0.394 OA
ATOM     38  H   UNL     1       3.714  -0.023  20.942  0.00  0.00    +0.209 HD
ENDBRANCH  18   3
ENDBRANCH  10  18
BRANCH  11  21
ATOM     21  C   UNL     1      -0.345  -1.343  23.542  0.00  0.00    +0.106 C 
BRANCH  21  22
ATOM      4  O   UNL     1      -1.136  -2.737  25.356  0.00  0.00    -0.276 OA
ATOM      6  N   UNL     1      -2.355  -0.856  24.739  0.00  0.00    -0.309 N 
ATOM     22  C   UNL     1      -1.295  -1.747  24.646  0.00  0.00    +0.214 C 
ATOM     39  H   UNL     1      -2.343  -0.012  24.174  0.00  0.00    +0.149 HD
BRANCH   6  25
ATOM     25  C   UNL     1      -3.421  -0.994  25.706  0.00  0.00    +0.100 C 
ATOM     28  C   UNL     1      -3.949  -2.427  25.703  0.00  0.00    +0.033 C 
BRANCH  25  29
ATOM     29  C   UNL     1      -4.512   0.028  25.475  0.00  0.00    -0.027 A 
ATOM     32  C   UNL     1      -5.214   0.523  26.560  0.00  0.00    +0.005 A 
ATOM     33  C   UNL     1      -4.784   0.447  24.184  0.00  0.00    +0.005 A 
ATOM     34  C   UNL     1      -6.221   1.465  26.348  0.00  0.00    +0.000 A 
ATOM     35  C   UNL     1      -5.790   1.390  23.971  0.00  0.00    +0.000 A 
ATOM     36  C   UNL     1      -6.508   1.899  25.054  0.00  0.00    +0.000 A 
ENDBRANCH  25  29
ENDBRANCH   6  25
ENDBRANCH  21  22
ENDBRANCH  11  21
TORSDOF 8
ENDMDL
MODEL 2
REMARK VINA RESULT:      12.9      3.501      6.512
REMARK  Name = 7156507
REMARK  11 active torsions:
REMARK  status: ('A' for Active; 'I' for Inactive)
REMARK    1  A    between atoms: O_2  and  C_13
REMARK    2  A    between atoms: O_3  and  C_18
REMARK    3  A    between atoms: N_6  and  C_25
REMARK    4  A    between atoms: C_8  and  C_16
REMARK    5  A    between atoms: C_10  and  C_18
REMARK    6  A    between atoms: C_10  and  C_19
REMARK    7  A    between atoms: C_11  and  C_21
REMARK    8  A    between atoms: C_21  and  C_22
REMARK    9  A    between atoms: C_23  and  C_24
REMARK   10  A    between atoms: C_25  and  C_28
REMARK   11  A    between atoms: C_25  and  C_29
REMARK                            x       y       z     vdW  Elec       q    Type
REMARK                         _______ _______ _______ _____ _____    ______ ____
ROOT
ATOM      1  S   UNL     1      -1.097   2.998  27.756  0.00  0.00    -0.072 S 
ATOM      5  N   UNL     1       0.856   2.368  26.181  0.00  0.00    -0.243 NA
ATOM      8  C   UNL     1      -1.703   2.172  23.302  0.00  0.00    -0.020 C 
ATOM      9  C   UNL     1      -2.632   3.291  23.948  0.00  0.00    +0.011 C 
ATOM     10  C   UNL     1      -4.002   3.588  23.224  0.00  0.00    +0.021 C 
ATOM     11  C   UNL     1      -0.233   2.344  23.905  0.00  0.00    +0.053 C 
ATOM     12  C   UNL     1      -1.629   2.383  21.768  0.00  0.00    +0.010 C 
ATOM     13  C   UNL     1      -3.755   3.726  21.695  0.00  0.00    +0.123 C 
ATOM     14  C   UNL     1      -2.764   3.104  25.486  0.00  0.00    +0.049 C 
ATOM     15  C   UNL     1      -2.988   2.549  21.102  0.00  0.00    +0.032 C 
ATOM     16  C   UNL     1      -2.209   0.735  23.582  0.00  0.00    +0.012 C 
ATOM     17  C   UNL     1      -0.277   2.515  25.402  0.00  0.00    +0.056 A 
ATOM     19  C   UNL     1      -4.557   4.951  23.727  0.00  0.00    +0.016 C 
ATOM     20  C   UNL     1      -1.419   2.874  26.089  0.00  0.00    +0.014 A 
ATOM     23  C   UNL     1       0.541   2.592  27.438  0.00  0.00    +0.110 A 
ENDROOT
BRANCH  23  24
ATOM      7  N   UNL     1       1.912   1.822  30.814  0.00  0.00    -0.263 NA
ATOM     24  C   UNL     1       1.463   2.521  28.547  0.00  0.00    +0.025 A 
ATOM     26  C   UNL     1       2.742   3.054  28.446  0.00  0.00    +0.013 A 
ATOM     27  C   UNL     1       1.098   1.921  29.738  0.00  0.00    +0.121 A 
ATOM     30  C   UNL     1       3.608   2.972  29.529  0.00  0.00    +0.020 A 
ATOM     31  C   UNL     1       3.149   2.352  30.681  0.00  0.00    +0.111 A 
ENDBRANCH  23  24
BRANCH  13   2
ATOM      2  O   UNL     1      -4.992   3.866  20.996  0.00  0.00    -0.391 OA
ATOM     37  H   UNL     1      -5.184   4.817  20.924  0.00  0.00    +0.210 HD
ENDBRANCH  13   2
BRANCH  10  18
ATOM     18  C   UNL     1      -5.115   2.556  23.512  0.00  0.00    +0.165 C 
BRANCH  18   3
ATOM      3  O   UNL     1      -5.549   2.748  24.840  0.00  0.00    -0.394 OA
ATOM     38  H   UNL     1      -5.169   3.582  25.164  0.00  0.00    +0.209 HD
ENDBRANCH  18   3
ENDBRANCH  10  18
BRANCH  11  21
ATOM     21  C   UNL     1       0.758   1.247  23.493  0.00  0.00    +0.106 C 
BRANCH  21  22
ATOM      4  O   UNL     1       0.039  -0.987  22.906  0.00  0.00    -0.276 OA
ATOM      6  N   UNL     1      -0.040  -0.304  25.126  0.00  0.00    -0.309 N 
ATOM     22  C   UNL     1       0.219  -0.137  23.774  0.00  0.00    +0.214 C 
ATOM     39  H   UNL     1       0.239   0.424  25.777  0.00  0.00    +0.149 HD
BRANCH   6  25
ATOM     25  C   UNL     1      -0.566  -1.529  25.684  0.00  0.00    +0.100 C 
ATOM     28  C   UNL     1       0.404  -2.681  25.429  0.00  0.00    +0.033 C 
BRANCH  25  29
ATOM     29  C   UNL     1      -1.960  -1.818  25.169  0.00  0.00    -0.027 A 
ATOM     32  C   UNL     1      -2.167  -2.925  24.365  0.00  0.00    +0.005 A 
ATOM     33  C   UNL     1      -2.997  -0.968  25.513  0.00  0.00    +0.005 A 
ATOM     34  C   UNL     1      -3.451  -3.191  23.890  0.00  0.00    +0.000 A 
ATOM     35  C   UNL     1      -4.281  -1.233  25.038  0.00  0.00    +0.000 A 
ATOM     36  C   UNL     1      -4.508  -2.346  24.227  0.00  0.00    +0.000 A 
ENDBRANCH  25  29
ENDBRANCH   6  25
ENDBRANCH  21  22
ENDBRANCH  11  21
TORSDOF 8
ENDMDL
MODEL 3
REMARK VINA RESULT:      13.0      2.730      7.142
REMARK  Name = 7156507
REMARK  11 active torsions:
REMARK  status: ('A' for Active; 'I' for Inactive)
REMARK    1  A    between atoms: O_2  and  C_13
REMARK    2  A    between atoms: O_3  and  C_18
REMARK    3  A    between atoms: N_6  and  C_25
REMARK    4  A    between atoms: C_8  and  C_16
REMARK    5  A    between atoms: C_10  and  C_18
REMARK    6  A    between atoms: C_10  and  C_19
REMARK    7  A    between atoms: C_11  and  C_21
REMARK    8  A    between atoms: C_21  and  C_22
REMARK    9  A    between atoms: C_23  and  C_24
REMARK   10  A    between atoms: C_25  and  C_28
REMARK   11  A    between atoms: C_25  and  C_29
REMARK                            x       y       z     vdW  Elec       q    Type
REMARK                         _______ _______ _______ _____ _____    ______ ____
ROOT
ATOM      1  S   UNL     1       1.742  -1.660  23.427  0.00  0.00    -0.072 S 
ATOM      5  N   UNL     1       1.854   0.878  23.918  0.00  0.00    -0.243 NA
ATOM      8  C   UNL     1      -1.998   0.948  23.741  0.00  0.00    -0.020 C 
ATOM      9  C   UNL     1      -2.128  -0.544  24.279  0.00  0.00    +0.011 C 
ATOM     10  C   UNL     1      -3.577  -1.167  24.317  0.00  0.00    +0.021 C 
ATOM     11  C   UNL     1      -0.573   1.512  24.193  0.00  0.00    +0.053 C 
ATOM     12  C   UNL     1      -3.099   1.828  24.387  0.00  0.00    +0.010 C 
ATOM     13  C   UNL     1      -4.559  -0.141  24.950  0.00  0.00    +0.123 C 
ATOM     14  C   UNL     1      -1.062  -1.477  23.634  0.00  0.00    +0.049 C 
ATOM     15  C   UNL     1      -4.497   1.234  24.294  0.00  0.00    +0.032 C 
ATOM     16  C   UNL     1      -2.125   1.046  22.200  0.00  0.00    +0.012 C 
ATOM     17  C   UNL     1       0.520   0.512  23.912  0.00  0.00    +0.056 A 
ATOM     19  C   UNL     1      -3.565  -2.422  25.234  0.00  0.00    +0.016 C 
ATOM     20  C   UNL     1       0.280  -0.827  23.683  0.00  0.00    +0.014 A 
ATOM     23  C   UNL     1       2.588  -0.184  23.668  0.00  0.00    +0.110 A 
ENDROOT
BRANCH  23  24
ATOM      7  N   UNL     1       6.100  -1.415  23.804  0.00  0.00    -0.263 NA
ATOM     24  C   UNL     1       4.030  -0.193  23.584  0.00  0.00    +0.025 A 
ATOM     26  C   UNL     1       4.729   0.950  23.221  0.00  0.00    +0.013 A 
ATOM     27  C   UNL     1       4.751  -1.340  23.863  0.00  0.00    +0.121 A 
ATOM     30  C   UNL     1       6.116   0.913  23.149  0.00  0.00    +0.020 A 
ATOM     31  C   UNL     1       6.749  -0.283  23.447  0.00  0.00    +0.111 A 
ENDBRANCH  23  24
BRANCH  13   2
ATOM      2  O   UNL     1      -5.902  -0.622  24.882  0.00  0.00    -0.391 OA
ATOM     37  H   UNL     1      -6.388  -0.053  24.261  0.00  0.00    +0.210 HD
ENDBRANCH  13   2
BRANCH  10  18
ATOM     18  C   UNL     1      -4.099  -1.658  22.949  0.00  0.00    +0.165 C 
BRANCH  18   3
ATOM      3  O   UNL     1      -4.728  -2.904  23.149  0.00  0.00    -0.394 OA
ATOM     38  H   UNL     1      -5.583  -2.889  22.686  0.00  0.00    +0.209 HD
ENDBRANCH  18   3
ENDBRANCH  10  18
BRANCH  11  21
ATOM     21  C   UNL     1      -0.226   2.897  23.629  0.00  0.00    +0.106 C 
BRANCH  21  22
ATOM      4  O   UNL     1      -0.527   5.193  24.329  0.00  0.00    -0.276 OA
ATOM      6  N   UNL     1      -1.787   3.515  25.328  0.00  0.00    -0.309 N 
ATOM     22  C   UNL     1      -0.840   4.011  24.444  0.00  0.00    +0.214 C 
ATOM     39  H   UNL     1      -2.047   2.535  25.276  0.00  0.00    +0.149 HD
BRANCH   6  25
ATOM     25  C   UNL     1      -2.534   4.354  26.238  0.00  0.00    +0.100 C 
ATOM     28  C   UNL     1      -2.091   4.093  27.676  0.00  0.00    +0.033 C 
BRANCH  25  29
ATOM     29  C   UNL     1      -4.026   4.184  26.049  0.00  0.00    -0.027 A 
ATOM     32  C   UNL     1      -4.660   3.100  26.628  0.00  0.00    +0.005 A 
ATOM     33  C   UNL     1      -4.723   5.117  25.301  0.00  0.00    +0.005 A 
ATOM     34  C   UNL     1      -6.036   2.942  26.454  0.00  0.00    +0.000 A 
ATOM     35  C   UNL     1      -6.098   4.961  25.127  0.00  0.00    +0.000 A 
ATOM     36  C   UNL     1      -6.754   3.873  25.704  0.00  0.00    +0.000 A 
ENDBRANCH  25  29
ENDBRANCH   6  25
ENDBRANCH  21  22
ENDBRANCH  11  21
TORSDOF 8
ENDMDL
MODEL 4
REMARK VINA RESULT:      14.3      2.874      7.237
REMARK  Name = 7156507
REMARK  11 active torsions:
REMARK  status: ('A' for Active; 'I' for Inactive)
REMARK    1  A    between atoms: O_2  and  C_13
REMARK    2  A    between atoms: O_3  and  C_18
REMARK    3  A    between atoms: N_6  and  C_25
REMARK    4  A    between atoms: C_8  and  C_16
REMARK    5  A    between atoms: C_10  and  C_18
REMARK    6  A    between atoms: C_10  and  C_19
REMARK    7  A    between atoms: C_11  and  C_21
REMARK    8  A    between atoms: C_21  and  C_22
REMARK    9  A    between atoms: C_23  and  C_24
REMARK   10  A    between atoms: C_25  and  C_28
REMARK   11  A    between atoms: C_25  and  C_29
REMARK                            x       y       z     vdW  Elec       q    Type
REMARK                         _______ _______ _______ _____ _____    ______ ____
ROOT
ATOM      1  S   UNL     1       0.676   2.019  25.310  0.00  0.00    -0.072 S 
ATOM      5  N   UNL     1      -0.200   1.271  22.994  0.00  0.00    -0.243 NA
ATOM      8  C   UNL     1      -3.737   2.284  24.151  0.00  0.00    -0.020 C 
ATOM      9  C   UNL     1      -3.182   3.438  25.095  0.00  0.00    +0.011 C 
ATOM     10  C   UNL     1      -4.235   4.196  25.993  0.00  0.00    +0.021 C 
ATOM     11  C   UNL     1      -2.624   1.972  23.048  0.00  0.00    +0.053 C 
ATOM     12  C   UNL     1      -5.016   2.778  23.427  0.00  0.00    +0.010 C 
ATOM     13  C   UNL     1      -5.468   4.577  25.126  0.00  0.00    +0.123 C 
ATOM     14  C   UNL     1      -1.913   2.980  25.870  0.00  0.00    +0.049 C 
ATOM     15  C   UNL     1      -6.051   3.396  24.357  0.00  0.00    +0.032 C 
ATOM     16  C   UNL     1      -4.073   0.984  24.924  0.00  0.00    +0.012 C 
ATOM     17  C   UNL     1      -1.259   1.841  23.676  0.00  0.00    +0.056 A 
ATOM     19  C   UNL     1      -3.605   5.521  26.507  0.00  0.00    +0.016 C 
ATOM     20  C   UNL     1      -0.958   2.317  24.936  0.00  0.00    +0.014 A 
ATOM     23  C   UNL     1       0.868   1.305  23.760  0.00  0.00    +0.110 A 
ENDROOT
BRANCH  23  24
ATOM      7  N   UNL     1       3.640  -1.105  23.146  0.00  0.00    -0.263 NA
ATOM     24  C   UNL     1       2.167   0.792  23.392  0.00  0.00    +0.025 A 
ATOM     26  C   UNL     1       3.168   1.642  22.943  0.00  0.00    +0.013 A 
ATOM     27  C   UNL     1       2.447  -0.561  23.475  0.00  0.00    +0.121 A 
ATOM     30  C   UNL     1       4.408   1.121  22.596  0.00  0.00    +0.020 A 
ATOM     31  C   UNL     1       4.593  -0.248  22.714  0.00  0.00    +0.111 A 
ENDBRANCH  23  24
BRANCH  13   2
ATOM      2  O   UNL     1      -6.496   5.149  25.936  0.00  0.00    -0.391 OA
ATOM     37  H   UNL     1      -7.340   4.749  25.667  0.00  0.00    +0.210 HD
ENDBRANCH  13   2
BRANCH  10  18
ATOM     18  C   UNL     1      -4.669   3.425  27.259  0.00  0.00    +0.165 C 
BRANCH  18   3
ATOM      3  O   UNL     1      -5.864   2.738  26.958  0.00  0.00    -0.394 OA
ATOM     38  H   UNL     1      -5.634   1.936  26.460  0.00  0.00    +0.209 HD
ENDBRANCH  18   3
ENDBRANCH  10  18
BRANCH  11  21
ATOM     21  C   UNL     1      -2.942   0.776  22.141  0.00  0.00    +0.106 C 
BRANCH  21  22
ATOM      4  O   UNL     1      -4.237  -0.968  23.207  0.00  0.00    -0.276 OA
ATOM      6  N   UNL     1      -1.916  -1.048  23.293  0.00  0.00    -0.309 N 
ATOM     22  C   UNL     1      -3.137  -0.498  22.930  0.00  0.00    +0.214 C 
ATOM     39  H   UNL     1      -1.061  -0.639  22.929  0.00  0.00    +0.149 HD
BRANCH   6  25
ATOM     25  C   UNL     1      -1.796  -2.268  24.058  0.00  0.00    +0.100 C 
ATOM     28  C   UNL     1      -2.813  -3.297  23.569  0.00  0.00    +0.033 C 
BRANCH  25  29
ATOM     29  C   UNL     1      -1.908  -2.003  25.544  0.00  0.00    -0.027 A 
ATOM     32  C   UNL     1      -3.064  -2.368  26.211  0.00  0.00    +0.005 A 
ATOM     33  C   UNL     1      -0.851  -1.400  26.205  0.00  0.00    +0.005 A 
ATOM     34  C   UNL     1      -3.168  -2.123  27.580  0.00  0.00    +0.000 A 
ATOM     35  C   UNL     1      -0.953  -1.155  27.573  0.00  0.00    +0.000 A 
ATOM     36  C   UNL     1      -2.112  -1.517  28.261  0.00  0.00    +0.000 A 
ENDBRANCH  25  29
ENDBRANCH   6  25
ENDBRANCH  21  22
ENDBRANCH  11  21
TORSDOF 8
ENDMDL
MODEL 5
REMARK VINA RESULT:      16.0      2.653      6.522
REMARK  Name = 7156507
REMARK  11 active torsions:
REMARK  status: ('A' for Active; 'I' for Inactive)
REMARK    1  A    between atoms: O_2  and  C_13
REMARK    2  A    between atoms: O_3  and  C_18
REMARK    3  A    between atoms: N_6  and  C_25
REMARK    4  A    between atoms: C_8  and  C_16
REMARK    5  A    between atoms: C_10  and  C_18
REMARK    6  A    between atoms: C_10  and  C_19
REMARK    7  A    between atoms: C_11  and  C_21
REMARK    8  A    between atoms: C_21  and  C_22
REMARK    9  A    between atoms: C_23  and  C_24
REMARK   10  A    between atoms: C_25  and  C_28
REMARK   11  A    between atoms: C_25  and  C_29
REMARK                            x       y       z     vdW  Elec       q    Type
REMARK                         _______ _______ _______ _____ _____    ______ ____
ROOT
ATOM      1  S   UNL     1       2.817   1.819  24.738  0.00  0.00    -0.072 S 
ATOM      5  N   UNL     1       1.786   0.137  23.064  0.00  0.00    -0.243 NA
ATOM      8  C   UNL     1      -1.659   1.698  23.818  0.00  0.00    -0.020 C 
ATOM      9  C   UNL     1      -1.033   3.133  24.104  0.00  0.00    +0.011 C 
ATOM     10  C   UNL     1      -2.018   4.255  24.613  0.00  0.00    +0.021 C 
ATOM     11  C   UNL     1      -0.621   0.879  22.920  0.00  0.00    +0.053 C 
ATOM     12  C   UNL     1      -2.976   1.859  23.017  0.00  0.00    +0.010 C 
ATOM     13  C   UNL     1      -3.300   4.249  23.733  0.00  0.00    +0.123 C 
ATOM     14  C   UNL     1       0.279   3.028  24.934  0.00  0.00    +0.049 C 
ATOM     15  C   UNL     1      -3.943   2.871  23.617  0.00  0.00    +0.032 C 
ATOM     16  C   UNL     1      -1.958   0.903  25.113  0.00  0.00    +0.012 C 
ATOM     17  C   UNL     1       0.779   0.994  23.467  0.00  0.00    +0.056 A 
ATOM     19  C   UNL     1      -1.343   5.644  24.435  0.00  0.00    +0.016 C 
ATOM     20  C   UNL     1       1.165   1.977  24.355  0.00  0.00    +0.014 A 
ATOM     23  C   UNL     1       2.902   0.473  23.674  0.00  0.00    +0.110 A 
ENDROOT
BRANCH  23  24
ATOM      7  N   UNL     1       5.459  -2.234  23.680  0.00  0.00    -0.263 NA
ATOM     24  C   UNL     1       4.169  -0.200  23.512  0.00  0.00    +0.025 A 
ATOM     26  C   UNL     1       5.286   0.484  23.051  0.00  0.00    +0.013 A 
ATOM     27  C   UNL     1       4.303  -1.545  23.809  0.00  0.00    +0.121 A 
ATOM     30  C   UNL     1       6.492  -0.190  22.905  0.00  0.00    +0.020 A 
ATOM     31  C   UNL     1       6.527  -1.536  23.230  0.00  0.00    +0.111 A 
ENDBRANCH  23  24
BRANCH  13   2
ATOM      2  O   UNL     1      -4.268   5.165  24.247  0.00  0.00    -0.391 OA
ATOM     37  H   UNL     1      -3.855   6.045  24.275  0.00  0.00    +0.210 HD
ENDBRANCH  13   2
BRANCH  10  18
ATOM     18  C   UNL     1      -2.378   4.158  26.112  0.00  0.00    +0.165 C 
BRANCH  18   3
ATOM      3  O   UNL     1      -3.745   3.822  26.207  0.00  0.00    -0.394 OA
ATOM     38  H   UNL     1      -3.843   3.150  26.902  0.00  0.00    +0.209 HD
ENDBRANCH  18   3
ENDBRANCH  10  18
BRANCH  11  21
ATOM     21  C   UNL     1      -1.009  -0.586  22.674  0.00  0.00    +0.106 C 
BRANCH  21  22
ATOM      4  O   UNL     1      -1.386  -1.704  24.786  0.00  0.00    -0.276 OA
ATOM      6  N   UNL     1      -3.202  -0.945  23.550  0.00  0.00    -0.309 N 
ATOM     22  C   UNL     1      -1.852  -1.145  23.796  0.00  0.00    +0.214 C 
ATOM     39  H   UNL     1      -3.481  -0.382  22.752  0.00  0.00    +0.149 HD
BRANCH   6  25
ATOM     25  C   UNL     1      -4.243  -1.380  24.453  0.00  0.00    +0.100 C 
ATOM     28  C   UNL     1      -5.103  -2.451  23.786  0.00  0.00    +0.033 C 
BRANCH  25  29
ATOM     29  C   UNL     1      -5.061  -0.211  24.960  0.00  0.00    -0.027 A 
ATOM     32  C   UNL     1      -6.041   0.330  24.147  0.00  0.00    +0.005 A 
ATOM     33  C   UNL     1      -4.810   0.291  26.226  0.00  0.00    +0.005 A 
ATOM     34  C   UNL     1      -6.794   1.408  24.613  0.00  0.00    +0.000 A 
ATOM     35  C   UNL     1      -5.563   1.368  26.693  0.00  0.00    +0.000 A 
ATOM     36  C   UNL     1      -6.556   1.926  25.886  0.00  0.00    +0.000 A 
ENDBRANCH  25  29
ENDBRANCH   6  25
ENDBRANCH  21  22
ENDBRANCH  11  21
TORSDOF 8
ENDMDL
