MODEL 1
REMARK VINA RESULT:       2.7      0.000      0.000
REMARK  Name = 40587791
REMARK  7 active torsions:
REMARK  status: ('A' for Active; 'I' for Inactive)
REMARK    1  A    between atoms: N_2  and  C_11
REMARK    2  A    between atoms: N_4  and  C_26
REMARK    3  A    between atoms: N_4  and  C_30
REMARK    4  A    between atoms: N_4  and  C_31
REMARK    5  A    between atoms: C_11  and  C_12
REMARK    6  A    between atoms: C_21  and  C_23
REMARK    7  A    between atoms: C_24  and  C_26
REMARK                            x       y       z     vdW  Elec       q    Type
REMARK                         _______ _______ _______ _____ _____    ______ ____
ROOT
ATOM      1  O   UNL     1       0.603   2.334  25.582  0.00  0.00    -0.267 OA
ATOM      2  N   UNL     1      -4.396   1.949  25.443  0.00  0.00    -0.301 NA
ATOM      3  N   UNL     1      -1.454   2.862  24.617  0.00  0.00    -0.311 N 
ATOM      5  C   UNL     1      -3.279   4.153  25.869  0.00  0.00    +0.024 C 
ATOM      6  C   UNL     1      -3.669   3.426  23.563  0.00  0.00    +0.050 C 
ATOM      7  C   UNL     1      -3.675   4.644  24.482  0.00  0.00    +0.017 C 
ATOM      8  C   UNL     1      -4.284   3.090  26.361  0.00  0.00    +0.089 C 
ATOM      9  C   UNL     1      -4.696   2.389  24.072  0.00  0.00    +0.094 C 
ATOM     10  C   UNL     1      -1.840   3.623  25.813  0.00  0.00    +0.130 C 
ATOM     13  C   UNL     1      -2.284   2.809  23.495  0.00  0.00    +0.026 A 
ATOM     19  C   UNL     1      -1.864   2.203  22.374  0.00  0.00    +0.022 A 
ATOM     20  C   UNL     1      -0.170   2.279  24.624  0.00  0.00    +0.259 A 
ATOM     21  C   UNL     1       0.259   1.576  23.365  0.00  0.00    +0.047 A 
ATOM     22  C   UNL     1      -0.575   1.573  22.314  0.00  0.00    +0.015 A 
ENDROOT
BRANCH  21  23
ATOM     23  C   UNL     1       1.562   0.894  23.277  0.00  0.00    -0.008 A 
ATOM     24  C   UNL     1       1.679  -0.479  23.493  0.00  0.00    -0.026 A 
ATOM     25  C   UNL     1       2.694   1.651  22.971  0.00  0.00    +0.009 A 
ATOM     27  C   UNL     1       2.927  -1.096  23.402  0.00  0.00    +0.005 A 
ATOM     28  C   UNL     1       3.942   1.034  22.881  0.00  0.00    +0.001 A 
ATOM     29  C   UNL     1       4.058  -0.339  23.097  0.00  0.00    +0.000 A 
BRANCH  24  26
ATOM     26  C   UNL     1       0.489  -1.321  23.822  0.00  0.00    +0.119 C 
BRANCH  26   4
ATOM      4  N   UNL     1       0.334  -1.522  25.263  0.00  0.00    -0.304 NA
ATOM     30  C   UNL     1       0.145  -2.941  25.564  0.00  0.00    +0.104 C 
ATOM     31  C   UNL     1      -0.791  -0.737  25.771  0.00  0.00    +0.104 C 
ENDBRANCH  26   4
ENDBRANCH  24  26
ENDBRANCH  21  23
BRANCH   2  11
ATOM     11  C   UNL     1      -5.394   0.993  25.916  0.00  0.00    +0.088 C 
BRANCH  11  12
ATOM     12  C   UNL     1      -5.034  -0.432  25.497  0.00  0.00    +0.003 C 
ATOM     14  C   UNL     1      -4.773  -0.504  23.986  0.00  0.00    +0.005 C 
ATOM     15  C   UNL     1      -3.819  -0.938  26.286  0.00  0.00    +0.005 C 
ATOM     16  C   UNL     1      -4.359  -1.908  23.552  0.00  0.00    +0.000 C 
ATOM     17  C   UNL     1      -3.406  -2.342  25.848  0.00  0.00    +0.000 C 
ATOM     18  C   UNL     1      -3.157  -2.410  24.345  0.00  0.00    +0.000 C 
ENDBRANCH  11  12
ENDBRANCH   2  11
TORSDOF 5
ENDMDL
MODEL 2
REMARK VINA RESULT:       4.2      1.752      7.251
REMARK  Name = 40587791
REMARK  7 active torsions:
REMARK  status: ('A' for Active; 'I' for Inactive)
REMARK    1  A    between atoms: N_2  and  C_11
REMARK    2  A    between atoms: N_4  and  C_26
REMARK    3  A    between atoms: N_4  and  C_30
REMARK    4  A    between atoms: N_4  and  C_31
REMARK    5  A    between atoms: C_11  and  C_12
REMARK    6  A    between atoms: C_21  and  C_23
REMARK    7  A    between atoms: C_24  and  C_26
REMARK                            x       y       z     vdW  Elec       q    Type
REMARK                         _______ _______ _______ _____ _____    ______ ____
ROOT
ATOM      1  O   UNL     1      -2.425   1.756  26.586  0.00  0.00    -0.267 OA
ATOM      2  N   UNL     1       0.419  -0.916  23.435  0.00  0.00    -0.301 NA
ATOM      3  N   UNL     1      -2.071  -0.138  25.270  0.00  0.00    -0.311 N 
ATOM      5  C   UNL     1      -0.164  -1.791  25.711  0.00  0.00    +0.024 C 
ATOM      6  C   UNL     1      -1.699  -2.177  23.842  0.00  0.00    +0.050 C 
ATOM      7  C   UNL     1      -1.108  -2.816  25.096  0.00  0.00    +0.017 C 
ATOM      8  C   UNL     1       0.949  -1.428  24.705  0.00  0.00    +0.089 C 
ATOM      9  C   UNL     1      -0.562  -1.841  22.849  0.00  0.00    +0.094 C 
ATOM     10  C   UNL     1      -0.980  -0.570  26.154  0.00  0.00    +0.130 C 
ATOM     13  C   UNL     1      -2.482  -0.925  24.193  0.00  0.00    +0.026 A 
ATOM     19  C   UNL     1      -3.553  -0.567  23.466  0.00  0.00    +0.022 A 
ATOM     20  C   UNL     1      -2.739   1.052  25.623  0.00  0.00    +0.259 A 
ATOM     21  C   UNL     1      -3.913   1.447  24.768  0.00  0.00    +0.047 A 
ATOM     22  C   UNL     1      -4.271   0.640  23.758  0.00  0.00    +0.015 A 
ENDROOT
BRANCH  21  23
ATOM     23  C   UNL     1      -4.657   2.693  25.020  0.00  0.00    -0.008 A 
ATOM     24  C   UNL     1      -4.165   3.929  24.600  0.00  0.00    -0.026 A 
ATOM     25  C   UNL     1      -5.875   2.620  25.695  0.00  0.00    +0.009 A 
ATOM     27  C   UNL     1      -4.893   5.092  24.853  0.00  0.00    +0.005 A 
ATOM     28  C   UNL     1      -6.603   3.782  25.949  0.00  0.00    +0.001 A 
ATOM     29  C   UNL     1      -6.112   5.019  25.528  0.00  0.00    +0.000 A 
BRANCH  24  26
ATOM     26  C   UNL     1      -2.864   4.045  23.874  0.00  0.00    +0.119 C 
BRANCH  26   4
ATOM      4  N   UNL     1      -1.725   4.124  24.789  0.00  0.00    -0.304 NA
ATOM     30  C   UNL     1      -1.356   5.519  25.027  0.00  0.00    +0.104 C 
ATOM     31  C   UNL     1      -0.587   3.378  24.254  0.00  0.00    +0.104 C 
ENDBRANCH  26   4
ENDBRANCH  24  26
ENDBRANCH  21  23
BRANCH   2  11
ATOM     11  C   UNL     1       1.499  -0.634  22.492  0.00  0.00    +0.088 C 
BRANCH  11  12
ATOM     12  C   UNL     1       2.786  -0.254  23.225  0.00  0.00    +0.003 C 
ATOM     14  C   UNL     1       3.682  -1.485  23.421  0.00  0.00    +0.005 C 
ATOM     15  C   UNL     1       3.533   0.852  22.468  0.00  0.00    +0.005 C 
ATOM     16  C   UNL     1       4.998  -1.120  24.104  0.00  0.00    +0.000 C 
ATOM     17  C   UNL     1       4.850   1.213  23.153  0.00  0.00    +0.000 C 
ATOM     18  C   UNL     1       5.734  -0.014  23.354  0.00  0.00    +0.000 C 
ENDBRANCH  11  12
ENDBRANCH   2  11
TORSDOF 5
ENDMDL
MODEL 3
REMARK VINA RESULT:       6.2      1.480      4.524
REMARK  Name = 40587791
REMARK  7 active torsions:
REMARK  status: ('A' for Active; 'I' for Inactive)
REMARK    1  A    between atoms: N_2  and  C_11
REMARK    2  A    between atoms: N_4  and  C_26
REMARK    3  A    between atoms: N_4  and  C_30
REMARK    4  A    between atoms: N_4  and  C_31
REMARK    5  A    between atoms: C_11  and  C_12
REMARK    6  A    between atoms: C_21  and  C_23
REMARK    7  A    between atoms: C_24  and  C_26
REMARK                            x       y       z     vdW  Elec       q    Type
REMARK                         _______ _______ _______ _____ _____    ______ ____
ROOT
ATOM      1  O   UNL     1      -0.495  -0.526  22.054  0.00  0.00    -0.267 OA
ATOM      2  N   UNL     1      -4.347  -0.385  25.263  0.00  0.00    -0.301 NA
ATOM      3  N   UNL     1      -1.748  -1.480  23.775  0.00  0.00    -0.311 N 
ATOM      5  C   UNL     1      -4.204  -2.151  23.490  0.00  0.00    +0.024 C 
ATOM      6  C   UNL     1      -3.088  -2.510  25.640  0.00  0.00    +0.050 C 
ATOM      7  C   UNL     1      -3.884  -3.207  24.540  0.00  0.00    +0.017 C 
ATOM      8  C   UNL     1      -5.029  -1.010  24.123  0.00  0.00    +0.089 C 
ATOM      9  C   UNL     1      -3.946  -1.384  26.264  0.00  0.00    +0.094 C 
ATOM     10  C   UNL     1      -2.892  -1.657  22.869  0.00  0.00    +0.130 C 
ATOM     13  C   UNL     1      -1.791  -1.944  25.091  0.00  0.00    +0.026 A 
ATOM     19  C   UNL     1      -0.698  -1.874  25.867  0.00  0.00    +0.022 A 
ATOM     20  C   UNL     1      -0.582  -0.915  23.220  0.00  0.00    +0.259 A 
ATOM     21  C   UNL     1       0.617  -0.817  24.124  0.00  0.00    +0.047 A 
ATOM     22  C   UNL     1       0.520  -1.295  25.374  0.00  0.00    +0.015 A 
ENDROOT
BRANCH  21  23
ATOM     23  C   UNL     1       1.875  -0.204  23.662  0.00  0.00    -0.008 A 
ATOM     24  C   UNL     1       1.942   1.148  23.326  0.00  0.00    -0.026 A 
ATOM     25  C   UNL     1       3.012  -1.006  23.563  0.00  0.00    +0.009 A 
ATOM     27  C   UNL     1       3.148   1.700  22.892  0.00  0.00    +0.005 A 
ATOM     28  C   UNL     1       4.218  -0.454  23.129  0.00  0.00    +0.001 A 
ATOM     29  C   UNL     1       4.285   0.898  22.793  0.00  0.00    +0.000 A 
BRANCH  24  26
ATOM     26  C   UNL     1       0.744   2.036  23.421  0.00  0.00    +0.119 C 
BRANCH  26   4
ATOM      4  N   UNL     1       0.621   2.662  24.737  0.00  0.00    -0.304 NA
ATOM     30  C   UNL     1      -0.208   1.840  25.619  0.00  0.00    +0.104 C 
ATOM     31  C   UNL     1       0.059   4.007  24.614  0.00  0.00    +0.104 C 
ENDBRANCH  26   4
ENDBRANCH  24  26
ENDBRANCH  21  23
BRANCH   2  11
ATOM     11  C   UNL     1      -5.180   0.653  25.866  0.00  0.00    +0.088 C 
BRANCH  11  12
ATOM     12  C   UNL     1      -5.070   1.967  25.093  0.00  0.00    +0.003 C 
ATOM     14  C   UNL     1      -5.069   3.163  26.054  0.00  0.00    +0.005 C 
ATOM     15  C   UNL     1      -3.813   1.972  24.212  0.00  0.00    +0.005 C 
ATOM     16  C   UNL     1      -4.906   4.485  25.308  0.00  0.00    +0.000 C 
ATOM     17  C   UNL     1      -3.652   3.297  23.469  0.00  0.00    +0.000 C 
ATOM     18  C   UNL     1      -3.661   4.484  24.427  0.00  0.00    +0.000 C 
ENDBRANCH  11  12
ENDBRANCH   2  11
TORSDOF 5
ENDMDL
