MODEL 1
REMARK VINA RESULT:      -4.9      0.000      0.000
REMARK  Name = 75537115
REMARK  5 active torsions:
REMARK  status: ('A' for Active; 'I' for Inactive)
REMARK    1  A    between atoms: O_2  and  C_18
REMARK    2  A    between atoms: O_2  and  C_20
REMARK    3  A    between atoms: N_4  and  C_13
REMARK    4  A    between atoms: N_5  and  C_14
REMARK    5  A    between atoms: C_13  and  C_15
REMARK                            x       y       z     vdW  Elec       q    Type
REMARK                         _______ _______ _______ _____ _____    ______ ____
ROOT
ATOM      1  O   UNL     1      -0.046   4.360  23.123  0.00  0.00    -0.252 OA
ATOM      3  N   UNL     1      -0.007   2.443  24.481  0.00  0.00    -0.278 N 
ATOM      4  N   UNL     1      -0.135  -0.276  25.188  0.00  0.00    -0.293 NA
ATOM      5  N   UNL     1      -1.143   4.240  25.208  0.00  0.00    -0.287 N 
ATOM      7  C   UNL     1      -0.442   2.084  25.814  0.00  0.00    +0.109 C 
ATOM      8  C   UNL     1      -1.063   0.687  25.814  0.00  0.00    +0.109 C 
ATOM      9  C   UNL     1      -1.397   3.211  26.201  0.00  0.00    +0.132 C 
ATOM     10  C   UNL     1       0.786   1.504  23.716  0.00  0.00    +0.125 C 
ATOM     11  C   UNL     1       0.161   0.109  23.792  0.00  0.00    +0.104 C 
ATOM     12  C   UNL     1      -0.355   3.758  24.142  0.00  0.00    +0.305 C 
ATOM     14  C   UNL     1      -1.773   5.541  25.272  0.00  0.00    +0.133 C 
ENDROOT
BRANCH   4  13
ATOM     13  C   UNL     1      -0.693  -1.627  25.236  0.00  0.00    +0.140 C 
BRANCH  13  15
ATOM      6  N   UNL     1      -2.816  -0.499  24.860  0.00  0.00    -0.217 NA
ATOM     15  C   UNL     1      -2.126  -1.658  24.774  0.00  0.00    +0.059 A 
ATOM     16  C   UNL     1      -2.657  -2.843  24.291  0.00  0.00    +0.025 A 
ATOM     17  C   UNL     1      -3.983  -2.837  23.869  0.00  0.00    +0.007 A 
ATOM     18  C   UNL     1      -4.101  -0.532  24.442  0.00  0.00    +0.215 A 
ATOM     19  C   UNL     1      -4.725  -1.664  23.943  0.00  0.00    +0.067 A 
BRANCH  18   2
ATOM      2  O   UNL     1      -4.810   0.637  24.523  0.00  0.00    -0.480 OA
ATOM     20  C   UNL     1      -4.093   1.841  24.273  0.00  0.00    +0.279 C 
ENDBRANCH  18   2
ENDBRANCH  13  15
ENDBRANCH   4  13
TORSDOF 3
ENDMDL
MODEL 2
REMARK VINA RESULT:      -4.8      2.748      5.556
REMARK  Name = 75537115
REMARK  5 active torsions:
REMARK  status: ('A' for Active; 'I' for Inactive)
REMARK    1  A    between atoms: O_2  and  C_18
REMARK    2  A    between atoms: O_2  and  C_20
REMARK    3  A    between atoms: N_4  and  C_13
REMARK    4  A    between atoms: N_5  and  C_14
REMARK    5  A    between atoms: C_13  and  C_15
REMARK                            x       y       z     vdW  Elec       q    Type
REMARK                         _______ _______ _______ _____ _____    ______ ____
ROOT
ATOM      1  O   UNL     1      -5.908   1.499  25.810  0.00  0.00    -0.252 OA
ATOM      3  N   UNL     1      -3.806   1.836  24.816  0.00  0.00    -0.278 N 
ATOM      4  N   UNL     1      -1.039   1.585  24.377  0.00  0.00    -0.293 NA
ATOM      5  N   UNL     1      -5.116   3.626  25.167  0.00  0.00    -0.287 N 
ATOM      7  C   UNL     1      -3.089   2.936  24.206  0.00  0.00    +0.109 C 
ATOM      8  C   UNL     1      -1.622   2.918  24.634  0.00  0.00    +0.109 C 
ATOM      9  C   UNL     1      -3.872   4.170  24.651  0.00  0.00    +0.132 C 
ATOM     10  C   UNL     1      -3.245   0.502  24.753  0.00  0.00    +0.125 C 
ATOM     11  C   UNL     1      -1.763   0.540  25.130  0.00  0.00    +0.104 C 
ATOM     12  C   UNL     1      -5.053   2.226  25.322  0.00  0.00    +0.305 C 
ATOM     14  C   UNL     1      -6.203   4.477  25.601  0.00  0.00    +0.133 C 
ENDROOT
BRANCH   4  13
ATOM     13  C   UNL     1       0.381   1.574  24.727  0.00  0.00    +0.140 C 
BRANCH  13  15
ATOM      6  N   UNL     1       2.543   1.210  23.673  0.00  0.00    -0.217 NA
ATOM     15  C   UNL     1       1.219   0.938  23.650  0.00  0.00    +0.059 A 
ATOM     16  C   UNL     1       0.611   0.121  22.711  0.00  0.00    +0.025 A 
ATOM     17  C   UNL     1       1.414  -0.454  21.730  0.00  0.00    +0.007 A 
ATOM     18  C   UNL     1       3.291   0.634  22.705  0.00  0.00    +0.215 A 
ATOM     19  C   UNL     1       2.780  -0.197  21.721  0.00  0.00    +0.067 A 
BRANCH  18   2
ATOM      2  O   UNL     1       4.635   0.902  22.718  0.00  0.00    -0.480 OA
ATOM     20  C   UNL     1       5.436   0.114  23.591  0.00  0.00    +0.279 C 
ENDBRANCH  18   2
ENDBRANCH  13  15
ENDBRANCH   4  13
TORSDOF 3
ENDMDL
MODEL 3
REMARK VINA RESULT:      -4.3      2.083      3.684
REMARK  Name = 75537115
REMARK  5 active torsions:
REMARK  status: ('A' for Active; 'I' for Inactive)
REMARK    1  A    between atoms: O_2  and  C_18
REMARK    2  A    between atoms: O_2  and  C_20
REMARK    3  A    between atoms: N_4  and  C_13
REMARK    4  A    between atoms: N_5  and  C_14
REMARK    5  A    between atoms: C_13  and  C_15
REMARK                            x       y       z     vdW  Elec       q    Type
REMARK                         _______ _______ _______ _____ _____    ______ ____
ROOT
ATOM      1  O   UNL     1      -3.189   5.008  26.704  0.00  0.00    -0.252 OA
ATOM      3  N   UNL     1      -3.885   3.329  25.216  0.00  0.00    -0.278 N 
ATOM      4  N   UNL     1      -4.949   0.880  24.333  0.00  0.00    -0.293 NA
ATOM      5  N   UNL     1      -1.910   4.332  24.841  0.00  0.00    -0.287 N 
ATOM      7  C   UNL     1      -3.431   2.780  23.955  0.00  0.00    +0.109 C 
ATOM      8  C   UNL     1      -3.572   1.258  23.955  0.00  0.00    +0.109 C 
ATOM      9  C   UNL     1      -1.998   3.292  23.830  0.00  0.00    +0.132 C 
ATOM     10  C   UNL     1      -5.161   2.908  25.755  0.00  0.00    +0.125 C 
ATOM     11  C   UNL     1      -5.283   1.384  25.681  0.00  0.00    +0.104 C 
ATOM     12  C   UNL     1      -3.019   4.314  25.711  0.00  0.00    +0.305 C 
ATOM     14  C   UNL     1      -0.733   5.161  24.989  0.00  0.00    +0.133 C 
ENDROOT
BRANCH   4  13
ATOM     13  C   UNL     1      -5.110  -0.573  24.278  0.00  0.00    +0.140 C 
BRANCH  13  15
ATOM      6  N   UNL     1      -2.698  -0.517  24.586  0.00  0.00    -0.217 NA
ATOM     15  C   UNL     1      -3.792  -1.289  24.399  0.00  0.00    +0.059 A 
ATOM     16  C   UNL     1      -3.761  -2.671  24.318  0.00  0.00    +0.025 A 
ATOM     17  C   UNL     1      -2.527  -3.303  24.436  0.00  0.00    +0.007 A 
ATOM     18  C   UNL     1      -1.517  -1.165  24.697  0.00  0.00    +0.215 A 
ATOM     19  C   UNL     1      -1.379  -2.543  24.630  0.00  0.00    +0.067 A 
BRANCH  18   2
ATOM      2  O   UNL     1      -0.401  -0.394  24.887  0.00  0.00    -0.480 OA
ATOM     20  C   UNL     1       0.140   0.246  23.737  0.00  0.00    +0.279 C 
ENDBRANCH  18   2
ENDBRANCH  13  15
ENDBRANCH   4  13
TORSDOF 3
ENDMDL
MODEL 4
REMARK VINA RESULT:      -4.1      1.876      5.756
REMARK  Name = 75537115
REMARK  5 active torsions:
REMARK  status: ('A' for Active; 'I' for Inactive)
REMARK    1  A    between atoms: O_2  and  C_18
REMARK    2  A    between atoms: O_2  and  C_20
REMARK    3  A    between atoms: N_4  and  C_13
REMARK    4  A    between atoms: N_5  and  C_14
REMARK    5  A    between atoms: C_13  and  C_15
REMARK                            x       y       z     vdW  Elec       q    Type
REMARK                         _______ _______ _______ _____ _____    ______ ____
ROOT
ATOM      1  O   UNL     1      -1.713  -3.399  23.559  0.00  0.00    -0.252 OA
ATOM      3  N   UNL     1      -2.854  -1.668  24.665  0.00  0.00    -0.278 N 
ATOM      4  N   UNL     1      -4.439   0.630  25.012  0.00  0.00    -0.293 NA
ATOM      5  N   UNL     1      -0.775  -2.177  25.346  0.00  0.00    -0.287 N 
ATOM      7  C   UNL     1      -2.639  -0.836  25.830  0.00  0.00    +0.109 C 
ATOM      8  C   UNL     1      -3.060   0.605  25.541  0.00  0.00    +0.109 C 
ATOM      9  C   UNL     1      -1.155  -1.022  26.140  0.00  0.00    +0.132 C 
ATOM     10  C   UNL     1      -4.127  -1.609  23.976  0.00  0.00    +0.125 C 
ATOM     11  C   UNL     1      -4.537  -0.151  23.761  0.00  0.00    +0.104 C 
ATOM     12  C   UNL     1      -1.776  -2.528  24.417  0.00  0.00    +0.305 C 
ATOM     14  C   UNL     1       0.545  -2.765  25.429  0.00  0.00    +0.133 C 
ENDROOT
BRANCH   4  13
ATOM     13  C   UNL     1      -4.873   2.008  24.788  0.00  0.00    +0.140 C 
BRANCH  13  15
ATOM      6  N   UNL     1      -2.575   2.700  24.387  0.00  0.00    -0.217 NA
ATOM     15  C   UNL     1      -3.749   2.990  24.990  0.00  0.00    +0.059 A 
ATOM     16  C   UNL     1      -3.966   4.118  25.764  0.00  0.00    +0.025 A 
ATOM     17  C   UNL     1      -2.908   5.007  25.930  0.00  0.00    +0.007 A 
ATOM     18  C   UNL     1      -1.570   3.586  24.570  0.00  0.00    +0.215 A 
ATOM     19  C   UNL     1      -1.685   4.743  25.324  0.00  0.00    +0.067 A 
BRANCH  18   2
ATOM      2  O   UNL     1      -0.375   3.304  23.963  0.00  0.00    -0.480 OA
ATOM     20  C   UNL     1       0.226   2.054  24.283  0.00  0.00    +0.279 C 
ENDBRANCH  18   2
ENDBRANCH  13  15
ENDBRANCH   4  13
TORSDOF 3
ENDMDL
MODEL 5
REMARK VINA RESULT:      -3.5      2.182      5.285
REMARK  Name = 75537115
REMARK  5 active torsions:
REMARK  status: ('A' for Active; 'I' for Inactive)
REMARK    1  A    between atoms: O_2  and  C_18
REMARK    2  A    between atoms: O_2  and  C_20
REMARK    3  A    between atoms: N_4  and  C_13
REMARK    4  A    between atoms: N_5  and  C_14
REMARK    5  A    between atoms: C_13  and  C_15
REMARK                            x       y       z     vdW  Elec       q    Type
REMARK                         _______ _______ _______ _____ _____    ______ ____
ROOT
ATOM      1  O   UNL     1      -0.653  -2.811  25.302  0.00  0.00    -0.252 OA
ATOM      3  N   UNL     1      -1.197  -0.862  24.108  0.00  0.00    -0.278 N 
ATOM      4  N   UNL     1      -1.219   1.858  23.393  0.00  0.00    -0.293 NA
ATOM      5  N   UNL     1      -2.850  -2.297  24.614  0.00  0.00    -0.287 N 
ATOM      7  C   UNL     1      -2.365  -0.319  23.446  0.00  0.00    +0.109 C 
ATOM      8  C   UNL     1      -2.487   1.178  23.725  0.00  0.00    +0.109 C 
ATOM      9  C   UNL     1      -3.514  -1.169  23.983  0.00  0.00    +0.132 C 
ATOM     10  C   UNL     1       0.076  -0.184  23.971  0.00  0.00    +0.125 C 
ATOM     11  C   UNL     1      -0.105   1.318  24.199  0.00  0.00    +0.104 C 
ATOM     12  C   UNL     1      -1.462  -2.083  24.742  0.00  0.00    +0.305 C 
ATOM     14  C   UNL     1      -3.588  -3.412  25.165  0.00  0.00    +0.133 C 
ENDROOT
BRANCH   4  13
ATOM     13  C   UNL     1      -1.345   3.300  23.599  0.00  0.00    +0.140 C 
BRANCH  13  15
ATOM      6  N   UNL     1      -3.634   3.253  24.421  0.00  0.00    -0.217 NA
ATOM     15  C   UNL     1      -2.358   3.628  24.663  0.00  0.00    +0.059 A 
ATOM     16  C   UNL     1      -1.947   4.281  25.814  0.00  0.00    +0.025 A 
ATOM     17  C   UNL     1      -2.907   4.567  26.779  0.00  0.00    +0.007 A 
ATOM     18  C   UNL     1      -4.539   3.548  25.381  0.00  0.00    +0.215 A 
ATOM     19  C   UNL     1      -4.230   4.197  26.566  0.00  0.00    +0.067 A 
BRANCH  18   2
ATOM      2  O   UNL     1      -5.836   3.172  25.148  0.00  0.00    -0.480 OA
ATOM     20  C   UNL     1      -6.099   1.774  25.103  0.00  0.00    +0.279 C 
ENDBRANCH  18   2
ENDBRANCH  13  15
ENDBRANCH   4  13
TORSDOF 3
ENDMDL
MODEL 6
REMARK VINA RESULT:      -3.3      2.355      4.332
REMARK  Name = 75537115
REMARK  5 active torsions:
REMARK  status: ('A' for Active; 'I' for Inactive)
REMARK    1  A    between atoms: O_2  and  C_18
REMARK    2  A    between atoms: O_2  and  C_20
REMARK    3  A    between atoms: N_4  and  C_13
REMARK    4  A    between atoms: N_5  and  C_14
REMARK    5  A    between atoms: C_13  and  C_15
REMARK                            x       y       z     vdW  Elec       q    Type
REMARK                         _______ _______ _______ _____ _____    ______ ____
ROOT
ATOM      1  O   UNL     1       2.141  -1.372  23.224  0.00  0.00    -0.252 OA
ATOM      3  N   UNL     1       0.207  -0.455  24.193  0.00  0.00    -0.278 N 
ATOM      4  N   UNL     1      -2.524  -0.081  24.753  0.00  0.00    -0.293 NA
ATOM      5  N   UNL     1       1.797   0.950  23.457  0.00  0.00    -0.287 N 
ATOM      7  C   UNL     1      -0.254   0.857  24.594  0.00  0.00    +0.109 C 
ATOM      8  C   UNL     1      -1.725   1.042  24.221  0.00  0.00    +0.109 C 
ATOM      9  C   UNL     1       0.710   1.811  23.892  0.00  0.00    +0.132 C 
ATOM     10  C   UNL     1      -0.584  -1.620  24.534  0.00  0.00    +0.125 C 
ATOM     11  C   UNL     1      -2.056  -1.369  24.200  0.00  0.00    +0.104 C 
ATOM     12  C   UNL     1       1.468  -0.415  23.583  0.00  0.00    +0.305 C 
ATOM     14  C   UNL     1       2.991   1.478  22.833  0.00  0.00    +0.133 C 
ENDROOT
BRANCH   4  13
ATOM     13  C   UNL     1      -3.942   0.117  24.454  0.00  0.00    +0.140 C 
BRANCH  13  15
ATOM      6  N   UNL     1      -3.493   2.350  25.308  0.00  0.00    -0.217 NA
ATOM     15  C   UNL     1      -4.435   1.455  24.934  0.00  0.00    +0.059 A 
ATOM     16  C   UNL     1      -5.798   1.704  24.968  0.00  0.00    +0.025 A 
ATOM     17  C   UNL     1      -6.221   2.952  25.415  0.00  0.00    +0.007 A 
ATOM     18  C   UNL     1      -3.942   3.551  25.736  0.00  0.00    +0.215 A 
ATOM     19  C   UNL     1      -5.281   3.898  25.808  0.00  0.00    +0.067 A 
BRANCH  18   2
ATOM      2  O   UNL     1      -2.997   4.467  26.117  0.00  0.00    -0.480 OA
ATOM     20  C   UNL     1      -1.840   4.574  25.294  0.00  0.00    +0.279 C 
ENDBRANCH  18   2
ENDBRANCH  13  15
ENDBRANCH   4  13
TORSDOF 3
ENDMDL
MODEL 7
REMARK VINA RESULT:      -3.1      2.064      4.732
REMARK  Name = 75537115
REMARK  5 active torsions:
REMARK  status: ('A' for Active; 'I' for Inactive)
REMARK    1  A    between atoms: O_2  and  C_18
REMARK    2  A    between atoms: O_2  and  C_20
REMARK    3  A    between atoms: N_4  and  C_13
REMARK    4  A    between atoms: N_5  and  C_14
REMARK    5  A    between atoms: C_13  and  C_15
REMARK                            x       y       z     vdW  Elec       q    Type
REMARK                         _______ _______ _______ _____ _____    ______ ____
ROOT
ATOM      1  O   UNL     1      -6.203   2.214  26.696  0.00  0.00    -0.252 OA
ATOM      3  N   UNL     1      -4.785   1.062  25.219  0.00  0.00    -0.278 N 
ATOM      4  N   UNL     1      -2.811  -0.742  24.345  0.00  0.00    -0.293 NA
ATOM      5  N   UNL     1      -5.014   3.281  24.961  0.00  0.00    -0.287 N 
ATOM      7  C   UNL     1      -4.038   1.367  24.017  0.00  0.00    +0.109 C 
ATOM      8  C   UNL     1      -2.663   0.700  24.060  0.00  0.00    +0.109 C 
ATOM      9  C   UNL     1      -4.011   2.893  23.984  0.00  0.00    +0.132 C 
ATOM     10  C   UNL     1      -4.868  -0.311  25.674  0.00  0.00    +0.125 C 
ATOM     11  C   UNL     1      -3.481  -0.956  25.645  0.00  0.00    +0.104 C 
ATOM     12  C   UNL     1      -5.435   2.187  25.744  0.00  0.00    +0.305 C 
ATOM     14  C   UNL     1      -5.388   4.663  25.169  0.00  0.00    +0.133 C 
ENDROOT
BRANCH   4  13
ATOM     13  C   UNL     1      -1.506  -1.400  24.329  0.00  0.00    +0.140 C 
BRANCH  13  15
ATOM      6  N   UNL     1      -0.407   0.713  24.823  0.00  0.00    -0.217 NA
ATOM     15  C   UNL     1      -0.387  -0.422  24.089  0.00  0.00    +0.059 A 
ATOM     16  C   UNL     1       0.588  -0.723  23.153  0.00  0.00    +0.025 A 
ATOM     17  C   UNL     1       1.610   0.201  22.956  0.00  0.00    +0.007 A 
ATOM     18  C   UNL     1       0.601   1.587  24.605  0.00  0.00    +0.215 A 
ATOM     19  C   UNL     1       1.624   1.380  23.693  0.00  0.00    +0.067 A 
BRANCH  18   2
ATOM      2  O   UNL     1       0.593   2.741  25.344  0.00  0.00    -0.480 OA
ATOM     20  C   UNL     1       0.253   2.619  26.720  0.00  0.00    +0.279 C 
ENDBRANCH  18   2
ENDBRANCH  13  15
ENDBRANCH   4  13
TORSDOF 3
ENDMDL
MODEL 8
REMARK VINA RESULT:      -2.8      2.397      4.470
REMARK  Name = 75537115
REMARK  5 active torsions:
REMARK  status: ('A' for Active; 'I' for Inactive)
REMARK    1  A    between atoms: O_2  and  C_18
REMARK    2  A    between atoms: O_2  and  C_20
REMARK    3  A    between atoms: N_4  and  C_13
REMARK    4  A    between atoms: N_5  and  C_14
REMARK    5  A    between atoms: C_13  and  C_15
REMARK                            x       y       z     vdW  Elec       q    Type
REMARK                         _______ _______ _______ _____ _____    ______ ____
ROOT
ATOM      1  O   UNL     1       1.468  -0.778  21.144  0.00  0.00    -0.252 OA
ATOM      3  N   UNL     1       0.662   0.365  23.032  0.00  0.00    -0.278 N 
ATOM      4  N   UNL     1      -1.033   1.965  24.606  0.00  0.00    -0.293 NA
ATOM      5  N   UNL     1       2.852   0.512  22.553  0.00  0.00    -0.287 N 
ATOM      7  C   UNL     1       1.226   1.108  24.138  0.00  0.00    +0.109 C 
ATOM      8  C   UNL     1       0.383   2.348  24.432  0.00  0.00    +0.109 C 
ATOM      9  C   UNL     1       2.657   1.397  23.689  0.00  0.00    +0.132 C 
ATOM     10  C   UNL     1      -0.755   0.063  23.028  0.00  0.00    +0.125 C 
ATOM     11  C   UNL     1      -1.557   1.317  23.385  0.00  0.00    +0.104 C 
ATOM     12  C   UNL     1       1.638  -0.062  22.121  0.00  0.00    +0.305 C 
ATOM     14  C   UNL     1       4.130   0.390  21.886  0.00  0.00    +0.133 C 
ENDROOT
BRANCH   4  13
ATOM     13  C   UNL     1      -1.840   3.136  24.947  0.00  0.00    +0.140 C 
BRANCH  13  15
ATOM      6  N   UNL     1      -3.643   1.507  24.842  0.00  0.00    -0.217 NA
ATOM     15  C   UNL     1      -3.298   2.790  25.092  0.00  0.00    +0.059 A 
ATOM     16  C   UNL     1      -4.195   3.776  25.467  0.00  0.00    +0.025 A 
ATOM     17  C   UNL     1      -5.535   3.423  25.594  0.00  0.00    +0.007 A 
ATOM     18  C   UNL     1      -4.954   1.201  24.975  0.00  0.00    +0.215 A 
ATOM     19  C   UNL     1      -5.929   2.113  25.346  0.00  0.00    +0.067 A 
BRANCH  18   2
ATOM      2  O   UNL     1      -5.317  -0.096  24.726  0.00  0.00    -0.480 OA
ATOM     20  C   UNL     1      -4.278  -0.989  24.340  0.00  0.00    +0.279 C 
ENDBRANCH  18   2
ENDBRANCH  13  15
ENDBRANCH   4  13
TORSDOF 3
ENDMDL
MODEL 9
REMARK VINA RESULT:      -2.1      1.965      2.347
REMARK  Name = 75537115
REMARK  5 active torsions:
REMARK  status: ('A' for Active; 'I' for Inactive)
REMARK    1  A    between atoms: O_2  and  C_18
REMARK    2  A    between atoms: O_2  and  C_20
REMARK    3  A    between atoms: N_4  and  C_13
REMARK    4  A    between atoms: N_5  and  C_14
REMARK    5  A    between atoms: C_13  and  C_15
REMARK                            x       y       z     vdW  Elec       q    Type
REMARK                         _______ _______ _______ _____ _____    ______ ____
ROOT
ATOM      1  O   UNL     1      -4.197   4.603  23.026  0.00  0.00    -0.252 OA
ATOM      3  N   UNL     1      -2.610   3.340  24.212  0.00  0.00    -0.278 N 
ATOM      4  N   UNL     1      -0.794   1.267  24.775  0.00  0.00    -0.293 NA
ATOM      5  N   UNL     1      -4.402   4.112  25.325  0.00  0.00    -0.287 N 
ATOM      7  C   UNL     1      -2.366   2.975  25.592  0.00  0.00    +0.109 C 
ATOM      8  C   UNL     1      -1.929   1.514  25.688  0.00  0.00    +0.109 C 
ATOM      9  C   UNL     1      -3.685   3.298  26.291  0.00  0.00    +0.132 C 
ATOM     10  C   UNL     1      -1.623   3.008  23.206  0.00  0.00    +0.125 C 
ATOM     11  C   UNL     1      -1.170   1.556  23.376  0.00  0.00    +0.104 C 
ATOM     12  C   UNL     1      -3.786   4.087  24.057  0.00  0.00    +0.305 C 
ATOM     14  C   UNL     1      -5.675   4.727  25.634  0.00  0.00    +0.133 C 
ENDROOT
BRANCH   4  13
ATOM     13  C   UNL     1      -0.329  -0.113  24.903  0.00  0.00    +0.140 C 
BRANCH  13  15
ATOM      6  N   UNL     1      -2.689  -0.591  24.559  0.00  0.00    -0.217 NA
ATOM     15  C   UNL     1      -1.446  -1.102  24.702  0.00  0.00    +0.059 A 
ATOM     16  C   UNL     1      -1.156  -2.456  24.672  0.00  0.00    +0.025 A 
ATOM     17  C   UNL     1      -2.211  -3.344  24.482  0.00  0.00    +0.007 A 
ATOM     18  C   UNL     1      -3.688  -1.483  24.377  0.00  0.00    +0.215 A 
ATOM     19  C   UNL     1      -3.504  -2.856  24.331  0.00  0.00    +0.067 A 
BRANCH  18   2
ATOM      2  O   UNL     1      -4.953  -0.977  24.229  0.00  0.00    -0.480 OA
ATOM     20  C   UNL     1      -5.158   0.368  24.646  0.00  0.00    +0.279 C 
ENDBRANCH  18   2
ENDBRANCH  13  15
ENDBRANCH   4  13
TORSDOF 3
ENDMDL
MODEL 10
REMARK VINA RESULT:      -1.7      2.448      4.311
REMARK  Name = 75537115
REMARK  5 active torsions:
REMARK  status: ('A' for Active; 'I' for Inactive)
REMARK    1  A    between atoms: O_2  and  C_18
REMARK    2  A    between atoms: O_2  and  C_20
REMARK    3  A    between atoms: N_4  and  C_13
REMARK    4  A    between atoms: N_5  and  C_14
REMARK    5  A    between atoms: C_13  and  C_15
REMARK                            x       y       z     vdW  Elec       q    Type
REMARK                         _______ _______ _______ _____ _____    ______ ____
ROOT
ATOM      1  O   UNL     1       3.405   2.009  23.132  0.00  0.00    -0.252 OA
ATOM      3  N   UNL     1       1.368   0.847  23.272  0.00  0.00    -0.278 N 
ATOM      4  N   UNL     1      -1.223   0.185  24.146  0.00  0.00    -0.293 NA
ATOM      5  N   UNL     1       3.268  -0.346  23.163  0.00  0.00    -0.287 N 
ATOM      7  C   UNL     1       0.928  -0.530  23.187  0.00  0.00    +0.109 C 
ATOM      8  C   UNL     1      -0.139  -0.814  24.244  0.00  0.00    +0.109 C 
ATOM      9  C   UNL     1       2.218  -1.333  23.346  0.00  0.00    +0.132 C 
ATOM     10  C   UNL     1       0.380   1.904  23.334  0.00  0.00    +0.125 C 
ATOM     11  C   UNL     1      -0.700   1.551  24.360  0.00  0.00    +0.104 C 
ATOM     12  C   UNL     1       2.761   0.970  23.179  0.00  0.00    +0.305 C 
ATOM     14  C   UNL     1       4.667  -0.711  23.129  0.00  0.00    +0.133 C 
ENDROOT
BRANCH   4  13
ATOM     13  C   UNL     1      -2.279  -0.113  25.113  0.00  0.00    +0.140 C 
BRANCH  13  15
ATOM      6  N   UNL     1      -2.900   2.223  25.384  0.00  0.00    -0.217 NA
ATOM     15  C   UNL     1      -3.330   0.964  25.145  0.00  0.00    +0.059 A 
ATOM     16  C   UNL     1      -4.656   0.624  24.930  0.00  0.00    +0.025 A 
ATOM     17  C   UNL     1      -5.603   1.643  24.964  0.00  0.00    +0.007 A 
ATOM     18  C   UNL     1      -3.848   3.187  25.410  0.00  0.00    +0.215 A 
ATOM     19  C   UNL     1      -5.199   2.951  25.207  0.00  0.00    +0.067 A 
BRANCH  18   2
ATOM      2  O   UNL     1      -3.426   4.467  25.651  0.00  0.00    -0.480 OA
ATOM     20  C   UNL     1      -2.046   4.738  25.431  0.00  0.00    +0.279 C 
ENDBRANCH  18   2
ENDBRANCH  13  15
ENDBRANCH   4  13
TORSDOF 3
ENDMDL
