MODEL 1
REMARK VINA RESULT:      -5.4      0.000      0.000
REMARK  Name = 75536606
REMARK  7 active torsions:
REMARK  status: ('A' for Active; 'I' for Inactive)
REMARK    1  A    between atoms: O_3  and  C_10
REMARK    2  A    between atoms: N_5  and  C_9
REMARK    3  A    between atoms: N_5  and  C_14
REMARK    4  A    between atoms: N_6  and  C_13
REMARK    5  A    between atoms: C_11  and  C_13
REMARK    6  A    between atoms: C_14  and  C_15
REMARK    7  A    between atoms: C_16  and  C_18
REMARK                            x       y       z     vdW  Elec       q    Type
REMARK                         _______ _______ _______ _____ _____    ______ ____
ROOT
ATOM      2  O   UNL     1      -0.203   3.243  23.618  0.00  0.00    -0.371 OA
ATOM      9  C   UNL     1      -1.116   3.766  25.747  0.00  0.00    +0.111 C 
ATOM     10  C   UNL     1      -0.602   2.339  25.766  0.00  0.00    +0.164 C 
ATOM     11  C   UNL     1       0.374   2.363  24.597  0.00  0.00    +0.165 C 
ATOM     12  C   UNL     1      -1.230   4.024  24.254  0.00  0.00    +0.181 C 
ENDROOT
BRANCH  10   3
ATOM      3  O   UNL     1       0.042   2.007  26.982  0.00  0.00    -0.388 OA
ATOM     24  H   UNL     1      -0.071   2.749  27.600  0.00  0.00    +0.210 HD
ENDBRANCH  10   3
BRANCH   9   5
ATOM      5  N   UNL     1      -2.378   3.940  26.448  0.00  0.00    -0.304 NA
ATOM     23  H   UNL     1      -2.257   4.643  27.179  0.00  0.00    +0.123 HD
BRANCH   5  14
ATOM     14  C   UNL     1      -3.428   4.381  25.538  0.00  0.00    +0.136 C 
BRANCH  14  15
ATOM      7  N   UNL     1      -5.503   3.203  26.356  0.00  0.00    -0.347 N 
ATOM      8  N   UNL     1      -5.938   1.703  24.777  0.00  0.00    -0.244 NA
ATOM     15  C   UNL     1      -4.526   3.358  25.412  0.00  0.00    +0.049 A 
ATOM     17  C   UNL     1      -4.815   2.422  24.449  0.00  0.00    +0.134 A 
ATOM     19  C   UNL     1      -6.327   2.198  25.930  0.00  0.00    +0.196 A 
ATOM     26  H   UNL     1      -5.602   3.731  27.212  0.00  0.00    +0.167 HD
ENDBRANCH  14  15
ENDBRANCH   5  14
ENDBRANCH   9   5
BRANCH  11  13
ATOM     13  C   UNL     1       0.607   0.994  23.982  0.00  0.00    +0.138 C 
BRANCH  13   6
ATOM      4  O   UNL     1      -0.047  -1.402  25.422  0.00  0.00    -0.270 OA
ATOM      6  N   UNL     1      -0.615   0.247  23.893  0.00  0.00    -0.308 N 
ATOM     16  C   UNL     1      -0.847  -0.909  24.631  0.00  0.00    +0.251 C 
ATOM     25  H   UNL     1      -1.317   0.590  23.246  0.00  0.00    +0.149 HD
BRANCH  16  18
ATOM      1  S   UNL     1      -3.485  -0.650  23.865  0.00  0.00    -0.092 S 
ATOM     18  C   UNL     1      -2.153  -1.580  24.406  0.00  0.00    +0.074 A 
ATOM     20  C   UNL     1      -2.483  -2.907  24.573  0.00  0.00    +0.021 A 
ATOM     21  C   UNL     1      -3.847  -3.163  24.252  0.00  0.00    +0.008 A 
ATOM     22  C   UNL     1      -4.508  -2.022  23.852  0.00  0.00    +0.046 A 
ENDBRANCH  16  18
ENDBRANCH  13   6
ENDBRANCH  11  13
TORSDOF 7
ENDMDL
MODEL 2
REMARK VINA RESULT:      -5.3      2.758      6.635
REMARK  Name = 75536606
REMARK  7 active torsions:
REMARK  status: ('A' for Active; 'I' for Inactive)
REMARK    1  A    between atoms: O_3  and  C_10
REMARK    2  A    between atoms: N_5  and  C_9
REMARK    3  A    between atoms: N_5  and  C_14
REMARK    4  A    between atoms: N_6  and  C_13
REMARK    5  A    between atoms: C_11  and  C_13
REMARK    6  A    between atoms: C_14  and  C_15
REMARK    7  A    between atoms: C_16  and  C_18
REMARK                            x       y       z     vdW  Elec       q    Type
REMARK                         _______ _______ _______ _____ _____    ______ ____
ROOT
ATOM      2  O   UNL     1      -1.673  -2.641  23.907  0.00  0.00    -0.371 OA
ATOM      9  C   UNL     1      -0.016  -1.013  24.402  0.00  0.00    +0.111 C 
ATOM     10  C   UNL     1      -1.229  -0.767  25.279  0.00  0.00    +0.164 C 
ATOM     11  C   UNL     1      -1.908  -2.129  25.229  0.00  0.00    +0.165 C 
ATOM     12  C   UNL     1      -0.609  -1.882  23.306  0.00  0.00    +0.181 C 
ENDROOT
BRANCH  10   3
ATOM      3  O   UNL     1      -0.882  -0.399  26.601  0.00  0.00    -0.388 OA
ATOM     24  H   UNL     1       0.077  -0.515  26.708  0.00  0.00    +0.210 HD
ENDBRANCH  10   3
BRANCH   9   5
ATOM      5  N   UNL     1       0.591   0.205  23.891  0.00  0.00    -0.304 NA
ATOM     23  H   UNL     1       1.204   0.596  24.608  0.00  0.00    +0.123 HD
BRANCH   5  14
ATOM     14  C   UNL     1       1.377  -0.063  22.692  0.00  0.00    +0.136 C 
BRANCH  14  15
ATOM      7  N   UNL     1       3.530  -1.070  23.534  0.00  0.00    -0.347 N 
ATOM      8  N   UNL     1       5.047   0.516  23.189  0.00  0.00    -0.244 NA
ATOM     15  C   UNL     1       2.856  -0.023  22.971  0.00  0.00    +0.049 A 
ATOM     17  C   UNL     1       3.812   0.944  22.768  0.00  0.00    +0.134 A 
ATOM     19  C   UNL     1       4.843  -0.700  23.645  0.00  0.00    +0.196 A 
ATOM     26  H   UNL     1       3.136  -1.957  23.818  0.00  0.00    +0.167 HD
ENDBRANCH  14  15
ENDBRANCH   5  14
ENDBRANCH   9   5
BRANCH  11  13
ATOM     13  C   UNL     1      -3.402  -2.065  25.496  0.00  0.00    +0.138 C 
BRANCH  13   6
ATOM      4  O   UNL     1      -4.014  -0.186  23.413  0.00  0.00    -0.270 OA
ATOM      6  N   UNL     1      -3.844  -0.710  25.666  0.00  0.00    -0.308 N 
ATOM     16  C   UNL     1      -4.118   0.134  24.594  0.00  0.00    +0.251 C 
ATOM     25  H   UNL     1      -3.937  -0.373  26.619  0.00  0.00    +0.149 HD
BRANCH  16  18
ATOM      1  S   UNL     1      -3.451   2.809  24.679  0.00  0.00    -0.092 S 
ATOM     18  C   UNL     1      -4.541   1.516  24.939  0.00  0.00    +0.074 A 
ATOM     20  C   UNL     1      -5.738   1.946  25.465  0.00  0.00    +0.021 A 
ATOM     21  C   UNL     1      -5.761   3.358  25.657  0.00  0.00    +0.008 A 
ATOM     22  C   UNL     1      -4.580   3.952  25.270  0.00  0.00    +0.046 A 
ENDBRANCH  16  18
ENDBRANCH  13   6
ENDBRANCH  11  13
TORSDOF 7
ENDMDL
MODEL 3
REMARK VINA RESULT:      -5.3      2.114      4.421
REMARK  Name = 75536606
REMARK  7 active torsions:
REMARK  status: ('A' for Active; 'I' for Inactive)
REMARK    1  A    between atoms: O_3  and  C_10
REMARK    2  A    between atoms: N_5  and  C_9
REMARK    3  A    between atoms: N_5  and  C_14
REMARK    4  A    between atoms: N_6  and  C_13
REMARK    5  A    between atoms: C_11  and  C_13
REMARK    6  A    between atoms: C_14  and  C_15
REMARK    7  A    between atoms: C_16  and  C_18
REMARK                            x       y       z     vdW  Elec       q    Type
REMARK                         _______ _______ _______ _____ _____    ______ ____
ROOT
ATOM      2  O   UNL     1      -3.678   4.252  25.688  0.00  0.00    -0.371 OA
ATOM      9  C   UNL     1      -1.352   3.909  25.353  0.00  0.00    +0.111 C 
ATOM     10  C   UNL     1      -2.125   3.112  24.318  0.00  0.00    +0.164 C 
ATOM     11  C   UNL     1      -3.464   3.837  24.328  0.00  0.00    +0.165 C 
ATOM     12  C   UNL     1      -2.428   4.170  26.394  0.00  0.00    +0.181 C 
ENDROOT
BRANCH  10   3
ATOM      3  O   UNL     1      -1.518   3.145  23.039  0.00  0.00    -0.388 OA
ATOM     24  H   UNL     1      -2.046   2.595  22.437  0.00  0.00    +0.210 HD
ENDBRANCH  10   3
BRANCH   9   5
ATOM      5  N   UNL     1      -0.202   3.202  25.893  0.00  0.00    -0.304 NA
ATOM     23  H   UNL     1       0.010   3.575  26.819  0.00  0.00    +0.123 HD
BRANCH   5  14
ATOM     14  C   UNL     1      -0.470   1.774  26.008  0.00  0.00    +0.136 C 
BRANCH  14  15
ATOM      7  N   UNL     1       1.125   1.445  24.082  0.00  0.00    -0.347 N 
ATOM      8  N   UNL     1       0.497  -0.483  23.176  0.00  0.00    -0.244 NA
ATOM     15  C   UNL     1       0.067   1.007  24.829  0.00  0.00    +0.049 A 
ATOM     17  C   UNL     1      -0.303  -0.184  24.250  0.00  0.00    +0.134 A 
ATOM     19  C   UNL     1       1.346   0.517  23.101  0.00  0.00    +0.196 A 
ATOM     26  H   UNL     1       1.650   2.297  24.224  0.00  0.00    +0.167 HD
ENDBRANCH  14  15
ENDBRANCH   5  14
ENDBRANCH   9   5
BRANCH  11  13
ATOM     13  C   UNL     1      -4.621   2.968  23.869  0.00  0.00    +0.138 C 
BRANCH  13   6
ATOM      4  O   UNL     1      -5.334   1.046  25.880  0.00  0.00    -0.270 OA
ATOM      6  N   UNL     1      -4.268   1.577  23.889  0.00  0.00    -0.308 N 
ATOM     16  C   UNL     1      -4.659   0.714  24.909  0.00  0.00    +0.251 C 
ATOM     25  H   UNL     1      -3.696   1.236  23.123  0.00  0.00    +0.149 HD
BRANCH  16  18
ATOM      1  S   UNL     1      -3.259  -1.363  26.065  0.00  0.00    -0.092 S 
ATOM     18  C   UNL     1      -4.190  -0.691  24.795  0.00  0.00    +0.074 A 
ATOM     20  C   UNL     1      -4.396  -1.590  23.773  0.00  0.00    +0.021 A 
ATOM     21  C   UNL     1      -3.781  -2.848  24.035  0.00  0.00    +0.008 A 
ATOM     22  C   UNL     1      -3.128  -2.862  25.248  0.00  0.00    +0.046 A 
ENDBRANCH  16  18
ENDBRANCH  13   6
ENDBRANCH  11  13
TORSDOF 7
ENDMDL
MODEL 4
REMARK VINA RESULT:      -4.8      2.205      5.474
REMARK  Name = 75536606
REMARK  7 active torsions:
REMARK  status: ('A' for Active; 'I' for Inactive)
REMARK    1  A    between atoms: O_3  and  C_10
REMARK    2  A    between atoms: N_5  and  C_9
REMARK    3  A    between atoms: N_5  and  C_14
REMARK    4  A    between atoms: N_6  and  C_13
REMARK    5  A    between atoms: C_11  and  C_13
REMARK    6  A    between atoms: C_14  and  C_15
REMARK    7  A    between atoms: C_16  and  C_18
REMARK                            x       y       z     vdW  Elec       q    Type
REMARK                         _______ _______ _______ _____ _____    ______ ____
ROOT
ATOM      2  O   UNL     1      -2.506  -3.096  23.722  0.00  0.00    -0.371 OA
ATOM      9  C   UNL     1      -0.943  -2.013  25.146  0.00  0.00    +0.111 C 
ATOM     10  C   UNL     1      -2.262  -1.264  25.198  0.00  0.00    +0.164 C 
ATOM     11  C   UNL     1      -3.227  -2.335  24.706  0.00  0.00    +0.165 C 
ATOM     12  C   UNL     1      -1.103  -2.812  23.864  0.00  0.00    +0.181 C 
ENDROOT
BRANCH  10   3
ATOM      3  O   UNL     1      -2.587  -0.821  26.502  0.00  0.00    -0.388 OA
ATOM     24  H   UNL     1      -2.882   0.103  26.446  0.00  0.00    +0.210 HD
ENDBRANCH  10   3
BRANCH   9   5
ATOM      5  N   UNL     1       0.221  -1.142  25.128  0.00  0.00    -0.304 NA
ATOM     23  H   UNL     1       1.051  -1.703  24.933  0.00  0.00    +0.123 HD
BRANCH   5  14
ATOM     14  C   UNL     1       0.093  -0.115  24.101  0.00  0.00    +0.136 C 
BRANCH  14  15
ATOM      7  N   UNL     1      -0.270   1.455  26.042  0.00  0.00    -0.347 N 
ATOM      8  N   UNL     1      -0.416   3.461  25.101  0.00  0.00    -0.244 NA
ATOM     15  C   UNL     1      -0.121   1.251  24.698  0.00  0.00    +0.049 A 
ATOM     17  C   UNL     1      -0.215   2.503  24.139  0.00  0.00    +0.134 A 
ATOM     19  C   UNL     1      -0.444   2.798  26.235  0.00  0.00    +0.196 A 
ATOM     26  H   UNL     1      -0.256   0.746  26.763  0.00  0.00    +0.167 HD
ENDBRANCH  14  15
ENDBRANCH   5  14
ENDBRANCH   9   5
BRANCH  11  13
ATOM     13  C   UNL     1      -4.491  -1.765  24.087  0.00  0.00    +0.138 C 
BRANCH  13   6
ATOM      4  O   UNL     1      -3.282   0.581  22.956  0.00  0.00    -0.270 OA
ATOM      6  N   UNL     1      -4.706  -0.407  24.498  0.00  0.00    -0.308 N 
ATOM     16  C   UNL     1      -4.074   0.674  23.890  0.00  0.00    +0.251 C 
ATOM     25  H   UNL     1      -5.339  -0.256  25.276  0.00  0.00    +0.149 HD
BRANCH  16  18
ATOM      1  S   UNL     1      -5.690   2.179  25.544  0.00  0.00    -0.092 S 
ATOM     18  C   UNL     1      -4.384   2.015  24.450  0.00  0.00    +0.074 A 
ATOM     20  C   UNL     1      -3.753   3.215  24.214  0.00  0.00    +0.021 A 
ATOM     21  C   UNL     1      -4.349   4.285  24.942  0.00  0.00    +0.008 A 
ATOM     22  C   UNL     1      -5.414   3.860  25.707  0.00  0.00    +0.046 A 
ENDBRANCH  16  18
ENDBRANCH  13   6
ENDBRANCH  11  13
TORSDOF 7
ENDMDL
MODEL 5
REMARK VINA RESULT:      -4.6      2.524      6.580
REMARK  Name = 75536606
REMARK  7 active torsions:
REMARK  status: ('A' for Active; 'I' for Inactive)
REMARK    1  A    between atoms: O_3  and  C_10
REMARK    2  A    between atoms: N_5  and  C_9
REMARK    3  A    between atoms: N_5  and  C_14
REMARK    4  A    between atoms: N_6  and  C_13
REMARK    5  A    between atoms: C_11  and  C_13
REMARK    6  A    between atoms: C_14  and  C_15
REMARK    7  A    between atoms: C_16  and  C_18
REMARK                            x       y       z     vdW  Elec       q    Type
REMARK                         _______ _______ _______ _____ _____    ______ ____
ROOT
ATOM      2  O   UNL     1      -3.153  -2.116  24.258  0.00  0.00    -0.371 OA
ATOM      9  C   UNL     1      -0.867  -1.900  24.863  0.00  0.00    +0.111 C 
ATOM     10  C   UNL     1      -1.648  -0.744  25.460  0.00  0.00    +0.164 C 
ATOM     11  C   UNL     1      -3.063  -1.306  25.443  0.00  0.00    +0.165 C 
ATOM     12  C   UNL     1      -1.822  -2.382  23.784  0.00  0.00    +0.181 C 
ENDROOT
BRANCH  10   3
ATOM      3  O   UNL     1      -1.226  -0.419  26.771  0.00  0.00    -0.388 OA
ATOM     24  H   UNL     1      -1.919   0.119  27.190  0.00  0.00    +0.210 HD
ENDBRANCH  10   3
BRANCH   9   5
ATOM      5  N   UNL     1       0.433  -1.515  24.337  0.00  0.00    -0.304 NA
ATOM     23  H   UNL     1       0.771  -2.253  23.718  0.00  0.00    +0.123 HD
BRANCH   5  14
ATOM     14  C   UNL     1       0.347  -0.269  23.586  0.00  0.00    +0.136 C 
BRANCH  14  15
ATOM      7  N   UNL     1       2.414   1.173  23.498  0.00  0.00    -0.347 N 
ATOM      8  N   UNL     1       3.595   0.334  21.814  0.00  0.00    -0.244 NA
ATOM     15  C   UNL     1       1.679   0.130  23.008  0.00  0.00    +0.049 A 
ATOM     17  C   UNL     1       2.428  -0.372  21.970  0.00  0.00    +0.134 A 
ATOM     19  C   UNL     1       3.556   1.257  22.749  0.00  0.00    +0.196 A 
ATOM     26  H   UNL     1       2.164   1.775  24.271  0.00  0.00    +0.167 HD
ENDBRANCH  14  15
ENDBRANCH   5  14
ENDBRANCH   9   5
BRANCH  11  13
ATOM     13  C   UNL     1      -4.136  -0.231  25.412  0.00  0.00    +0.138 C 
BRANCH  13   6
ATOM      4  O   UNL     1      -3.049   1.324  23.258  0.00  0.00    -0.270 OA
ATOM      6  N   UNL     1      -3.562   1.081  25.507  0.00  0.00    -0.308 N 
ATOM     16  C   UNL     1      -3.056   1.763  24.405  0.00  0.00    +0.251 C 
ATOM     25  H   UNL     1      -3.522   1.500  26.430  0.00  0.00    +0.149 HD
BRANCH  16  18
ATOM      1  S   UNL     1      -0.801   3.353  24.401  0.00  0.00    -0.092 S 
ATOM     18  C   UNL     1      -2.473   3.103  24.674  0.00  0.00    +0.074 A 
ATOM     20  C   UNL     1      -3.098   4.240  25.135  0.00  0.00    +0.021 A 
ATOM     21  C   UNL     1      -2.192   5.332  25.266  0.00  0.00    +0.008 A 
ATOM     22  C   UNL     1      -0.909   4.987  24.900  0.00  0.00    +0.046 A 
ENDBRANCH  16  18
ENDBRANCH  13   6
ENDBRANCH  11  13
TORSDOF 7
ENDMDL
MODEL 6
REMARK VINA RESULT:      -4.5      2.370      4.473
REMARK  Name = 75536606
REMARK  7 active torsions:
REMARK  status: ('A' for Active; 'I' for Inactive)
REMARK    1  A    between atoms: O_3  and  C_10
REMARK    2  A    between atoms: N_5  and  C_9
REMARK    3  A    between atoms: N_5  and  C_14
REMARK    4  A    between atoms: N_6  and  C_13
REMARK    5  A    between atoms: C_11  and  C_13
REMARK    6  A    between atoms: C_14  and  C_15
REMARK    7  A    between atoms: C_16  and  C_18
REMARK                            x       y       z     vdW  Elec       q    Type
REMARK                         _______ _______ _______ _____ _____    ______ ____
ROOT
ATOM      2  O   UNL     1      -5.862   2.997  25.927  0.00  0.00    -0.371 OA
ATOM      9  C   UNL     1      -4.176   4.145  24.711  0.00  0.00    +0.111 C 
ATOM     10  C   UNL     1      -4.143   2.675  24.336  0.00  0.00    +0.164 C 
ATOM     11  C   UNL     1      -5.540   2.234  24.752  0.00  0.00    +0.165 C 
ATOM     12  C   UNL     1      -4.949   4.104  26.019  0.00  0.00    +0.181 C 
ENDROOT
BRANCH  10   3
ATOM      3  O   UNL     1      -3.914   2.470  22.955  0.00  0.00    -0.388 OA
ATOM     24  H   UNL     1      -3.515   1.591  22.839  0.00  0.00    +0.210 HD
ENDBRANCH  10   3
BRANCH   9   5
ATOM      5  N   UNL     1      -2.858   4.742  24.852  0.00  0.00    -0.304 NA
ATOM     23  H   UNL     1      -2.964   5.738  25.048  0.00  0.00    +0.123 HD
BRANCH   5  14
ATOM     14  C   UNL     1      -2.115   4.122  25.943  0.00  0.00    +0.136 C 
BRANCH  14  15
ATOM      7  N   UNL     1      -0.862   2.915  24.117  0.00  0.00    -0.347 N 
ATOM      8  N   UNL     1       0.826   1.930  25.172  0.00  0.00    -0.244 NA
ATOM     15  C   UNL     1      -0.998   3.250  25.435  0.00  0.00    +0.049 A 
ATOM     17  C   UNL     1       0.055   2.630  26.066  0.00  0.00    +0.134 A 
ATOM     19  C   UNL     1       0.247   2.121  24.008  0.00  0.00    +0.196 A 
ATOM     26  H   UNL     1      -1.468   3.199  23.359  0.00  0.00    +0.167 HD
ENDBRANCH  14  15
ENDBRANCH   5  14
ENDBRANCH   9   5
BRANCH  11  13
ATOM     13  C   UNL     1      -5.633   0.750  25.061  0.00  0.00    +0.138 C 
BRANCH  13   6
ATOM      4  O   UNL     1      -4.761  -1.704  23.855  0.00  0.00    -0.270 OA
ATOM      6  N   UNL     1      -4.331   0.158  25.170  0.00  0.00    -0.308 N 
ATOM     16  C   UNL     1      -3.994  -1.042  24.549  0.00  0.00    +0.251 C 
ATOM     25  H   UNL     1      -3.650   0.645  25.742  0.00  0.00    +0.149 HD
BRANCH  16  18
ATOM      1  S   UNL     1      -1.566  -0.635  25.792  0.00  0.00    -0.092 S 
ATOM     18  C   UNL     1      -2.613  -1.535  24.781  0.00  0.00    +0.074 A 
ATOM     20  C   UNL     1      -2.005  -2.666  24.283  0.00  0.00    +0.021 A 
ATOM     21  C   UNL     1      -0.661  -2.795  24.738  0.00  0.00    +0.008 A 
ATOM     22  C   UNL     1      -0.293  -1.758  25.567  0.00  0.00    +0.046 A 
ENDBRANCH  16  18
ENDBRANCH  13   6
ENDBRANCH  11  13
TORSDOF 7
ENDMDL
MODEL 7
REMARK VINA RESULT:      -4.3      2.120      4.309
REMARK  Name = 75536606
REMARK  7 active torsions:
REMARK  status: ('A' for Active; 'I' for Inactive)
REMARK    1  A    between atoms: O_3  and  C_10
REMARK    2  A    between atoms: N_5  and  C_9
REMARK    3  A    between atoms: N_5  and  C_14
REMARK    4  A    between atoms: N_6  and  C_13
REMARK    5  A    between atoms: C_11  and  C_13
REMARK    6  A    between atoms: C_14  and  C_15
REMARK    7  A    between atoms: C_16  and  C_18
REMARK                            x       y       z     vdW  Elec       q    Type
REMARK                         _______ _______ _______ _____ _____    ______ ____
ROOT
ATOM      2  O   UNL     1      -3.149   4.241  23.754  0.00  0.00    -0.371 OA
ATOM      9  C   UNL     1      -4.556   3.167  25.337  0.00  0.00    +0.111 C 
ATOM     10  C   UNL     1      -3.202   3.422  25.972  0.00  0.00    +0.164 C 
ATOM     11  C   UNL     1      -2.662   4.529  25.076  0.00  0.00    +0.165 C 
ATOM     12  C   UNL     1      -4.224   3.291  23.860  0.00  0.00    +0.181 C 
ENDROOT
BRANCH  10   3
ATOM      3  O   UNL     1      -3.300   3.838  27.321  0.00  0.00    -0.388 OA
ATOM     24  H   UNL     1      -3.152   4.798  27.356  0.00  0.00    +0.210 HD
ENDBRANCH  10   3
BRANCH   9   5
ATOM      5  N   UNL     1      -5.127   1.875  25.682  0.00  0.00    -0.304 NA
ATOM     23  H   UNL     1      -6.081   2.013  26.018  0.00  0.00    +0.123 HD
BRANCH   5  14
ATOM     14  C   UNL     1      -5.158   0.989  24.524  0.00  0.00    +0.136 C 
BRANCH  14  15
ATOM      7  N   UNL     1      -4.357  -1.313  23.877  0.00  0.00    -0.347 N 
ATOM      8  N   UNL     1      -3.046  -1.928  25.561  0.00  0.00    -0.244 NA
ATOM     15  C   UNL     1      -4.369  -0.271  24.762  0.00  0.00    +0.049 A 
ATOM     17  C   UNL     1      -3.554  -0.674  25.792  0.00  0.00    +0.134 A 
ATOM     19  C   UNL     1      -3.548  -2.285  24.400  0.00  0.00    +0.196 A 
ATOM     26  H   UNL     1      -4.853  -1.361  22.997  0.00  0.00    +0.167 HD
ENDBRANCH  14  15
ENDBRANCH   5  14
ENDBRANCH   9   5
BRANCH  11  13
ATOM     13  C   UNL     1      -1.145   4.600  25.058  0.00  0.00    +0.138 C 
BRANCH  13   6
ATOM      4  O   UNL     1       0.422   2.472  26.181  0.00  0.00    -0.270 OA
ATOM      6  N   UNL     1      -0.579   3.487  24.350  0.00  0.00    -0.308 N 
ATOM     16  C   UNL     1       0.171   2.497  24.979  0.00  0.00    +0.251 C 
ATOM     25  H   UNL     1      -0.734   3.452  23.349  0.00  0.00    +0.149 HD
BRANCH  16  18
ATOM      1  S   UNL     1      -0.246   0.038  23.801  0.00  0.00    -0.092 S 
ATOM     18  C   UNL     1       0.709   1.426  24.102  0.00  0.00    +0.074 A 
ATOM     20  C   UNL     1       1.924   1.368  23.455  0.00  0.00    +0.021 A 
ATOM     21  C   UNL     1       2.072   0.168  22.703  0.00  0.00    +0.008 A 
ATOM     22  C   UNL     1       0.965  -0.647  22.803  0.00  0.00    +0.046 A 
ENDBRANCH  16  18
ENDBRANCH  13   6
ENDBRANCH  11  13
TORSDOF 7
ENDMDL
MODEL 8
REMARK VINA RESULT:      -4.1      2.080      4.529
REMARK  Name = 75536606
REMARK  7 active torsions:
REMARK  status: ('A' for Active; 'I' for Inactive)
REMARK    1  A    between atoms: O_3  and  C_10
REMARK    2  A    between atoms: N_5  and  C_9
REMARK    3  A    between atoms: N_5  and  C_14
REMARK    4  A    between atoms: N_6  and  C_13
REMARK    5  A    between atoms: C_11  and  C_13
REMARK    6  A    between atoms: C_14  and  C_15
REMARK    7  A    between atoms: C_16  and  C_18
REMARK                            x       y       z     vdW  Elec       q    Type
REMARK                         _______ _______ _______ _____ _____    ______ ____
ROOT
ATOM      2  O   UNL     1      -1.082  -1.838  23.471  0.00  0.00    -0.371 OA
ATOM      9  C   UNL     1       0.143  -0.111  24.548  0.00  0.00    +0.111 C 
ATOM     10  C   UNL     1      -1.113  -0.400  25.349  0.00  0.00    +0.164 C 
ATOM     11  C   UNL     1      -1.458  -1.800  24.859  0.00  0.00    +0.165 C 
ATOM     12  C   UNL     1      -0.210  -0.726  23.204  0.00  0.00    +0.181 C 
ENDROOT
BRANCH  10   3
ATOM      3  O   UNL     1      -0.888  -0.372  26.746  0.00  0.00    -0.388 OA
ATOM     24  H   UNL     1      -0.663   0.539  27.000  0.00  0.00    +0.210 HD
ENDBRANCH  10   3
BRANCH   9   5
ATOM      5  N   UNL     1       0.463   1.304  24.455  0.00  0.00    -0.304 NA
ATOM     23  H   UNL     1      -0.113   1.727  23.727  0.00  0.00    +0.123 HD
BRANCH   5  14
ATOM     14  C   UNL     1       0.203   1.984  25.719  0.00  0.00    +0.136 C 
BRANCH  14  15
ATOM      7  N   UNL     1      -1.787   3.467  26.169  0.00  0.00    -0.347 N 
ATOM      8  N   UNL     1      -1.433   5.257  24.902  0.00  0.00    -0.244 NA
ATOM     15  C   UNL     1      -0.604   3.240  25.523  0.00  0.00    +0.049 A 
ATOM     17  C   UNL     1      -0.407   4.358  24.747  0.00  0.00    +0.134 A 
ATOM     19  C   UNL     1      -2.247   4.690  25.765  0.00  0.00    +0.196 A 
ATOM     26  H   UNL     1      -2.242   2.847  26.826  0.00  0.00    +0.167 HD
ENDBRANCH  14  15
ENDBRANCH   5  14
ENDBRANCH   9   5
BRANCH  11  13
ATOM     13  C   UNL     1      -2.931  -2.139  25.000  0.00  0.00    +0.138 C 
BRANCH  13   6
ATOM      4  O   UNL     1      -3.791  -0.040  23.241  0.00  0.00    -0.270 OA
ATOM      6  N   UNL     1      -3.701  -0.982  25.359  0.00  0.00    -0.308 N 
ATOM     16  C   UNL     1      -4.074  -0.010  24.435  0.00  0.00    +0.251 C 
ATOM     25  H   UNL     1      -3.958  -0.885  26.335  0.00  0.00    +0.149 HD
BRANCH  16  18
ATOM      1  S   UNL     1      -4.568   2.702  24.329  0.00  0.00    -0.092 S 
ATOM     18  C   UNL     1      -4.848   1.140  24.970  0.00  0.00    +0.074 A 
ATOM     20  C   UNL     1      -5.808   1.150  25.957  0.00  0.00    +0.021 A 
ATOM     21  C   UNL     1      -6.322   2.458  26.190  0.00  0.00    +0.008 A 
ATOM     22  C   UNL     1      -5.734   3.399  25.372  0.00  0.00    +0.046 A 
ENDBRANCH  16  18
ENDBRANCH  13   6
ENDBRANCH  11  13
TORSDOF 7
ENDMDL
MODEL 9
REMARK VINA RESULT:      -3.7     18.465     20.173
REMARK  Name = 75536606
REMARK  7 active torsions:
REMARK  status: ('A' for Active; 'I' for Inactive)
REMARK    1  A    between atoms: O_3  and  C_10
REMARK    2  A    between atoms: N_5  and  C_9
REMARK    3  A    between atoms: N_5  and  C_14
REMARK    4  A    between atoms: N_6  and  C_13
REMARK    5  A    between atoms: C_11  and  C_13
REMARK    6  A    between atoms: C_14  and  C_15
REMARK    7  A    between atoms: C_16  and  C_18
REMARK                            x       y       z     vdW  Elec       q    Type
REMARK                         _______ _______ _______ _____ _____    ______ ____
ROOT
ATOM      2  O   UNL     1      17.403  -4.779  28.348  0.00  0.00    -0.371 OA
ATOM      9  C   UNL     1      16.697  -6.082  30.203  0.00  0.00    +0.111 C 
ATOM     10  C   UNL     1      16.301  -6.791  28.921  0.00  0.00    +0.164 C 
ATOM     11  C   UNL     1      17.251  -6.144  27.923  0.00  0.00    +0.165 C 
ATOM     12  C   UNL     1      16.935  -4.667  29.703  0.00  0.00    +0.181 C 
ENDROOT
BRANCH  10   3
ATOM      3  O   UNL     1      16.486  -8.192  28.993  0.00  0.00    -0.388 OA
ATOM     24  H   UNL     1      16.386  -8.559  28.098  0.00  0.00    +0.210 HD
ENDBRANCH  10   3
BRANCH   9   5
ATOM      5  N   UNL     1      15.685  -6.152  31.245  0.00  0.00    -0.304 NA
ATOM     23  H   UNL     1      16.049  -5.709  32.090  0.00  0.00    +0.123 HD
BRANCH   5  14
ATOM     14  C   UNL     1      14.466  -5.464  30.838  0.00  0.00    +0.136 C 
BRANCH  14  15
ATOM      7  N   UNL     1      12.915  -6.184  32.692  0.00  0.00    -0.347 N 
ATOM      8  N   UNL     1      11.298  -7.295  31.652  0.00  0.00    -0.244 NA
ATOM     15  C   UNL     1      13.233  -6.151  31.363  0.00  0.00    +0.049 A 
ATOM     17  C   UNL     1      12.221  -6.843  30.742  0.00  0.00    +0.134 A 
ATOM     19  C   UNL     1      11.745  -6.882  32.816  0.00  0.00    +0.196 A 
ATOM     26  H   UNL     1      13.445  -5.771  33.448  0.00  0.00    +0.167 HD
ENDBRANCH  14  15
ENDBRANCH   5  14
ENDBRANCH   9   5
BRANCH  11  13
ATOM     13  C   UNL     1      16.736  -6.182  26.494  0.00  0.00    +0.138 C 
BRANCH  13   6
ATOM      4  O   UNL     1      17.405  -5.644  23.754  0.00  0.00    -0.270 OA
ATOM      6  N   UNL     1      16.829  -4.892  25.872  0.00  0.00    -0.308 N 
ATOM     16  C   UNL     1      17.161  -4.724  24.531  0.00  0.00    +0.251 C 
ATOM     25  H   UNL     1      16.654  -4.084  26.460  0.00  0.00    +0.149 HD
BRANCH  16  18
ATOM      1  S   UNL     1      17.181  -2.043  25.181  0.00  0.00    -0.092 S 
ATOM     18  C   UNL     1      17.241  -3.323  24.045  0.00  0.00    +0.074 A 
ATOM     20  C   UNL     1      17.360  -2.862  22.753  0.00  0.00    +0.021 A 
ATOM     21  C   UNL     1      17.404  -1.439  22.695  0.00  0.00    +0.008 A 
ATOM     22  C   UNL     1      17.315  -0.866  23.945  0.00  0.00    +0.046 A 
ENDBRANCH  16  18
ENDBRANCH  13   6
ENDBRANCH  11  13
TORSDOF 7
ENDMDL
MODEL 10
REMARK VINA RESULT:      -3.4      2.363      4.556
REMARK  Name = 75536606
REMARK  7 active torsions:
REMARK  status: ('A' for Active; 'I' for Inactive)
REMARK    1  A    between atoms: O_3  and  C_10
REMARK    2  A    between atoms: N_5  and  C_9
REMARK    3  A    between atoms: N_5  and  C_14
REMARK    4  A    between atoms: N_6  and  C_13
REMARK    5  A    between atoms: C_11  and  C_13
REMARK    6  A    between atoms: C_14  and  C_15
REMARK    7  A    between atoms: C_16  and  C_18
REMARK                            x       y       z     vdW  Elec       q    Type
REMARK                         _______ _______ _______ _____ _____    ______ ____
ROOT
ATOM      2  O   UNL     1      -5.402   0.347  25.571  0.00  0.00    -0.371 OA
ATOM      9  C   UNL     1      -5.056   2.509  24.650  0.00  0.00    +0.111 C 
ATOM     10  C   UNL     1      -3.803   1.677  24.445  0.00  0.00    +0.164 C 
ATOM     11  C   UNL     1      -4.361   0.267  24.582  0.00  0.00    +0.165 C 
ATOM     12  C   UNL     1      -5.757   1.729  25.750  0.00  0.00    +0.181 C 
ENDROOT
BRANCH  10   3
ATOM      3  O   UNL     1      -3.208   1.888  23.179  0.00  0.00    -0.388 OA
ATOM     24  H   UNL     1      -2.251   1.745  23.263  0.00  0.00    +0.210 HD
ENDBRANCH  10   3
BRANCH   9   5
ATOM      5  N   UNL     1      -4.786   3.889  25.019  0.00  0.00    -0.304 NA
ATOM     23  H   UNL     1      -5.660   4.334  25.299  0.00  0.00    +0.123 HD
BRANCH   5  14
ATOM     14  C   UNL     1      -3.842   3.960  26.129  0.00  0.00    +0.136 C 
BRANCH  14  15
ATOM      7  N   UNL     1      -1.444   3.306  25.704  0.00  0.00    -0.347 N 
ATOM      8  N   UNL     1      -0.525   5.133  24.836  0.00  0.00    -0.244 NA
ATOM     15  C   UNL     1      -2.441   4.240  25.655  0.00  0.00    +0.049 A 
ATOM     17  C   UNL     1      -1.850   5.359  25.117  0.00  0.00    +0.134 A 
ATOM     19  C   UNL     1      -0.313   3.888  25.201  0.00  0.00    +0.196 A 
ATOM     26  H   UNL     1      -1.523   2.359  26.048  0.00  0.00    +0.167 HD
ENDBRANCH  14  15
ENDBRANCH   5  14
ENDBRANCH   9   5
BRANCH  11  13
ATOM     13  C   UNL     1      -3.321  -0.751  25.014  0.00  0.00    +0.138 C 
BRANCH  13   6
ATOM      4  O   UNL     1      -0.845   0.444  25.842  0.00  0.00    -0.270 OA
ATOM      6  N   UNL     1      -2.122  -0.635  24.233  0.00  0.00    -0.308 N 
ATOM     16  C   UNL     1      -0.963  -0.037  24.718  0.00  0.00    +0.251 C 
ATOM     25  H   UNL     1      -2.152  -0.999  23.287  0.00  0.00    +0.149 HD
BRANCH  16  18
ATOM      1  S   UNL     1       1.385   1.225  24.008  0.00  0.00    -0.092 S 
ATOM     18  C   UNL     1       0.185   0.027  23.776  0.00  0.00    +0.074 A 
ATOM     20  C   UNL     1       0.451  -0.768  22.684  0.00  0.00    +0.021 A 
ATOM     21  C   UNL     1       1.658  -0.389  22.028  0.00  0.00    +0.008 A 
ATOM     22  C   UNL     1       2.267   0.682  22.645  0.00  0.00    +0.046 A 
ENDBRANCH  16  18
ENDBRANCH  13   6
ENDBRANCH  11  13
TORSDOF 7
ENDMDL
