MODEL 1
REMARK VINA RESULT:       2.5      0.000      0.000
REMARK  Name = 11882485
REMARK  13 active torsions:
REMARK  status: ('A' for Active; 'I' for Inactive)
REMARK    1  A    between atoms: S_1  and  N_9
REMARK    2  A    between atoms: S_1  and  C_25
REMARK    3  A    between atoms: N_9  and  C_14
REMARK    4  A    between atoms: N_10  and  C_21
REMARK    5  A    between atoms: N_11  and  C_32
REMARK    6  A    between atoms: C_15  and  C_19
REMARK    7  A    between atoms: C_20  and  C_23
REMARK    8  A    between atoms: C_21  and  C_22
REMARK    9  A    between atoms: C_21  and  C_26
REMARK   10  A    between atoms: C_22  and  C_24
REMARK   11  A    between atoms: C_24  and  C_28
REMARK   12  A    between atoms: C_24  and  C_29
REMARK   13  A    between atoms: C_30  and  C_35
REMARK                            x       y       z     vdW  Elec       q    Type
REMARK                         _______ _______ _______ _____ _____    ______ ____
ROOT
ATOM      4  O   UNL     1      -3.411   0.185  26.423  0.00  0.00    -0.268 OA
ATOM      8  N   UNL     1      -1.878   0.640  24.730  0.00  0.00    -0.285 N 
ATOM     14  C   UNL     1       0.601   1.743  23.634  0.00  0.00    +0.080 C 
ATOM     15  C   UNL     1      -1.067   1.540  25.558  0.00  0.00    +0.164 C 
ATOM     16  C   UNL     1       0.404   1.600  25.146  0.00  0.00    +0.052 C 
ATOM     17  C   UNL     1      -0.187   0.659  22.903  0.00  0.00    +0.039 C 
ATOM     18  C   UNL     1      -1.666   0.704  23.273  0.00  0.00    +0.110 C 
ATOM     20  C   UNL     1      -2.883  -0.127  25.355  0.00  0.00    +0.265 C 
ENDROOT
BRANCH  20  23
ATOM     11  N   UNL     1      -2.553  -2.473  24.539  0.00  0.00    -0.262 N 
ATOM     12  N   UNL     1      -3.180  -3.464  23.884  0.00  0.00    -0.176 NA
ATOM     23  C   UNL     1      -3.310  -1.351  24.686  0.00  0.00    +0.123 A 
ATOM     27  C   UNL     1      -4.513  -1.620  24.087  0.00  0.00    +0.057 A 
ATOM     30  C   UNL     1      -4.377  -2.938  23.610  0.00  0.00    +0.061 A 
ATOM     32  C   UNL     1      -1.202  -2.678  25.006  0.00  0.00    +0.173 C 
ATOM     35  C   UNL     1      -5.377  -3.735  22.881  0.00  0.00    +0.067 C 
ENDBRANCH  20  23
BRANCH  15  19
ATOM      3  O   UNL     1      -1.100   3.925  25.675  0.00  0.00    -0.274 OA
ATOM     10  N   UNL     1      -3.087   2.790  25.250  0.00  0.00    -0.302 N 
ATOM     19  C   UNL     1      -1.728   2.886  25.498  0.00  0.00    +0.234 C 
ATOM     37  H   UNL     1      -3.464   1.900  24.939  0.00  0.00    +0.150 HD
BRANCH  10  21
ATOM     21  C   UNL     1      -3.958   3.941  25.167  0.00  0.00    +0.159 C 
BRANCH  21  26
ATOM      7  O   UNL     1      -3.981   5.564  23.358  0.00  0.00    -0.274 OA
ATOM     13  N   UNL     1      -3.912   3.330  22.828  0.00  0.00    -0.328 N 
ATOM     26  C   UNL     1      -3.970   4.388  23.711  0.00  0.00    +0.231 C 
ATOM     38  H   UNL     1      -3.879   2.364  23.135  0.00  0.00    +0.145 HD
ATOM     39  H   UNL     1      -3.899   3.490  21.825  0.00  0.00    +0.145 HD
ENDBRANCH  21  26
BRANCH  21  22
ATOM     22  C   UNL     1      -5.383   3.626  25.638  0.00  0.00    +0.034 C 
BRANCH  22  24
ATOM     24  C   UNL     1      -5.709   2.123  25.756  0.00  0.00    -0.015 C 
ATOM     28  C   UNL     1      -6.508   1.796  27.018  0.00  0.00    +0.007 C 
ATOM     29  C   UNL     1      -6.487   1.664  24.519  0.00  0.00    +0.007 C 
ENDBRANCH  22  24
ENDBRANCH  21  22
ENDBRANCH  10  21
ENDBRANCH  15  19
BRANCH  14   9
ATOM      9  N   UNL     1       2.002   1.675  23.295  0.00  0.00    -0.186 NA
ATOM     36  H   UNL     1       2.644   2.326  23.762  0.00  0.00    +0.148 HD
BRANCH   9   1
ATOM      1  S   UNL     1       2.602   0.197  22.676  0.00  0.00    +0.065 S 
ATOM      5  O   UNL     1       2.772   0.310  21.240  0.00  0.00    -0.153 OA
ATOM      6  O   UNL     1       1.851  -0.895  23.261  0.00  0.00    -0.153 OA
BRANCH   1  25
ATOM      2  S   UNL     1       4.575  -1.606  23.861  0.00  0.00    -0.077 S 
ATOM     25  C   UNL     1       4.254  -0.023  23.337  0.00  0.00    +0.142 A 
ATOM     31  C   UNL     1       5.290   0.835  23.497  0.00  0.00    +0.036 A 
ATOM     33  C   UNL     1       6.412   0.177  24.077  0.00  0.00    +0.010 A 
ATOM     34  C   UNL     1       6.160  -1.155  24.326  0.00  0.00    +0.047 A 
ENDBRANCH   1  25
ENDBRANCH   9   1
ENDBRANCH  14   9
TORSDOF 9
ENDMDL
