MODEL 1
REMARK VINA RESULT:      -6.9      0.000      0.000
REMARK  Name = 38030170
REMARK  10 active torsions:
REMARK  status: ('A' for Active; 'I' for Inactive)
REMARK    1  A    between atoms: O_1  and  C_13
REMARK    2  A    between atoms: N_3  and  C_18
REMARK    3  A    between atoms: C_5  and  C_9
REMARK    4  A    between atoms: C_7  and  C_13
REMARK    5  A    between atoms: C_8  and  C_12
REMARK    6  A    between atoms: C_9  and  C_14
REMARK    7  A    between atoms: C_9  and  C_15
REMARK    8  A    between atoms: C_10  and  C_16
REMARK    9  A    between atoms: C_12  and  C_17
REMARK   10  A    between atoms: C_18  and  C_19
REMARK                            x       y       z     vdW  Elec       q    Type
REMARK                         _______ _______ _______ _____ _____    ______ ____
ROOT
ATOM      5  C   UNL     1      -3.361   0.641  24.869  0.00  0.00    +0.001 C 
ATOM      6  C   UNL     1      -1.953   0.655  25.484  0.00  0.00    +0.012 C 
ATOM      7  C   UNL     1      -4.167   1.879  25.338  0.00  0.00    +0.040 C 
ATOM      8  C   UNL     1      -1.165   1.923  25.107  0.00  0.00    +0.023 C 
ATOM     10  C   UNL     1      -1.995   3.177  25.289  0.00  0.00    -0.073 C 
ATOM     11  C   UNL     1      -3.334   3.137  25.405  0.00  0.00    -0.022 C 
ATOM     16  C   UNL     1      -1.246   4.477  25.383  0.00  0.00    +0.039 C 
ENDROOT
BRANCH   5   9
ATOM      9  C   UNL     1      -4.071  -0.668  25.227  0.00  0.00    -0.013 C 
ATOM     14  C   UNL     1      -4.299  -1.508  23.974  0.00  0.00    +0.007 C 
ATOM     15  C   UNL     1      -3.264  -1.447  26.260  0.00  0.00    +0.007 C 
ENDBRANCH   5   9
BRANCH   8  12
ATOM     12  C   UNL     1      -0.620   1.829  23.677  0.00  0.00    +0.103 C 
BRANCH  12  17
ATOM      2  O   UNL     1      -0.078  -0.501  24.038  0.00  0.00    -0.276 OA
ATOM      3  N   UNL     1       1.139   0.730  22.488  0.00  0.00    -0.311 N 
ATOM     17  C   UNL     1       0.152   0.550  23.445  0.00  0.00    +0.214 C 
ATOM     25  H   UNL     1       1.251   1.639  22.049  0.00  0.00    +0.149 HD
BRANCH   3  18
ATOM     18  C   UNL     1       2.032  -0.325  22.067  0.00  0.00    +0.141 C 
BRANCH  18  19
ATOM      4  N   UNL     1       4.953  -1.437  24.197  0.00  0.00    -0.263 NA
ATOM     19  C   UNL     1       3.333  -0.291  22.815  0.00  0.00    -0.012 A 
ATOM     20  C   UNL     1       4.115   0.859  22.841  0.00  0.00    +0.008 A 
ATOM     21  C   UNL     1       3.793  -1.402  23.503  0.00  0.00    +0.115 A 
ATOM     22  C   UNL     1       5.315   0.863  23.544  0.00  0.00    +0.020 A 
ATOM     23  C   UNL     1       5.685  -0.300  24.199  0.00  0.00    +0.111 A 
ENDBRANCH  18  19
ENDBRANCH   3  18
ENDBRANCH  12  17
ENDBRANCH   8  12
BRANCH   7  13
ATOM     13  C   UNL     1      -5.385   2.119  24.439  0.00  0.00    +0.163 C 
BRANCH  13   1
ATOM      1  O   UNL     1      -6.553   1.946  25.217  0.00  0.00    -0.394 OA
ATOM     24  H   UNL     1      -6.953   1.101  24.950  0.00  0.00    +0.209 HD
ENDBRANCH  13   1
ENDBRANCH   7  13
TORSDOF 7
ENDMDL
MODEL 2
REMARK VINA RESULT:      -6.7      1.342      3.015
REMARK  Name = 38030170
REMARK  10 active torsions:
REMARK  status: ('A' for Active; 'I' for Inactive)
REMARK    1  A    between atoms: O_1  and  C_13
REMARK    2  A    between atoms: N_3  and  C_18
REMARK    3  A    between atoms: C_5  and  C_9
REMARK    4  A    between atoms: C_7  and  C_13
REMARK    5  A    between atoms: C_8  and  C_12
REMARK    6  A    between atoms: C_9  and  C_14
REMARK    7  A    between atoms: C_9  and  C_15
REMARK    8  A    between atoms: C_10  and  C_16
REMARK    9  A    between atoms: C_12  and  C_17
REMARK   10  A    between atoms: C_18  and  C_19
REMARK                            x       y       z     vdW  Elec       q    Type
REMARK                         _______ _______ _______ _____ _____    ______ ____
ROOT
ATOM      5  C   UNL     1      -3.544   1.730  24.340  0.00  0.00    +0.001 C 
ATOM      6  C   UNL     1      -2.696   0.947  23.325  0.00  0.00    +0.012 C 
ATOM      7  C   UNL     1      -4.737   0.868  24.826  0.00  0.00    +0.040 C 
ATOM      8  C   UNL     1      -2.144  -0.364  23.916  0.00  0.00    +0.023 C 
ATOM     10  C   UNL     1      -3.214  -1.146  24.650  0.00  0.00    -0.073 C 
ATOM     11  C   UNL     1      -4.373  -0.582  25.037  0.00  0.00    -0.022 C 
ATOM     16  C   UNL     1      -2.942  -2.605  24.890  0.00  0.00    +0.039 C 
ENDROOT
BRANCH   5   9
ATOM      9  C   UNL     1      -4.012   3.049  23.717  0.00  0.00    -0.013 C 
ATOM     14  C   UNL     1      -3.536   4.231  24.554  0.00  0.00    +0.007 C 
ATOM     15  C   UNL     1      -3.512   3.166  22.281  0.00  0.00    +0.007 C 
ENDBRANCH   5   9
BRANCH   8  12
ATOM     12  C   UNL     1      -0.940  -0.095  24.826  0.00  0.00    +0.103 C 
BRANCH  12  17
ATOM      2  O   UNL     1       0.536   1.754  24.323  0.00  0.00    -0.276 OA
ATOM      3  N   UNL     1       0.747  -0.233  23.137  0.00  0.00    -0.311 N 
ATOM     17  C   UNL     1       0.184   0.601  24.091  0.00  0.00    +0.214 C 
ATOM     25  H   UNL     1       0.388  -1.176  23.022  0.00  0.00    +0.149 HD
BRANCH   3  18
ATOM     18  C   UNL     1       1.841   0.170  22.284  0.00  0.00    +0.141 C 
BRANCH  18  19
ATOM      4  N   UNL     1       4.655  -1.616  24.072  0.00  0.00    -0.263 NA
ATOM     19  C   UNL     1       3.175  -0.088  22.921  0.00  0.00    -0.012 A 
ATOM     20  C   UNL     1       4.149   0.903  22.969  0.00  0.00    +0.008 A 
ATOM     21  C   UNL     1       3.475  -1.319  23.482  0.00  0.00    +0.115 A 
ATOM     22  C   UNL     1       5.376   0.637  23.568  0.00  0.00    +0.020 A 
ATOM     23  C   UNL     1       5.577  -0.627  24.100  0.00  0.00    +0.111 A 
ENDBRANCH  18  19
ENDBRANCH   3  18
ENDBRANCH  12  17
ENDBRANCH   8  12
BRANCH   7  13
ATOM     13  C   UNL     1      -5.340   1.436  26.115  0.00  0.00    +0.163 C 
BRANCH  13   1
ATOM      1  O   UNL     1      -6.586   2.027  25.800  0.00  0.00    -0.394 OA
ATOM     24  H   UNL     1      -6.711   1.938  24.840  0.00  0.00    +0.209 HD
ENDBRANCH  13   1
ENDBRANCH   7  13
TORSDOF 7
ENDMDL
MODEL 3
REMARK VINA RESULT:      -5.9      2.791      6.491
REMARK  Name = 38030170
REMARK  10 active torsions:
REMARK  status: ('A' for Active; 'I' for Inactive)
REMARK    1  A    between atoms: O_1  and  C_13
REMARK    2  A    between atoms: N_3  and  C_18
REMARK    3  A    between atoms: C_5  and  C_9
REMARK    4  A    between atoms: C_7  and  C_13
REMARK    5  A    between atoms: C_8  and  C_12
REMARK    6  A    between atoms: C_9  and  C_14
REMARK    7  A    between atoms: C_9  and  C_15
REMARK    8  A    between atoms: C_10  and  C_16
REMARK    9  A    between atoms: C_12  and  C_17
REMARK   10  A    between atoms: C_18  and  C_19
REMARK                            x       y       z     vdW  Elec       q    Type
REMARK                         _______ _______ _______ _____ _____    ______ ____
ROOT
ATOM      5  C   UNL     1      -1.698  -0.162  24.655  0.00  0.00    +0.001 C 
ATOM      6  C   UNL     1      -1.483   0.994  23.665  0.00  0.00    +0.012 C 
ATOM      7  C   UNL     1      -1.022  -1.454  24.131  0.00  0.00    +0.040 C 
ATOM      8  C   UNL     1       0.010   1.286  23.426  0.00  0.00    +0.023 C 
ATOM     10  C   UNL     1       0.798   0.018  23.167  0.00  0.00    -0.073 C 
ATOM     11  C   UNL     1       0.314  -1.199  23.476  0.00  0.00    -0.022 C 
ATOM     16  C   UNL     1       2.136   0.176  22.500  0.00  0.00    +0.039 C 
ENDROOT
BRANCH   5   9
ATOM      9  C   UNL     1      -3.197  -0.363  24.899  0.00  0.00    -0.013 C 
ATOM     14  C   UNL     1      -3.830  -1.112  23.732  0.00  0.00    +0.007 C 
ATOM     15  C   UNL     1      -3.427  -1.110  26.210  0.00  0.00    +0.007 C 
ENDBRANCH   5   9
BRANCH   8  12
ATOM     12  C   UNL     1       0.612   2.076  24.593  0.00  0.00    +0.103 C 
BRANCH  12  17
ATOM      2  O   UNL     1      -0.656   2.582  26.590  0.00  0.00    -0.276 OA
ATOM      3  N   UNL     1      -1.133   3.710  24.615  0.00  0.00    -0.311 N 
ATOM     17  C   UNL     1      -0.446   2.795  25.399  0.00  0.00    +0.214 C 
ATOM     25  H   UNL     1      -0.884   3.818  23.636  0.00  0.00    +0.149 HD
BRANCH   3  18
ATOM     18  C   UNL     1      -2.202   4.539  25.122  0.00  0.00    +0.141 C 
BRANCH  18  19
ATOM      4  N   UNL     1      -5.452   3.158  26.476  0.00  0.00    -0.263 NA
ATOM     19  C   UNL     1      -3.504   3.795  25.194  0.00  0.00    -0.012 A 
ATOM     20  C   UNL     1      -3.976   3.071  24.104  0.00  0.00    +0.008 A 
ATOM     21  C   UNL     1      -4.273   3.807  26.346  0.00  0.00    +0.115 A 
ATOM     22  C   UNL     1      -5.185   2.390  24.199  0.00  0.00    +0.020 A 
ATOM     23  C   UNL     1      -5.878   2.464  25.396  0.00  0.00    +0.111 A 
ENDBRANCH  18  19
ENDBRANCH   3  18
ENDBRANCH  12  17
ENDBRANCH   8  12
BRANCH   7  13
ATOM     13  C   UNL     1      -0.852  -2.483  25.254  0.00  0.00    +0.163 C 
BRANCH  13   1
ATOM      1  O   UNL     1       0.356  -2.204  25.933  0.00  0.00    -0.394 OA
ATOM     24  H   UNL     1       0.297  -1.290  26.261  0.00  0.00    +0.209 HD
ENDBRANCH  13   1
ENDBRANCH   7  13
TORSDOF 7
ENDMDL
MODEL 4
REMARK VINA RESULT:      -5.8      3.100      5.331
REMARK  Name = 38030170
REMARK  10 active torsions:
REMARK  status: ('A' for Active; 'I' for Inactive)
REMARK    1  A    between atoms: O_1  and  C_13
REMARK    2  A    between atoms: N_3  and  C_18
REMARK    3  A    between atoms: C_5  and  C_9
REMARK    4  A    between atoms: C_7  and  C_13
REMARK    5  A    between atoms: C_8  and  C_12
REMARK    6  A    between atoms: C_9  and  C_14
REMARK    7  A    between atoms: C_9  and  C_15
REMARK    8  A    between atoms: C_10  and  C_16
REMARK    9  A    between atoms: C_12  and  C_17
REMARK   10  A    between atoms: C_18  and  C_19
REMARK                            x       y       z     vdW  Elec       q    Type
REMARK                         _______ _______ _______ _____ _____    ______ ____
ROOT
ATOM      5  C   UNL     1      -3.017   1.208  23.913  0.00  0.00    +0.001 C 
ATOM      6  C   UNL     1      -2.319   0.116  23.087  0.00  0.00    +0.012 C 
ATOM      7  C   UNL     1      -4.444   0.756  24.311  0.00  0.00    +0.040 C 
ATOM      8  C   UNL     1      -2.214  -1.216  23.855  0.00  0.00    +0.023 C 
ATOM     10  C   UNL     1      -3.527  -1.595  24.508  0.00  0.00    -0.073 C 
ATOM     11  C   UNL     1      -4.517  -0.704  24.691  0.00  0.00    -0.022 C 
ATOM     16  C   UNL     1      -3.694  -3.036  24.904  0.00  0.00    +0.039 C 
ENDROOT
BRANCH   5   9
ATOM      9  C   UNL     1      -3.036   2.521  23.124  0.00  0.00    -0.013 C 
ATOM     14  C   UNL     1      -2.657   2.273  21.668  0.00  0.00    +0.007 C 
ATOM     15  C   UNL     1      -4.409   3.180  23.221  0.00  0.00    +0.007 C 
ENDBRANCH   5   9
BRANCH   8  12
ATOM     12  C   UNL     1      -1.081  -1.169  24.887  0.00  0.00    +0.103 C 
BRANCH  12  17
ATOM      2  O   UNL     1       0.470   0.346  23.814  0.00  0.00    -0.276 OA
ATOM      3  N   UNL     1      -0.434   0.907  25.879  0.00  0.00    -0.311 N 
ATOM     17  C   UNL     1      -0.257   0.093  24.771  0.00  0.00    +0.214 C 
ATOM     25  H   UNL     1      -1.061   0.613  26.622  0.00  0.00    +0.149 HD
BRANCH   3  18
ATOM     18  C   UNL     1       0.233   2.179  26.040  0.00  0.00    +0.141 C 
BRANCH  18  19
ATOM      4  N   UNL     1      -2.807   4.422  26.208  0.00  0.00    -0.263 NA
ATOM     19  C   UNL     1      -0.690   3.334  25.782  0.00  0.00    -0.012 A 
ATOM     20  C   UNL     1      -0.330   4.359  24.915  0.00  0.00    +0.008 A 
ATOM     21  C   UNL     1      -1.929   3.412  26.398  0.00  0.00    +0.115 A 
ATOM     22  C   UNL     1      -1.206   5.416  24.693  0.00  0.00    +0.020 A 
ATOM     23  C   UNL     1      -2.421   5.401  25.358  0.00  0.00    +0.111 A 
ENDBRANCH  18  19
ENDBRANCH   3  18
ENDBRANCH  12  17
ENDBRANCH   8  12
BRANCH   7  13
ATOM     13  C   UNL     1      -4.995   1.610  25.459  0.00  0.00    +0.163 C 
BRANCH  13   1
ATOM      1  O   UNL     1      -6.390   1.749  25.278  0.00  0.00    -0.394 OA
ATOM     24  H   UNL     1      -6.669   2.533  25.782  0.00  0.00    +0.209 HD
ENDBRANCH  13   1
ENDBRANCH   7  13
TORSDOF 7
ENDMDL
MODEL 5
REMARK VINA RESULT:      -5.1      3.640      5.029
REMARK  Name = 38030170
REMARK  10 active torsions:
REMARK  status: ('A' for Active; 'I' for Inactive)
REMARK    1  A    between atoms: O_1  and  C_13
REMARK    2  A    between atoms: N_3  and  C_18
REMARK    3  A    between atoms: C_5  and  C_9
REMARK    4  A    between atoms: C_7  and  C_13
REMARK    5  A    between atoms: C_8  and  C_12
REMARK    6  A    between atoms: C_9  and  C_14
REMARK    7  A    between atoms: C_9  and  C_15
REMARK    8  A    between atoms: C_10  and  C_16
REMARK    9  A    between atoms: C_12  and  C_17
REMARK   10  A    between atoms: C_18  and  C_19
REMARK                            x       y       z     vdW  Elec       q    Type
REMARK                         _______ _______ _______ _____ _____    ______ ____
ROOT
ATOM      5  C   UNL     1      -3.917   2.774  25.023  0.00  0.00    +0.001 C 
ATOM      6  C   UNL     1      -3.567   3.839  26.074  0.00  0.00    +0.012 C 
ATOM      7  C   UNL     1      -3.505   3.254  23.609  0.00  0.00    +0.040 C 
ATOM      8  C   UNL     1      -2.063   4.171  26.089  0.00  0.00    +0.023 C 
ATOM     10  C   UNL     1      -1.521   4.395  24.692  0.00  0.00    -0.073 C 
ATOM     11  C   UNL     1      -2.186   3.991  23.595  0.00  0.00    -0.022 C 
ATOM     16  C   UNL     1      -0.218   5.137  24.582  0.00  0.00    +0.039 C 
ENDROOT
BRANCH   5   9
ATOM      9  C   UNL     1      -5.410   2.441  25.099  0.00  0.00    -0.013 C 
ATOM     14  C   UNL     1      -5.635   1.197  25.951  0.00  0.00    +0.007 C 
ATOM     15  C   UNL     1      -6.192   3.627  25.655  0.00  0.00    +0.007 C 
ENDBRANCH   5   9
BRANCH   8  12
ATOM     12  C   UNL     1      -1.265   3.084  26.818  0.00  0.00    +0.103 C 
BRANCH  12  17
ATOM      2  O   UNL     1       0.555   2.361  25.399  0.00  0.00    -0.276 OA
ATOM      3  N   UNL     1      -1.352   1.046  25.571  0.00  0.00    -0.311 N 
ATOM     17  C   UNL     1      -0.564   2.150  25.857  0.00  0.00    +0.214 C 
ATOM     25  H   UNL     1      -2.267   0.958  26.004  0.00  0.00    +0.149 HD
BRANCH   3  18
ATOM     18  C   UNL     1      -0.936  -0.012  24.679  0.00  0.00    +0.141 C 
BRANCH  18  19
ATOM      4  N   UNL     1      -2.672  -3.363  24.434  0.00  0.00    -0.263 NA
ATOM     19  C   UNL     1      -2.015  -1.036  24.481  0.00  0.00    -0.012 A 
ATOM     20  C   UNL     1      -3.315  -0.655  24.166  0.00  0.00    +0.008 A 
ATOM     21  C   UNL     1      -1.748  -2.390  24.602  0.00  0.00    +0.115 A 
ATOM     22  C   UNL     1      -4.294  -1.627  23.985  0.00  0.00    +0.020 A 
ATOM     23  C   UNL     1      -3.925  -2.954  24.129  0.00  0.00    +0.111 A 
ENDBRANCH  18  19
ENDBRANCH   3  18
ENDBRANCH  12  17
ENDBRANCH   8  12
BRANCH   7  13
ATOM     13  C   UNL     1      -3.446   2.083  22.622  0.00  0.00    +0.163 C 
BRANCH  13   1
ATOM      1  O   UNL     1      -2.110   1.939  22.184  0.00  0.00    -0.394 OA
ATOM     24  H   UNL     1      -1.907   2.706  21.622  0.00  0.00    +0.209 HD
ENDBRANCH  13   1
ENDBRANCH   7  13
TORSDOF 7
ENDMDL
MODEL 6
REMARK VINA RESULT:      -4.6      3.435      6.901
REMARK  Name = 38030170
REMARK  10 active torsions:
REMARK  status: ('A' for Active; 'I' for Inactive)
REMARK    1  A    between atoms: O_1  and  C_13
REMARK    2  A    between atoms: N_3  and  C_18
REMARK    3  A    between atoms: C_5  and  C_9
REMARK    4  A    between atoms: C_7  and  C_13
REMARK    5  A    between atoms: C_8  and  C_12
REMARK    6  A    between atoms: C_9  and  C_14
REMARK    7  A    between atoms: C_9  and  C_15
REMARK    8  A    between atoms: C_10  and  C_16
REMARK    9  A    between atoms: C_12  and  C_17
REMARK   10  A    between atoms: C_18  and  C_19
REMARK                            x       y       z     vdW  Elec       q    Type
REMARK                         _______ _______ _______ _____ _____    ______ ____
ROOT
ATOM      5  C   UNL     1      -0.934   0.536  24.413  0.00  0.00    +0.001 C 
ATOM      6  C   UNL     1      -2.008   0.277  25.482  0.00  0.00    +0.012 C 
ATOM      7  C   UNL     1      -0.056  -0.725  24.214  0.00  0.00    +0.040 C 
ATOM      8  C   UNL     1      -2.924  -0.905  25.112  0.00  0.00    +0.023 C 
ATOM     10  C   UNL     1      -2.132  -2.108  24.644  0.00  0.00    -0.073 C 
ATOM     11  C   UNL     1      -0.846  -2.011  24.259  0.00  0.00    -0.022 C 
ATOM     16  C   UNL     1      -2.836  -3.436  24.672  0.00  0.00    +0.039 C 
ENDROOT
BRANCH   5   9
ATOM      9  C   UNL     1      -0.096   1.756  24.805  0.00  0.00    -0.013 C 
ATOM     14  C   UNL     1      -0.437   2.944  23.911  0.00  0.00    +0.007 C 
ATOM     15  C   UNL     1      -0.315   2.104  26.274  0.00  0.00    +0.007 C 
ENDBRANCH   5   9
BRANCH   8  12
ATOM     12  C   UNL     1      -3.963  -0.490  24.064  0.00  0.00    +0.103 C 
BRANCH  12  17
ATOM      2  O   UNL     1      -3.665   1.767  23.248  0.00  0.00    -0.276 OA
ATOM      3  N   UNL     1      -5.069   1.382  25.059  0.00  0.00    -0.311 N 
ATOM     17  C   UNL     1      -4.194   1.004  24.052  0.00  0.00    +0.214 C 
ATOM     25  H   UNL     1      -5.459   0.674  25.675  0.00  0.00    +0.149 HD
BRANCH   3  18
ATOM     18  C   UNL     1      -5.469   2.752  25.284  0.00  0.00    +0.141 C 
BRANCH  18  19
ATOM      4  N   UNL     1      -2.950   5.350  24.186  0.00  0.00    -0.263 NA
ATOM     19  C   UNL     1      -4.293   3.684  25.312  0.00  0.00    -0.012 A 
ATOM     20  C   UNL     1      -3.467   3.761  26.427  0.00  0.00    +0.008 A 
ATOM     21  C   UNL     1      -3.994   4.492  24.226  0.00  0.00    +0.115 A 
ATOM     22  C   UNL     1      -2.382   4.633  26.424  0.00  0.00    +0.020 A 
ATOM     23  C   UNL     1      -2.169   5.398  25.289  0.00  0.00    +0.111 A 
ENDBRANCH  18  19
ENDBRANCH   3  18
ENDBRANCH  12  17
ENDBRANCH   8  12
BRANCH   7  13
ATOM     13  C   UNL     1       0.725  -0.652  22.896  0.00  0.00    +0.163 C 
BRANCH  13   1
ATOM      1  O   UNL     1       2.044  -0.231  23.185  0.00  0.00    -0.394 OA
ATOM     24  H   UNL     1       2.210  -0.431  24.122  0.00  0.00    +0.209 HD
ENDBRANCH  13   1
ENDBRANCH   7  13
TORSDOF 7
ENDMDL
MODEL 7
REMARK VINA RESULT:      -4.5      2.668      4.036
REMARK  Name = 38030170
REMARK  10 active torsions:
REMARK  status: ('A' for Active; 'I' for Inactive)
REMARK    1  A    between atoms: O_1  and  C_13
REMARK    2  A    between atoms: N_3  and  C_18
REMARK    3  A    between atoms: C_5  and  C_9
REMARK    4  A    between atoms: C_7  and  C_13
REMARK    5  A    between atoms: C_8  and  C_12
REMARK    6  A    between atoms: C_9  and  C_14
REMARK    7  A    between atoms: C_9  and  C_15
REMARK    8  A    between atoms: C_10  and  C_16
REMARK    9  A    between atoms: C_12  and  C_17
REMARK   10  A    between atoms: C_18  and  C_19
REMARK                            x       y       z     vdW  Elec       q    Type
REMARK                         _______ _______ _______ _____ _____    ______ ____
ROOT
ATOM      5  C   UNL     1      -3.938   1.188  24.847  0.00  0.00    +0.001 C 
ATOM      6  C   UNL     1      -4.986   2.059  25.557  0.00  0.00    +0.012 C 
ATOM      7  C   UNL     1      -3.794   1.617  23.365  0.00  0.00    +0.040 C 
ATOM      8  C   UNL     1      -4.624   3.556  25.514  0.00  0.00    +0.023 C 
ATOM     10  C   UNL     1      -4.208   3.995  24.126  0.00  0.00    -0.073 C 
ATOM     11  C   UNL     1      -3.853   3.113  23.174  0.00  0.00    -0.022 C 
ATOM     16  C   UNL     1      -4.253   5.471  23.840  0.00  0.00    +0.039 C 
ENDROOT
BRANCH   5   9
ATOM      9  C   UNL     1      -4.318  -0.290  24.976  0.00  0.00    -0.013 C 
ATOM     14  C   UNL     1      -4.063  -1.022  23.663  0.00  0.00    +0.007 C 
ATOM     15  C   UNL     1      -3.544  -0.942  26.118  0.00  0.00    +0.007 C 
ENDBRANCH   5   9
BRANCH   8  12
ATOM     12  C   UNL     1      -3.539   3.891  26.544  0.00  0.00    +0.103 C 
BRANCH  12  17
ATOM      2  O   UNL     1      -1.807   5.036  25.303  0.00  0.00    -0.276 OA
ATOM      3  N   UNL     1      -1.415   2.889  26.098  0.00  0.00    -0.311 N 
ATOM     17  C   UNL     1      -2.175   4.033  25.907  0.00  0.00    +0.214 C 
ATOM     25  H   UNL     1      -1.806   2.108  26.617  0.00  0.00    +0.149 HD
BRANCH   3  18
ATOM     18  C   UNL     1      -0.068   2.742  25.595  0.00  0.00    +0.141 C 
BRANCH  18  19
ATOM      4  N   UNL     1       1.137   0.242  23.026  0.00  0.00    -0.263 NA
ATOM     19  C   UNL     1       0.118   1.448  24.857  0.00  0.00    -0.012 A 
ATOM     20  C   UNL     1      -0.520   0.286  25.277  0.00  0.00    +0.008 A 
ATOM     21  C   UNL     1       0.929   1.374  23.736  0.00  0.00    +0.115 A 
ATOM     22  C   UNL     1      -0.331  -0.898  24.573  0.00  0.00    +0.020 A 
ATOM     23  C   UNL     1       0.500  -0.868  23.465  0.00  0.00    +0.111 A 
ENDBRANCH  18  19
ENDBRANCH   3  18
ENDBRANCH  12  17
ENDBRANCH   8  12
BRANCH   7  13
ATOM     13  C   UNL     1      -2.496   1.075  22.756  0.00  0.00    +0.163 C 
BRANCH  13   1
ATOM      1  O   UNL     1      -2.146   1.894  21.657  0.00  0.00    -0.394 OA
ATOM     24  H   UNL     1      -2.732   2.670  21.680  0.00  0.00    +0.209 HD
ENDBRANCH  13   1
ENDBRANCH   7  13
TORSDOF 7
ENDMDL
MODEL 8
REMARK VINA RESULT:      -4.2      3.600      5.652
REMARK  Name = 38030170
REMARK  10 active torsions:
REMARK  status: ('A' for Active; 'I' for Inactive)
REMARK    1  A    between atoms: O_1  and  C_13
REMARK    2  A    between atoms: N_3  and  C_18
REMARK    3  A    between atoms: C_5  and  C_9
REMARK    4  A    between atoms: C_7  and  C_13
REMARK    5  A    between atoms: C_8  and  C_12
REMARK    6  A    between atoms: C_9  and  C_14
REMARK    7  A    between atoms: C_9  and  C_15
REMARK    8  A    between atoms: C_10  and  C_16
REMARK    9  A    between atoms: C_12  and  C_17
REMARK   10  A    between atoms: C_18  and  C_19
REMARK                            x       y       z     vdW  Elec       q    Type
REMARK                         _______ _______ _______ _____ _____    ______ ____
ROOT
ATOM      5  C   UNL     1      -3.314  -0.882  24.999  0.00  0.00    +0.001 C 
ATOM      6  C   UNL     1      -4.559  -0.665  24.125  0.00  0.00    +0.012 C 
ATOM      7  C   UNL     1      -2.098  -0.128  24.405  0.00  0.00    +0.040 C 
ATOM      8  C   UNL     1      -4.925   0.825  23.992  0.00  0.00    +0.023 C 
ATOM     10  C   UNL     1      -3.715   1.676  23.669  0.00  0.00    -0.073 C 
ATOM     11  C   UNL     1      -2.459   1.229  23.847  0.00  0.00    -0.022 C 
ATOM     16  C   UNL     1      -3.979   3.039  23.091  0.00  0.00    +0.039 C 
ENDROOT
BRANCH   5   9
ATOM      9  C   UNL     1      -3.037  -2.381  25.145  0.00  0.00    -0.013 C 
ATOM     14  C   UNL     1      -4.004  -3.187  24.284  0.00  0.00    +0.007 C 
ATOM     15  C   UNL     1      -1.591  -2.694  24.773  0.00  0.00    +0.007 C 
ENDBRANCH   5   9
BRANCH   8  12
ATOM     12  C   UNL     1      -5.632   1.334  25.253  0.00  0.00    +0.103 C 
BRANCH  12  17
ATOM      2  O   UNL     1      -5.824   3.743  25.363  0.00  0.00    -0.276 OA
ATOM      3  N   UNL     1      -3.978   2.697  26.312  0.00  0.00    -0.311 N 
ATOM     17  C   UNL     1      -5.186   2.728  25.632  0.00  0.00    +0.214 C 
ATOM     25  H   UNL     1      -3.527   1.805  26.491  0.00  0.00    +0.149 HD
BRANCH   3  18
ATOM     18  C   UNL     1      -3.313   3.886  26.794  0.00  0.00    +0.141 C 
BRANCH  18  19
ATOM      4  N   UNL     1       0.072   3.649  25.124  0.00  0.00    -0.263 NA
ATOM     19  C   UNL     1      -2.120   4.241  25.955  0.00  0.00    -0.012 A 
ATOM     20  C   UNL     1      -2.071   5.439  25.250  0.00  0.00    +0.008 A 
ATOM     21  C   UNL     1      -1.032   3.389  25.859  0.00  0.00    +0.115 A 
ATOM     22  C   UNL     1      -0.952   5.744  24.483  0.00  0.00    +0.020 A 
ATOM     23  C   UNL     1       0.083   4.824  24.453  0.00  0.00    +0.111 A 
ENDBRANCH  18  19
ENDBRANCH   3  18
ENDBRANCH  12  17
ENDBRANCH   8  12
BRANCH   7  13
ATOM     13  C   UNL     1      -0.982   0.028  25.444  0.00  0.00    +0.163 C 
BRANCH  13   1
ATOM      1  O   UNL     1       0.167   0.528  24.789  0.00  0.00    -0.394 OA
ATOM     24  H   UNL     1       0.609   1.135  25.407  0.00  0.00    +0.209 HD
ENDBRANCH  13   1
ENDBRANCH   7  13
TORSDOF 7
ENDMDL
MODEL 9
REMARK VINA RESULT:      -4.2      3.182      5.952
REMARK  Name = 38030170
REMARK  10 active torsions:
REMARK  status: ('A' for Active; 'I' for Inactive)
REMARK    1  A    between atoms: O_1  and  C_13
REMARK    2  A    between atoms: N_3  and  C_18
REMARK    3  A    between atoms: C_5  and  C_9
REMARK    4  A    between atoms: C_7  and  C_13
REMARK    5  A    between atoms: C_8  and  C_12
REMARK    6  A    between atoms: C_9  and  C_14
REMARK    7  A    between atoms: C_9  and  C_15
REMARK    8  A    between atoms: C_10  and  C_16
REMARK    9  A    between atoms: C_12  and  C_17
REMARK   10  A    between atoms: C_18  and  C_19
REMARK                            x       y       z     vdW  Elec       q    Type
REMARK                         _______ _______ _______ _____ _____    ______ ____
ROOT
ATOM      5  C   UNL     1      -1.658   2.088  24.425  0.00  0.00    +0.001 C 
ATOM      6  C   UNL     1      -2.769   2.922  23.766  0.00  0.00    +0.012 C 
ATOM      7  C   UNL     1      -0.352   2.915  24.529  0.00  0.00    +0.040 C 
ATOM      8  C   UNL     1      -3.069   4.214  24.549  0.00  0.00    +0.023 C 
ATOM     10  C   UNL     1      -1.800   4.952  24.925  0.00  0.00    -0.073 C 
ATOM     11  C   UNL     1      -0.593   4.359  24.896  0.00  0.00    -0.022 C 
ATOM     16  C   UNL     1      -1.944   6.404  25.290  0.00  0.00    +0.039 C 
ENDROOT
BRANCH   5   9
ATOM      9  C   UNL     1      -1.449   0.790  23.639  0.00  0.00    -0.013 C 
ATOM     14  C   UNL     1      -2.182   0.854  22.303  0.00  0.00    +0.007 C 
ATOM     15  C   UNL     1       0.039   0.530  23.428  0.00  0.00    +0.007 C 
ENDBRANCH   5   9
BRANCH   8  12
ATOM     12  C   UNL     1      -3.921   3.923  25.789  0.00  0.00    +0.103 C 
BRANCH  12  17
ATOM      2  O   UNL     1      -6.162   3.085  25.434  0.00  0.00    -0.276 OA
ATOM      3  N   UNL     1      -4.372   1.604  25.415  0.00  0.00    -0.311 N 
ATOM     17  C   UNL     1      -4.960   2.855  25.528  0.00  0.00    +0.214 C 
ATOM     25  H   UNL     1      -3.364   1.515  25.505  0.00  0.00    +0.149 HD
BRANCH   3  18
ATOM     18  C   UNL     1      -5.125   0.397  25.167  0.00  0.00    +0.141 C 
BRANCH  18  19
ATOM      4  N   UNL     1      -2.304  -2.076  25.645  0.00  0.00    -0.263 NA
ATOM     19  C   UNL     1      -4.230  -0.789  24.953  0.00  0.00    -0.012 A 
ATOM     20  C   UNL     1      -4.461  -1.682  23.912  0.00  0.00    +0.008 A 
ATOM     21  C   UNL     1      -3.148  -1.029  25.784  0.00  0.00    +0.115 A 
ATOM     22  C   UNL     1      -3.615  -2.771  23.736  0.00  0.00    +0.020 A 
ATOM     23  C   UNL     1      -2.560  -2.922  24.621  0.00  0.00    +0.111 A 
ENDBRANCH  18  19
ENDBRANCH   3  18
ENDBRANCH  12  17
ENDBRANCH   8  12
BRANCH   7  13
ATOM     13  C   UNL     1       0.621   2.288  25.534  0.00  0.00    +0.163 C 
BRANCH  13   1
ATOM      1  O   UNL     1       0.014   2.308  26.811  0.00  0.00    -0.394 OA
ATOM     24  H   UNL     1      -0.268   3.224  26.980  0.00  0.00    +0.209 HD
ENDBRANCH  13   1
ENDBRANCH   7  13
TORSDOF 7
ENDMDL
MODEL 10
REMARK VINA RESULT:      -3.9      3.415      5.591
REMARK  Name = 38030170
REMARK  10 active torsions:
REMARK  status: ('A' for Active; 'I' for Inactive)
REMARK    1  A    between atoms: O_1  and  C_13
REMARK    2  A    between atoms: N_3  and  C_18
REMARK    3  A    between atoms: C_5  and  C_9
REMARK    4  A    between atoms: C_7  and  C_13
REMARK    5  A    between atoms: C_8  and  C_12
REMARK    6  A    between atoms: C_9  and  C_14
REMARK    7  A    between atoms: C_9  and  C_15
REMARK    8  A    between atoms: C_10  and  C_16
REMARK    9  A    between atoms: C_12  and  C_17
REMARK   10  A    between atoms: C_18  and  C_19
REMARK                            x       y       z     vdW  Elec       q    Type
REMARK                         _______ _______ _______ _____ _____    ______ ____
ROOT
ATOM      5  C   UNL     1      -2.554   2.104  24.296  0.00  0.00    +0.001 C 
ATOM      6  C   UNL     1      -3.653   3.095  23.881  0.00  0.00    +0.012 C 
ATOM      7  C   UNL     1      -1.384   2.852  24.983  0.00  0.00    +0.040 C 
ATOM      8  C   UNL     1      -4.213   3.880  25.083  0.00  0.00    +0.023 C 
ATOM     10  C   UNL     1      -3.108   4.425  25.963  0.00  0.00    -0.073 C 
ATOM     11  C   UNL     1      -1.846   3.963  25.895  0.00  0.00    -0.022 C 
ATOM     16  C   UNL     1      -3.474   5.548  26.893  0.00  0.00    +0.039 C 
ENDROOT
BRANCH   5   9
ATOM      9  C   UNL     1      -2.082   1.311  23.074  0.00  0.00    -0.013 C 
ATOM     14  C   UNL     1      -2.471   2.034  21.788  0.00  0.00    +0.007 C 
ATOM     15  C   UNL     1      -0.575   1.087  23.134  0.00  0.00    +0.007 C 
ENDBRANCH   5   9
BRANCH   8  12
ATOM     12  C   UNL     1      -5.189   3.023  25.896  0.00  0.00    +0.103 C 
BRANCH  12  17
ATOM      2  O   UNL     1      -6.554   1.691  24.408  0.00  0.00    -0.276 OA
ATOM      3  N   UNL     1      -4.723   0.719  25.458  0.00  0.00    -0.311 N 
ATOM     17  C   UNL     1      -5.587   1.762  25.162  0.00  0.00    +0.214 C 
ATOM     25  H   UNL     1      -3.947   0.878  26.094  0.00  0.00    +0.149 HD
BRANCH   3  18
ATOM     18  C   UNL     1      -4.864  -0.606  24.900  0.00  0.00    +0.141 C 
BRANCH  18  19
ATOM      4  N   UNL     1      -2.224  -3.142  23.949  0.00  0.00    -0.263 NA
ATOM     19  C   UNL     1      -3.555  -1.340  24.859  0.00  0.00    -0.012 A 
ATOM     20  C   UNL     1      -2.485  -0.940  25.652  0.00  0.00    +0.008 A 
ATOM     21  C   UNL     1      -3.375  -2.437  24.032  0.00  0.00    +0.115 A 
ATOM     22  C   UNL     1      -1.284  -1.640  25.595  0.00  0.00    +0.020 A 
ATOM     23  C   UNL     1      -1.206  -2.724  24.735  0.00  0.00    +0.111 A 
ENDBRANCH  18  19
ENDBRANCH   3  18
ENDBRANCH  12  17
ENDBRANCH   8  12
BRANCH   7  13
ATOM     13  C   UNL     1      -0.493   1.883  25.769  0.00  0.00    +0.163 C 
BRANCH  13   1
ATOM      1  O   UNL     1       0.604   2.609  26.286  0.00  0.00    -0.394 OA
ATOM     24  H   UNL     1       0.576   3.495  25.886  0.00  0.00    +0.209 HD
ENDBRANCH  13   1
ENDBRANCH   7  13
TORSDOF 7
ENDMDL
