MODEL 1
REMARK VINA RESULT:      19.0      0.000      0.000
REMARK  Name = 7135091
REMARK  12 active torsions:
REMARK  status: ('A' for Active; 'I' for Inactive)
REMARK    1  A    between atoms: O_2  and  C_16
REMARK    2  A    between atoms: O_3  and  C_21
REMARK    3  A    between atoms: C_11  and  C_19
REMARK    4  A    between atoms: C_13  and  C_21
REMARK    5  A    between atoms: C_13  and  C_22
REMARK    6  A    between atoms: C_14  and  C_24
REMARK    7  A    between atoms: C_24  and  C_25
REMARK    8  A    between atoms: C_31  and  C_32
REMARK    9  A    between atoms: C_32  and  C_34
REMARK   10  A    between atoms: C_32  and  C_35
REMARK   11  A    between atoms: C_32  and  C_36
REMARK   12  A    between atoms: C_33  and  C_37
REMARK                            x       y       z     vdW  Elec       q    Type
REMARK                         _______ _______ _______ _____ _____    ______ ____
ROOT
ATOM      1  S   UNL     1      -0.831  -0.887  23.909  0.00  0.00    -0.057 S 
ATOM      5  O   UNL     1       2.793   1.959  23.351  0.00  0.00    -0.275 OA
ATOM      7  N   UNL     1      -0.053   1.580  23.987  0.00  0.00    -0.229 NA
ATOM      9  N   UNL     1       1.610  -0.067  23.414  0.00  0.00    -0.264 N 
ATOM     11  C   UNL     1      -3.732   2.586  24.555  0.00  0.00    -0.019 C 
ATOM     12  C   UNL     1      -4.066   1.232  25.325  0.00  0.00    +0.011 C 
ATOM     13  C   UNL     1      -5.569   0.995  25.738  0.00  0.00    +0.021 C 
ATOM     14  C   UNL     1      -2.153   2.820  24.632  0.00  0.00    +0.054 C 
ATOM     15  C   UNL     1      -4.437   3.770  25.267  0.00  0.00    +0.010 C 
ATOM     16  C   UNL     1      -6.132   2.289  26.391  0.00  0.00    +0.123 C 
ATOM     17  C   UNL     1      -3.405   0.006  24.631  0.00  0.00    +0.049 C 
ATOM     18  C   UNL     1      -5.916   3.536  25.538  0.00  0.00    +0.032 C 
ATOM     19  C   UNL     1      -4.178   2.561  23.073  0.00  0.00    +0.012 C 
ATOM     20  C   UNL     1      -1.401   1.558  24.295  0.00  0.00    +0.058 A 
ATOM     22  C   UNL     1      -5.629  -0.128  26.811  0.00  0.00    +0.016 C 
ATOM     23  C   UNL     1      -1.977   0.304  24.319  0.00  0.00    +0.015 A 
ATOM     26  C   UNL     1       0.351   0.350  23.758  0.00  0.00    +0.165 A 
ATOM     31  C   UNL     1       2.752   0.736  23.229  0.00  0.00    +0.224 C 
ATOM     40  H   UNL     1       1.696  -1.071  23.285  0.00  0.00    +0.157 HD
ENDROOT
BRANCH  31  32
ATOM     32  C   UNL     1       4.022  -0.062  22.838  0.00  0.00    +0.039 C 
ATOM     34  C   UNL     1       5.260   0.601  23.471  0.00  0.00    +0.020 C 
ATOM     35  C   UNL     1       4.200  -0.060  21.311  0.00  0.00    +0.020 C 
ATOM     36  C   UNL     1       3.925  -1.504  23.359  0.00  0.00    +0.020 C 
ENDBRANCH  31  32
BRANCH  16   2
ATOM      2  O   UNL     1      -7.527   2.152  26.657  0.00  0.00    -0.391 OA
ATOM     38  H   UNL     1      -7.638   2.095  27.622  0.00  0.00    +0.210 HD
ENDBRANCH  16   2
BRANCH  13  21
ATOM     21  C   UNL     1      -6.483   0.518  24.585  0.00  0.00    +0.165 C 
BRANCH  21   3
ATOM      3  O   UNL     1      -7.338   1.586  24.244  0.00  0.00    -0.394 OA
ATOM     39  H   UNL     1      -7.821   1.838  25.049  0.00  0.00    +0.209 HD
ENDBRANCH  21   3
ENDBRANCH  13  21
BRANCH  14  24
ATOM     24  C   UNL     1      -1.645   4.014  23.811  0.00  0.00    +0.106 C 
BRANCH  24  25
ATOM      4  O   UNL     1       0.509   4.951  23.499  0.00  0.00    -0.276 OA
ATOM      6  O   UNL     1       0.555   1.958  29.989  0.00  0.00    -0.276 OA
ATOM      8  N   UNL     1       0.031   4.134  25.619  0.00  0.00    -0.298 N 
ATOM     10  N   UNL     1       1.052   2.721  27.852  0.00  0.00    -0.299 N 
ATOM     25  C   UNL     1      -0.271   4.413  24.288  0.00  0.00    +0.216 C 
ATOM     27  C   UNL     1      -0.898   3.561  26.602  0.00  0.00    +0.126 C 
ATOM     28  C   UNL     1       1.346   4.487  26.160  0.00  0.00    +0.126 C 
ATOM     29  C   UNL     1      -0.263   2.368  27.313  0.00  0.00    +0.126 C 
ATOM     30  C   UNL     1       1.982   3.295  26.871  0.00  0.00    +0.126 C 
ATOM     33  C   UNL     1       1.356   2.441  29.184  0.00  0.00    +0.213 C 
ATOM     37  C   UNL     1       2.756   2.764  29.639  0.00  0.00    +0.109 C 
ENDBRANCH  24  25
ENDBRANCH  14  24
TORSDOF 6
ENDMDL
MODEL 2
REMARK VINA RESULT:      21.1      2.732      5.544
REMARK  Name = 7135091
REMARK  12 active torsions:
REMARK  status: ('A' for Active; 'I' for Inactive)
REMARK    1  A    between atoms: O_2  and  C_16
REMARK    2  A    between atoms: O_3  and  C_21
REMARK    3  A    between atoms: C_11  and  C_19
REMARK    4  A    between atoms: C_13  and  C_21
REMARK    5  A    between atoms: C_13  and  C_22
REMARK    6  A    between atoms: C_14  and  C_24
REMARK    7  A    between atoms: C_24  and  C_25
REMARK    8  A    between atoms: C_31  and  C_32
REMARK    9  A    between atoms: C_32  and  C_34
REMARK   10  A    between atoms: C_32  and  C_35
REMARK   11  A    between atoms: C_32  and  C_36
REMARK   12  A    between atoms: C_33  and  C_37
REMARK                            x       y       z     vdW  Elec       q    Type
REMARK                         _______ _______ _______ _____ _____    ______ ____
ROOT
ATOM      1  S   UNL     1       1.355   3.164  23.371  0.00  0.00    -0.057 S 
ATOM      5  O   UNL     1       3.029  -1.109  24.063  0.00  0.00    -0.275 OA
ATOM      7  N   UNL     1       0.834   0.827  24.349  0.00  0.00    -0.229 NA
ATOM      9  N   UNL     1       3.005   1.126  23.348  0.00  0.00    -0.264 N 
ATOM     11  C   UNL     1      -2.471   2.277  25.708  0.00  0.00    -0.019 C 
ATOM     12  C   UNL     1      -2.599   3.318  24.509  0.00  0.00    +0.011 C 
ATOM     13  C   UNL     1      -3.789   4.350  24.581  0.00  0.00    +0.021 C 
ATOM     14  C   UNL     1      -1.517   1.088  25.229  0.00  0.00    +0.054 C 
ATOM     15  C   UNL     1      -3.868   1.683  26.026  0.00  0.00    +0.010 C 
ATOM     16  C   UNL     1      -5.098   3.598  24.954  0.00  0.00    +0.123 C 
ATOM     17  C   UNL     1      -1.226   3.966  24.171  0.00  0.00    +0.049 C 
ATOM     18  C   UNL     1      -4.959   2.730  26.201  0.00  0.00    +0.032 C 
ATOM     19  C   UNL     1      -1.896   2.912  26.998  0.00  0.00    +0.012 C 
ATOM     20  C   UNL     1      -0.275   1.625  24.563  0.00  0.00    +0.058 A 
ATOM     22  C   UNL     1      -4.001   4.978  23.175  0.00  0.00    +0.016 C 
ATOM     23  C   UNL     1      -0.173   2.913  24.079  0.00  0.00    +0.015 A 
ATOM     26  C   UNL     1       1.756   1.534  23.735  0.00  0.00    +0.165 A 
ATOM     31  C   UNL     1       3.577  -0.149  23.523  0.00  0.00    +0.224 C 
ATOM     40  H   UNL     1       3.554   1.845  22.887  0.00  0.00    +0.157 HD
ENDROOT
BRANCH  31  32
ATOM     32  C   UNL     1       5.018  -0.271  22.967  0.00  0.00    +0.039 C 
ATOM     34  C   UNL     1       5.925   0.764  23.659  0.00  0.00    +0.020 C 
ATOM     35  C   UNL     1       5.028   0.010  21.455  0.00  0.00    +0.020 C 
ATOM     36  C   UNL     1       5.580  -1.673  23.249  0.00  0.00    +0.020 C 
ENDBRANCH  31  32
BRANCH  16   2
ATOM      2  O   UNL     1      -6.168   4.521  25.156  0.00  0.00    -0.391 OA
ATOM     38  H   UNL     1      -5.998   4.990  25.991  0.00  0.00    +0.210 HD
ENDBRANCH  16   2
BRANCH  13  21
ATOM     21  C   UNL     1      -3.547   5.541  25.537  0.00  0.00    +0.165 C 
BRANCH  21   3
ATOM      3  O   UNL     1      -2.211   5.960  25.373  0.00  0.00    -0.394 OA
ATOM     39  H   UNL     1      -1.922   5.669  24.491  0.00  0.00    +0.209 HD
ENDBRANCH  21   3
ENDBRANCH  13  21
BRANCH  14  24
ATOM     24  C   UNL     1      -1.171   0.067  26.322  0.00  0.00    +0.106 C 
BRANCH  24  25
ATOM      4  O   UNL     1      -0.006  -1.870  25.612  0.00  0.00    -0.276 OA
ATOM      6  O   UNL     1      -6.752  -2.669  23.389  0.00  0.00    -0.276 OA
ATOM      8  N   UNL     1      -2.310  -1.885  25.330  0.00  0.00    -0.298 N 
ATOM     10  N   UNL     1      -4.440  -2.629  23.617  0.00  0.00    -0.299 N 
ATOM     25  C   UNL     1      -1.101  -1.316  25.725  0.00  0.00    +0.216 C 
ATOM     27  C   UNL     1      -3.637  -1.282  25.518  0.00  0.00    +0.126 C 
ATOM     28  C   UNL     1      -2.330  -3.225  24.738  0.00  0.00    +0.126 C 
ATOM     29  C   UNL     1      -4.422  -1.289  24.209  0.00  0.00    +0.126 C 
ATOM     30  C   UNL     1      -3.114  -3.232  23.429  0.00  0.00    +0.126 C 
ATOM     33  C   UNL     1      -5.650  -3.197  23.219  0.00  0.00    +0.213 C 
ATOM     37  C   UNL     1      -5.573  -4.545  22.547  0.00  0.00    +0.109 C 
ENDBRANCH  24  25
ENDBRANCH  14  24
TORSDOF 6
ENDMDL
MODEL 3
REMARK VINA RESULT:      22.4      2.689      4.296
REMARK  Name = 7135091
REMARK  12 active torsions:
REMARK  status: ('A' for Active; 'I' for Inactive)
REMARK    1  A    between atoms: O_2  and  C_16
REMARK    2  A    between atoms: O_3  and  C_21
REMARK    3  A    between atoms: C_11  and  C_19
REMARK    4  A    between atoms: C_13  and  C_21
REMARK    5  A    between atoms: C_13  and  C_22
REMARK    6  A    between atoms: C_14  and  C_24
REMARK    7  A    between atoms: C_24  and  C_25
REMARK    8  A    between atoms: C_31  and  C_32
REMARK    9  A    between atoms: C_32  and  C_34
REMARK   10  A    between atoms: C_32  and  C_35
REMARK   11  A    between atoms: C_32  and  C_36
REMARK   12  A    between atoms: C_33  and  C_37
REMARK                            x       y       z     vdW  Elec       q    Type
REMARK                         _______ _______ _______ _____ _____    ______ ____
ROOT
ATOM      1  S   UNL     1       0.600   2.208  25.795  0.00  0.00    -0.057 S 
ATOM      5  O   UNL     1       2.102   0.351  21.817  0.00  0.00    -0.275 OA
ATOM      7  N   UNL     1      -0.077   1.548  23.387  0.00  0.00    -0.229 NA
ATOM      9  N   UNL     1       2.203   1.110  24.035  0.00  0.00    -0.264 N 
ATOM     11  C   UNL     1      -3.706   2.490  24.288  0.00  0.00    -0.019 C 
ATOM     12  C   UNL     1      -3.242   3.611  25.320  0.00  0.00    +0.011 C 
ATOM     13  C   UNL     1      -4.372   4.326  26.156  0.00  0.00    +0.021 C 
ATOM     14  C   UNL     1      -2.503   2.230  23.269  0.00  0.00    +0.054 C 
ATOM     15  C   UNL     1      -4.927   3.005  23.481  0.00  0.00    +0.010 C 
ATOM     16  C   UNL     1      -5.534   4.733  25.205  0.00  0.00    +0.123 C 
ATOM     17  C   UNL     1      -2.036   3.131  26.177  0.00  0.00    +0.049 C 
ATOM     18  C   UNL     1      -6.040   3.579  24.346  0.00  0.00    +0.032 C 
ATOM     19  C   UNL     1      -4.093   1.159  24.979  0.00  0.00    +0.012 C 
ATOM     20  C   UNL     1      -1.194   2.083  24.002  0.00  0.00    +0.058 A 
ATOM     22  C   UNL     1      -3.798   5.633  26.771  0.00  0.00    +0.016 C 
ATOM     23  C   UNL     1      -1.001   2.510  25.300  0.00  0.00    +0.015 A 
ATOM     26  C   UNL     1       0.924   1.557  24.239  0.00  0.00    +0.165 A 
ATOM     31  C   UNL     1       2.727   0.538  22.859  0.00  0.00    +0.224 C 
ATOM     40  H   UNL     1       2.815   1.215  24.838  0.00  0.00    +0.157 HD
ENDROOT
BRANCH  31  32
ATOM     32  C   UNL     1       4.220   0.137  22.970  0.00  0.00    +0.039 C 
ATOM     34  C   UNL     1       4.330  -1.250  23.631  0.00  0.00    +0.020 C 
ATOM     35  C   UNL     1       4.978   1.151  23.842  0.00  0.00    +0.020 C 
ATOM     36  C   UNL     1       4.854   0.059  21.572  0.00  0.00    +0.020 C 
ENDBRANCH  31  32
BRANCH  16   2
ATOM      2  O   UNL     1      -6.629   5.265  25.950  0.00  0.00    -0.391 OA
ATOM     38  H   UNL     1      -7.258   5.648  25.315  0.00  0.00    +0.210 HD
ENDBRANCH  16   2
BRANCH  13  21
ATOM     21  C   UNL     1      -4.903   3.501  27.351  0.00  0.00    +0.165 C 
BRANCH  21   3
ATOM      3  O   UNL     1      -6.002   2.744  26.898  0.00  0.00    -0.394 OA
ATOM     39  H   UNL     1      -5.891   1.840  27.240  0.00  0.00    +0.209 HD
ENDBRANCH  21   3
ENDBRANCH  13  21
BRANCH  14  24
ATOM     24  C   UNL     1      -2.734   1.068  22.292  0.00  0.00    +0.106 C 
BRANCH  24  25
ATOM      4  O   UNL     1      -4.455  -0.250  23.249  0.00  0.00    -0.276 OA
ATOM      6  O   UNL     1       1.712  -3.185  25.355  0.00  0.00    -0.276 OA
ATOM      8  N   UNL     1      -2.289  -1.058  23.465  0.00  0.00    -0.298 N 
ATOM     10  N   UNL     1      -0.447  -2.345  25.190  0.00  0.00    -0.299 N 
ATOM     25  C   UNL     1      -3.245  -0.136  23.042  0.00  0.00    +0.216 C 
ATOM     27  C   UNL     1      -0.851  -0.989  23.172  0.00  0.00    +0.126 C 
ATOM     28  C   UNL     1      -2.703  -2.254  24.203  0.00  0.00    +0.126 C 
ATOM     29  C   UNL     1      -0.033  -1.150  24.451  0.00  0.00    +0.126 C 
ATOM     30  C   UNL     1      -1.885  -2.416  25.482  0.00  0.00    +0.126 C 
ATOM     33  C   UNL     1       0.509  -3.267  25.614  0.00  0.00    +0.213 C 
ATOM     37  C   UNL     1       0.009  -4.428  26.436  0.00  0.00    +0.109 C 
ENDBRANCH  24  25
ENDBRANCH  14  24
TORSDOF 6
ENDMDL
