MODEL 1
REMARK VINA RESULT:      -4.2      0.000      0.000
REMARK  Name = 11884359
REMARK  6 active torsions:
REMARK  status: ('A' for Active; 'I' for Inactive)
REMARK    1  A    between atoms: S_1  and  N_8
REMARK    2  A    between atoms: S_1  and  C_16
REMARK    3  A    between atoms: O_4  and  C_13
REMARK    4  A    between atoms: N_8  and  C_12
REMARK    5  A    between atoms: N_9  and  C_21
REMARK    6  A    between atoms: C_22  and  C_23
REMARK                            x       y       z     vdW  Elec       q    Type
REMARK                         _______ _______ _______ _____ _____    ______ ____
ROOT
ATOM      1  S   UNL     1      -3.641  -1.539  24.854  0.00  0.00    +0.059 S 
ATOM      5  O   UNL     1      -4.269  -1.964  23.617  0.00  0.00    -0.153 OA
ATOM      6  O   UNL     1      -3.510  -2.465  25.962  0.00  0.00    -0.153 OA
ENDROOT
BRANCH   1  16
ATOM     16  C   UNL     1      -2.013  -0.963  24.468  0.00  0.00    +0.105 A 
ATOM     17  C   UNL     1      -1.856   0.294  23.912  0.00  0.00    +0.030 A 
ATOM     18  C   UNL     1      -0.928  -1.782  24.729  0.00  0.00    +0.030 A 
ATOM     19  C   UNL     1      -0.572   0.748  23.608  0.00  0.00    +0.025 A 
ATOM     20  C   UNL     1       0.355  -1.327  24.426  0.00  0.00    +0.025 A 
ATOM     21  C   UNL     1       0.533  -0.063  23.865  0.00  0.00    +0.033 A 
BRANCH  21   9
ATOM      7  O   UNL     1       2.136  -0.285  21.325  0.00  0.00    -0.276 OA
ATOM      9  N   UNL     1       1.817   0.392  23.561  0.00  0.00    -0.286 N 
ATOM     22  C   UNL     1       2.519   0.259  22.357  0.00  0.00    +0.214 C 
ATOM     23  C   UNL     1       3.886   0.890  22.433  0.00  0.00    +0.109 C 
ATOM     26  H   UNL     1       2.295   0.879  24.317  0.00  0.00    +0.155 HD
ENDBRANCH  21   9
ENDBRANCH   1  16
BRANCH   1   8
ATOM      8  N   UNL     1      -4.390  -0.120  25.410  0.00  0.00    -0.182 NA
ATOM     24  H   UNL     1      -4.367   0.090  26.416  0.00  0.00    +0.148 HD
BRANCH   8  12
ATOM      2  O   UNL     1      -6.416   2.250  25.358  0.00  0.00    -0.370 OA
ATOM      3  O   UNL     1      -3.836   3.288  24.091  0.00  0.00    -0.370 OA
ATOM     10  C   UNL     1      -4.060   2.301  25.122  0.00  0.00    +0.170 C 
ATOM     11  C   UNL     1      -5.225   2.796  25.954  0.00  0.00    +0.179 C 
ATOM     12  C   UNL     1      -4.565   1.015  24.505  0.00  0.00    +0.133 C 
ATOM     13  C   UNL     1      -5.145   4.291  25.770  0.00  0.00    +0.171 C 
ATOM     14  C   UNL     1      -6.048   1.315  24.332  0.00  0.00    +0.183 C 
ATOM     15  C   UNL     1      -4.692   4.413  24.333  0.00  0.00    +0.194 C 
BRANCH  13   4
ATOM      4  O   UNL     1      -6.369   4.953  25.999  0.00  0.00    -0.387 OA
ATOM     25  H   UNL     1      -6.485   5.046  26.960  0.00  0.00    +0.210 HD
ENDBRANCH  13   4
ENDBRANCH   8  12
ENDBRANCH   1   8
TORSDOF 5
ENDMDL
MODEL 2
REMARK VINA RESULT:      -4.2     19.250     20.488
REMARK  Name = 11884359
REMARK  6 active torsions:
REMARK  status: ('A' for Active; 'I' for Inactive)
REMARK    1  A    between atoms: S_1  and  N_8
REMARK    2  A    between atoms: S_1  and  C_16
REMARK    3  A    between atoms: O_4  and  C_13
REMARK    4  A    between atoms: N_8  and  C_12
REMARK    5  A    between atoms: N_9  and  C_21
REMARK    6  A    between atoms: C_22  and  C_23
REMARK                            x       y       z     vdW  Elec       q    Type
REMARK                         _______ _______ _______ _____ _____    ______ ____
ROOT
ATOM      1  S   UNL     1      16.271  -8.644  26.445  0.00  0.00    +0.059 S 
ATOM      5  O   UNL     1      14.834  -8.838  26.458  0.00  0.00    -0.153 OA
ATOM      6  O   UNL     1      17.138  -9.646  25.855  0.00  0.00    -0.153 OA
ENDROOT
BRANCH   1  16
ATOM     16  C   UNL     1      16.607  -7.119  25.612  0.00  0.00    +0.105 A 
ATOM     17  C   UNL     1      17.140  -7.151  24.336  0.00  0.00    +0.030 A 
ATOM     18  C   UNL     1      16.332  -5.925  26.254  0.00  0.00    +0.030 A 
ATOM     19  C   UNL     1      17.405  -5.949  23.679  0.00  0.00    +0.025 A 
ATOM     20  C   UNL     1      16.596  -4.723  25.596  0.00  0.00    +0.025 A 
ATOM     21  C   UNL     1      17.133  -4.735  24.309  0.00  0.00    +0.033 A 
BRANCH  21   9
ATOM      7  O   UNL     1      15.267  -2.782  22.980  0.00  0.00    -0.276 OA
ATOM      9  N   UNL     1      17.398  -3.533  23.652  0.00  0.00    -0.286 N 
ATOM     22  C   UNL     1      16.486  -2.660  23.046  0.00  0.00    +0.214 C 
ATOM     23  C   UNL     1      17.176  -1.463  22.441  0.00  0.00    +0.109 C 
ATOM     26  H   UNL     1      18.380  -3.267  23.612  0.00  0.00    +0.155 HD
ENDBRANCH  21   9
ENDBRANCH   1  16
BRANCH   1   8
ATOM      8  N   UNL     1      16.811  -8.308  28.019  0.00  0.00    -0.182 NA
ATOM     24  H   UNL     1      17.652  -7.727  28.141  0.00  0.00    +0.148 HD
BRANCH   8  12
ATOM      2  O   UNL     1      16.716  -6.814  30.755  0.00  0.00    -0.370 OA
ATOM      3  O   UNL     1      13.815  -7.364  29.966  0.00  0.00    -0.370 OA
ATOM     10  C   UNL     1      14.989  -7.114  29.162  0.00  0.00    +0.170 C 
ATOM     11  C   UNL     1      15.815  -6.084  29.904  0.00  0.00    +0.179 C 
ATOM     12  C   UNL     1      15.870  -8.345  29.137  0.00  0.00    +0.133 C 
ATOM     13  C   UNL     1      14.771  -5.343  30.704  0.00  0.00    +0.171 C 
ATOM     14  C   UNL     1      16.623  -8.216  30.453  0.00  0.00    +0.183 C 
ATOM     15  C   UNL     1      13.806  -6.448  31.070  0.00  0.00    +0.194 C 
BRANCH  13   4
ATOM      4  O   UNL     1      15.289  -4.692  31.841  0.00  0.00    -0.387 OA
ATOM     25  H   UNL     1      14.554  -4.533  32.457  0.00  0.00    +0.210 HD
ENDBRANCH  13   4
ENDBRANCH   8  12
ENDBRANCH   1   8
TORSDOF 5
ENDMDL
MODEL 3
REMARK VINA RESULT:      -4.0      2.138      4.348
REMARK  Name = 11884359
REMARK  6 active torsions:
REMARK  status: ('A' for Active; 'I' for Inactive)
REMARK    1  A    between atoms: S_1  and  N_8
REMARK    2  A    between atoms: S_1  and  C_16
REMARK    3  A    between atoms: O_4  and  C_13
REMARK    4  A    between atoms: N_8  and  C_12
REMARK    5  A    between atoms: N_9  and  C_21
REMARK    6  A    between atoms: C_22  and  C_23
REMARK                            x       y       z     vdW  Elec       q    Type
REMARK                         _______ _______ _______ _____ _____    ______ ____
ROOT
ATOM      1  S   UNL     1      -3.783   3.072  24.992  0.00  0.00    +0.059 S 
ATOM      5  O   UNL     1      -3.935   3.099  26.434  0.00  0.00    -0.153 OA
ATOM      6  O   UNL     1      -4.095   4.248  24.203  0.00  0.00    -0.153 OA
ENDROOT
BRANCH   1  16
ATOM     16  C   UNL     1      -2.107   2.637  24.629  0.00  0.00    +0.105 A 
ATOM     17  C   UNL     1      -1.776   2.239  23.346  0.00  0.00    +0.030 A 
ATOM     18  C   UNL     1      -1.160   2.702  25.635  0.00  0.00    +0.030 A 
ATOM     19  C   UNL     1      -0.455   1.896  23.059  0.00  0.00    +0.025 A 
ATOM     20  C   UNL     1       0.161   2.360  25.348  0.00  0.00    +0.025 A 
ATOM     21  C   UNL     1       0.514   1.957  24.060  0.00  0.00    +0.033 A 
BRANCH  21   9
ATOM      7  O   UNL     1       1.633  -0.229  22.318  0.00  0.00    -0.276 OA
ATOM      9  N   UNL     1       1.836   1.614  23.773  0.00  0.00    -0.286 N 
ATOM     22  C   UNL     1       2.303   0.580  22.952  0.00  0.00    +0.214 C 
ATOM     23  C   UNL     1       3.809   0.542  22.903  0.00  0.00    +0.109 C 
ATOM     26  H   UNL     1       2.542   2.194  24.223  0.00  0.00    +0.155 HD
ENDBRANCH  21   9
ENDBRANCH   1  16
BRANCH   1   8
ATOM      8  N   UNL     1      -4.633   1.745  24.358  0.00  0.00    -0.182 NA
ATOM     24  H   UNL     1      -4.762   1.680  23.340  0.00  0.00    +0.148 HD
BRANCH   8  12
ATOM      2  O   UNL     1      -4.170  -1.232  23.554  0.00  0.00    -0.370 OA
ATOM      3  O   UNL     1      -3.382  -0.997  26.497  0.00  0.00    -0.370 OA
ATOM     10  C   UNL     1      -3.315  -0.043  25.414  0.00  0.00    +0.170 C 
ATOM     11  C   UNL     1      -2.937  -0.821  24.171  0.00  0.00    +0.179 C 
ATOM     12  C   UNL     1      -4.697   0.493  25.111  0.00  0.00    +0.133 C 
ATOM     13  C   UNL     1      -2.178  -1.995  24.737  0.00  0.00    +0.171 C 
ATOM     14  C   UNL     1      -5.272  -0.610  24.233  0.00  0.00    +0.183 C 
ATOM     15  C   UNL     1      -2.930  -2.273  26.020  0.00  0.00    +0.194 C 
BRANCH  13   4
ATOM      4  O   UNL     1      -2.155  -3.116  23.883  0.00  0.00    -0.387 OA
ATOM     25  H   UNL     1      -2.094  -2.795  22.968  0.00  0.00    +0.210 HD
ENDBRANCH  13   4
ENDBRANCH   8  12
ENDBRANCH   1   8
TORSDOF 5
ENDMDL
MODEL 4
REMARK VINA RESULT:      -2.8      2.569      6.153
REMARK  Name = 11884359
REMARK  6 active torsions:
REMARK  status: ('A' for Active; 'I' for Inactive)
REMARK    1  A    between atoms: S_1  and  N_8
REMARK    2  A    between atoms: S_1  and  C_16
REMARK    3  A    between atoms: O_4  and  C_13
REMARK    4  A    between atoms: N_8  and  C_12
REMARK    5  A    between atoms: N_9  and  C_21
REMARK    6  A    between atoms: C_22  and  C_23
REMARK                            x       y       z     vdW  Elec       q    Type
REMARK                         _______ _______ _______ _____ _____    ______ ____
ROOT
ATOM      1  S   UNL     1       0.303   0.667  23.744  0.00  0.00    +0.059 S 
ATOM      5  O   UNL     1      -0.020  -0.172  22.606  0.00  0.00    -0.153 OA
ATOM      6  O   UNL     1       1.492   1.496  23.725  0.00  0.00    -0.153 OA
ENDROOT
BRANCH   1  16
ATOM     16  C   UNL     1      -1.071   1.743  24.035  0.00  0.00    +0.105 A 
ATOM     17  C   UNL     1      -2.051   1.864  23.066  0.00  0.00    +0.030 A 
ATOM     18  C   UNL     1      -1.139   2.444  25.226  0.00  0.00    +0.030 A 
ATOM     19  C   UNL     1      -3.134   2.712  23.295  0.00  0.00    +0.025 A 
ATOM     20  C   UNL     1      -2.222   3.291  25.456  0.00  0.00    +0.025 A 
ATOM     21  C   UNL     1      -3.220   3.426  24.490  0.00  0.00    +0.033 A 
BRANCH  21   9
ATOM      7  O   UNL     1      -5.696   3.027  26.157  0.00  0.00    -0.276 OA
ATOM      9  N   UNL     1      -4.304   4.274  24.720  0.00  0.00    -0.286 N 
ATOM     22  C   UNL     1      -5.437   4.036  25.507  0.00  0.00    +0.214 C 
ATOM     23  C   UNL     1      -6.383   5.210  25.496  0.00  0.00    +0.109 C 
ATOM     26  H   UNL     1      -4.256   5.177  24.250  0.00  0.00    +0.155 HD
ENDBRANCH  21   9
ENDBRANCH   1  16
BRANCH   1   8
ATOM      8  N   UNL     1       0.313  -0.276  25.157  0.00  0.00    -0.182 NA
ATOM     24  H   UNL     1       0.617   0.157  26.039  0.00  0.00    +0.148 HD
BRANCH   8  12
ATOM      2  O   UNL     1      -2.706  -0.588  25.871  0.00  0.00    -0.370 OA
ATOM      3  O   UNL     1      -2.022  -2.884  23.974  0.00  0.00    -0.370 OA
ATOM     10  C   UNL     1      -1.496  -1.543  24.074  0.00  0.00    +0.170 C 
ATOM     11  C   UNL     1      -2.659  -0.643  24.434  0.00  0.00    +0.179 C 
ATOM     12  C   UNL     1      -0.565  -1.440  25.262  0.00  0.00    +0.133 C 
ATOM     13  C   UNL     1      -3.840  -1.392  23.867  0.00  0.00    +0.171 C 
ATOM     14  C   UNL     1      -1.547  -1.245  26.409  0.00  0.00    +0.183 C 
ATOM     15  C   UNL     1      -3.450  -2.833  24.108  0.00  0.00    +0.194 C 
BRANCH  13   4
ATOM      4  O   UNL     1      -5.065  -1.064  24.483  0.00  0.00    -0.387 OA
ATOM     25  H   UNL     1      -5.581  -1.881  24.578  0.00  0.00    +0.210 HD
ENDBRANCH  13   4
ENDBRANCH   8  12
ENDBRANCH   1   8
TORSDOF 5
ENDMDL
MODEL 5
REMARK VINA RESULT:      -2.3      3.180      5.275
REMARK  Name = 11884359
REMARK  6 active torsions:
REMARK  status: ('A' for Active; 'I' for Inactive)
REMARK    1  A    between atoms: S_1  and  N_8
REMARK    2  A    between atoms: S_1  and  C_16
REMARK    3  A    between atoms: O_4  and  C_13
REMARK    4  A    between atoms: N_8  and  C_12
REMARK    5  A    between atoms: N_9  and  C_21
REMARK    6  A    between atoms: C_22  and  C_23
REMARK                            x       y       z     vdW  Elec       q    Type
REMARK                         _______ _______ _______ _____ _____    ______ ____
ROOT
ATOM      1  S   UNL     1      -3.187   2.975  23.244  0.00  0.00    +0.059 S 
ATOM      5  O   UNL     1      -3.692   4.334  23.264  0.00  0.00    -0.153 OA
ATOM      6  O   UNL     1      -2.709   2.392  22.005  0.00  0.00    -0.153 OA
ENDROOT
BRANCH   1  16
ATOM     16  C   UNL     1      -1.859   2.869  24.408  0.00  0.00    +0.105 A 
ATOM     17  C   UNL     1      -0.707   2.189  24.057  0.00  0.00    +0.030 A 
ATOM     18  C   UNL     1      -1.998   3.469  25.647  0.00  0.00    +0.030 A 
ATOM     19  C   UNL     1       0.341   2.105  24.975  0.00  0.00    +0.025 A 
ATOM     20  C   UNL     1      -0.950   3.387  26.564  0.00  0.00    +0.025 A 
ATOM     21  C   UNL     1       0.219   2.704  26.228  0.00  0.00    +0.033 A 
BRANCH  21   9
ATOM      7  O   UNL     1       0.179   2.581  29.236  0.00  0.00    -0.276 OA
ATOM      9  N   UNL     1       1.267   2.621  27.146  0.00  0.00    -0.286 N 
ATOM     22  C   UNL     1       1.191   2.569  28.543  0.00  0.00    +0.214 C 
ATOM     23  C   UNL     1       2.558   2.483  29.175  0.00  0.00    +0.109 C 
ATOM     26  H   UNL     1       2.200   2.597  26.738  0.00  0.00    +0.155 HD
ENDBRANCH  21   9
ENDBRANCH   1  16
BRANCH   1   8
ATOM      8  N   UNL     1      -4.338   1.933  23.933  0.00  0.00    -0.182 NA
ATOM     24  H   UNL     1      -5.169   1.680  23.382  0.00  0.00    +0.148 HD
BRANCH   8  12
ATOM      2  O   UNL     1      -5.000  -1.066  24.473  0.00  0.00    -0.370 OA
ATOM      3  O   UNL     1      -2.216  -0.570  25.632  0.00  0.00    -0.370 OA
ATOM     10  C   UNL     1      -2.897   0.024  24.505  0.00  0.00    +0.170 C 
ATOM     11  C   UNL     1      -3.703  -1.080  23.851  0.00  0.00    +0.179 C 
ATOM     12  C   UNL     1      -3.941   1.006  24.990  0.00  0.00    +0.133 C 
ATOM     13  C   UNL     1      -2.921  -2.317  24.221  0.00  0.00    +0.171 C 
ATOM     14  C   UNL     1      -5.102   0.082  25.331  0.00  0.00    +0.183 C 
ATOM     15  C   UNL     1      -2.442  -1.987  25.616  0.00  0.00    +0.194 C 
BRANCH  13   4
ATOM      4  O   UNL     1      -3.690  -3.499  24.189  0.00  0.00    -0.387 OA
ATOM     25  H   UNL     1      -3.482  -3.970  23.365  0.00  0.00    +0.210 HD
ENDBRANCH  13   4
ENDBRANCH   8  12
ENDBRANCH   1   8
TORSDOF 5
ENDMDL
MODEL 6
REMARK VINA RESULT:      -2.3      2.143      5.880
REMARK  Name = 11884359
REMARK  6 active torsions:
REMARK  status: ('A' for Active; 'I' for Inactive)
REMARK    1  A    between atoms: S_1  and  N_8
REMARK    2  A    between atoms: S_1  and  C_16
REMARK    3  A    between atoms: O_4  and  C_13
REMARK    4  A    between atoms: N_8  and  C_12
REMARK    5  A    between atoms: N_9  and  C_21
REMARK    6  A    between atoms: C_22  and  C_23
REMARK                            x       y       z     vdW  Elec       q    Type
REMARK                         _______ _______ _______ _____ _____    ______ ____
ROOT
ATOM      1  S   UNL     1      -2.996  -2.379  24.527  0.00  0.00    +0.059 S 
ATOM      5  O   UNL     1      -2.838  -2.960  25.847  0.00  0.00    -0.153 OA
ATOM      6  O   UNL     1      -3.702  -3.107  23.490  0.00  0.00    -0.153 OA
ENDROOT
BRANCH   1  16
ATOM     16  C   UNL     1      -3.814  -0.822  24.712  0.00  0.00    +0.105 A 
ATOM     17  C   UNL     1      -4.341  -0.478  25.944  0.00  0.00    +0.030 A 
ATOM     18  C   UNL     1      -3.912   0.023  23.620  0.00  0.00    +0.030 A 
ATOM     19  C   UNL     1      -4.986   0.750  26.090  0.00  0.00    +0.025 A 
ATOM     20  C   UNL     1      -4.556   1.251  23.767  0.00  0.00    +0.025 A 
ATOM     21  C   UNL     1      -5.094   1.615  25.001  0.00  0.00    +0.033 A 
BRANCH  21   9
ATOM      7  O   UNL     1      -4.000   4.321  25.740  0.00  0.00    -0.276 OA
ATOM      9  N   UNL     1      -5.738   2.844  25.148  0.00  0.00    -0.286 N 
ATOM     22  C   UNL     1      -5.178   4.078  25.497  0.00  0.00    +0.214 C 
ATOM     23  C   UNL     1      -6.217   5.170  25.549  0.00  0.00    +0.109 C 
ATOM     26  H   UNL     1      -6.743   2.830  24.978  0.00  0.00    +0.155 HD
ENDBRANCH  21   9
ENDBRANCH   1  16
BRANCH   1   8
ATOM      8  N   UNL     1      -1.478  -1.908  23.931  0.00  0.00    -0.182 NA
ATOM     24  H   UNL     1      -1.335  -1.870  22.913  0.00  0.00    +0.148 HD
BRANCH   8  12
ATOM      2  O   UNL     1       0.330   0.545  23.267  0.00  0.00    -0.370 OA
ATOM      3  O   UNL     1      -0.573   0.893  26.166  0.00  0.00    -0.370 OA
ATOM     10  C   UNL     1      -1.225   0.276  25.033  0.00  0.00    +0.170 C 
ATOM     11  C   UNL     1      -0.872   1.111  23.820  0.00  0.00    +0.179 C 
ATOM     12  C   UNL     1      -0.601  -1.073  24.750  0.00  0.00    +0.133 C 
ATOM     13  C   UNL     1      -0.621   2.472  24.421  0.00  0.00    +0.171 C 
ATOM     14  C   UNL     1       0.635  -0.681  23.951  0.00  0.00    +0.183 C 
ATOM     15  C   UNL     1       0.029   2.124  25.741  0.00  0.00    +0.194 C 
BRANCH  13   4
ATOM      4  O   UNL     1       0.200   3.297  23.625  0.00  0.00    -0.387 OA
ATOM     25  H   UNL     1       0.549   4.007  24.190  0.00  0.00    +0.210 HD
ENDBRANCH  13   4
ENDBRANCH   8  12
ENDBRANCH   1   8
TORSDOF 5
ENDMDL
MODEL 7
REMARK VINA RESULT:      -2.0      2.821      5.736
REMARK  Name = 11884359
REMARK  6 active torsions:
REMARK  status: ('A' for Active; 'I' for Inactive)
REMARK    1  A    between atoms: S_1  and  N_8
REMARK    2  A    between atoms: S_1  and  C_16
REMARK    3  A    between atoms: O_4  and  C_13
REMARK    4  A    between atoms: N_8  and  C_12
REMARK    5  A    between atoms: N_9  and  C_21
REMARK    6  A    between atoms: C_22  and  C_23
REMARK                            x       y       z     vdW  Elec       q    Type
REMARK                         _______ _______ _______ _____ _____    ______ ____
ROOT
ATOM      1  S   UNL     1      -3.820   3.979  24.875  0.00  0.00    +0.059 S 
ATOM      5  O   UNL     1      -3.433   4.607  23.625  0.00  0.00    -0.153 OA
ATOM      6  O   UNL     1      -5.023   4.405  25.564  0.00  0.00    -0.153 OA
ENDROOT
BRANCH   1  16
ATOM     16  C   UNL     1      -3.980   2.241  24.585  0.00  0.00    +0.105 A 
ATOM     17  C   UNL     1      -3.601   1.724  23.359  0.00  0.00    +0.030 A 
ATOM     18  C   UNL     1      -4.483   1.432  25.588  0.00  0.00    +0.030 A 
ATOM     19  C   UNL     1      -3.727   0.354  23.129  0.00  0.00    +0.025 A 
ATOM     20  C   UNL     1      -4.608   0.062  25.359  0.00  0.00    +0.025 A 
ATOM     21  C   UNL     1      -4.231  -0.477  24.130  0.00  0.00    +0.033 A 
BRANCH  21   9
ATOM      7  O   UNL     1      -2.245  -2.711  24.494  0.00  0.00    -0.276 OA
ATOM      9  N   UNL     1      -4.357  -1.847  23.900  0.00  0.00    -0.286 N 
ATOM     22  C   UNL     1      -3.395  -2.848  24.086  0.00  0.00    +0.214 C 
ATOM     23  C   UNL     1      -3.926  -4.211  23.722  0.00  0.00    +0.109 C 
ATOM     26  H   UNL     1      -5.267  -2.148  23.553  0.00  0.00    +0.155 HD
ENDBRANCH  21   9
ENDBRANCH   1  16
BRANCH   1   8
ATOM      8  N   UNL     1      -2.516   4.032  25.962  0.00  0.00    -0.182 NA
ATOM     24  H   UNL     1      -2.700   3.884  26.963  0.00  0.00    +0.148 HD
BRANCH   8  12
ATOM      2  O   UNL     1      -0.596   1.614  26.397  0.00  0.00    -0.370 OA
ATOM      3  O   UNL     1       0.077   2.772  23.650  0.00  0.00    -0.370 OA
ATOM     10  C   UNL     1      -1.168   2.716  24.380  0.00  0.00    +0.170 C 
ATOM     11  C   UNL     1      -1.189   1.387  25.106  0.00  0.00    +0.179 C 
ATOM     12  C   UNL     1      -1.162   3.744  25.491  0.00  0.00    +0.133 C 
ATOM     13  C   UNL     1      -0.310   0.524  24.233  0.00  0.00    +0.171 C 
ATOM     14  C   UNL     1      -0.379   3.022  26.578  0.00  0.00    +0.183 C 
ATOM     15  C   UNL     1       0.743   1.506  23.770  0.00  0.00    +0.194 C 
BRANCH  13   4
ATOM      4  O   UNL     1       0.252  -0.576  24.912  0.00  0.00    -0.387 OA
ATOM     25  H   UNL     1       1.153  -0.332  25.184  0.00  0.00    +0.210 HD
ENDBRANCH  13   4
ENDBRANCH   8  12
ENDBRANCH   1   8
TORSDOF 5
ENDMDL
MODEL 8
REMARK VINA RESULT:      -1.8     18.457     20.907
REMARK  Name = 11884359
REMARK  6 active torsions:
REMARK  status: ('A' for Active; 'I' for Inactive)
REMARK    1  A    between atoms: S_1  and  N_8
REMARK    2  A    between atoms: S_1  and  C_16
REMARK    3  A    between atoms: O_4  and  C_13
REMARK    4  A    between atoms: N_8  and  C_12
REMARK    5  A    between atoms: N_9  and  C_21
REMARK    6  A    between atoms: C_22  and  C_23
REMARK                            x       y       z     vdW  Elec       q    Type
REMARK                         _______ _______ _______ _____ _____    ______ ____
ROOT
ATOM      1  S   UNL     1      15.842  -6.696  29.744  0.00  0.00    +0.059 S 
ATOM      5  O   UNL     1      15.453  -5.948  28.564  0.00  0.00    -0.153 OA
ATOM      6  O   UNL     1      16.637  -6.064  30.780  0.00  0.00    -0.153 OA
ENDROOT
BRANCH   1  16
ATOM     16  C   UNL     1      14.370  -7.296  30.519  0.00  0.00    +0.105 A 
ATOM     17  C   UNL     1      13.436  -6.389  30.987  0.00  0.00    +0.030 A 
ATOM     18  C   UNL     1      14.180  -8.661  30.643  0.00  0.00    +0.030 A 
ATOM     19  C   UNL     1      12.274  -6.862  31.598  0.00  0.00    +0.025 A 
ATOM     20  C   UNL     1      13.018  -9.134  31.253  0.00  0.00    +0.025 A 
ATOM     21  C   UNL     1      12.066  -8.234  31.731  0.00  0.00    +0.033 A 
BRANCH  21   9
ATOM      7  O   UNL     1      10.205 -10.463  30.933  0.00  0.00    -0.276 OA
ATOM      9  N   UNL     1      10.903  -8.707  32.342  0.00  0.00    -0.286 N 
ATOM     22  C   UNL     1      10.070  -9.752  31.924  0.00  0.00    +0.214 C 
ATOM     23  C   UNL     1       8.909  -9.952  32.865  0.00  0.00    +0.109 C 
ATOM     26  H   UNL     1      10.635  -8.224  33.198  0.00  0.00    +0.155 HD
ENDBRANCH  21   9
ENDBRANCH   1  16
BRANCH   1   8
ATOM      8  N   UNL     1      16.602  -8.140  29.273  0.00  0.00    -0.182 NA
ATOM     24  H   UNL     1      16.401  -9.000  29.800  0.00  0.00    +0.148 HD
BRANCH   8  12
ATOM      2  O   UNL     1      16.200 -10.402  27.163  0.00  0.00    -0.370 OA
ATOM      3  O   UNL     1      16.501  -7.797  25.595  0.00  0.00    -0.370 OA
ATOM     10  C   UNL     1      15.949  -8.061  26.903  0.00  0.00    +0.170 C 
ATOM     11  C   UNL     1      15.234  -9.394  26.813  0.00  0.00    +0.179 C 
ATOM     12  C   UNL     1      17.064  -8.305  27.896  0.00  0.00    +0.133 C 
ATOM     13  C   UNL     1      14.859  -9.466  25.353  0.00  0.00    +0.171 C 
ATOM     14  C   UNL     1      17.400  -9.767  27.634  0.00  0.00    +0.183 C 
ATOM     15  C   UNL     1      16.046  -8.809  24.685  0.00  0.00    +0.194 C 
BRANCH  13   4
ATOM      4  O   UNL     1      14.650 -10.781  24.889  0.00  0.00    -0.387 OA
ATOM     25  H   UNL     1      14.608 -11.369  25.662  0.00  0.00    +0.210 HD
ENDBRANCH  13   4
ENDBRANCH   8  12
ENDBRANCH   1   8
TORSDOF 5
ENDMDL
MODEL 9
REMARK VINA RESULT:      -1.3      2.596      4.731
REMARK  Name = 11884359
REMARK  6 active torsions:
REMARK  status: ('A' for Active; 'I' for Inactive)
REMARK    1  A    between atoms: S_1  and  N_8
REMARK    2  A    between atoms: S_1  and  C_16
REMARK    3  A    between atoms: O_4  and  C_13
REMARK    4  A    between atoms: N_8  and  C_12
REMARK    5  A    between atoms: N_9  and  C_21
REMARK    6  A    between atoms: C_22  and  C_23
REMARK                            x       y       z     vdW  Elec       q    Type
REMARK                         _______ _______ _______ _____ _____    ______ ____
ROOT
ATOM      1  S   UNL     1       0.159   2.623  25.001  0.00  0.00    +0.059 S 
ATOM      5  O   UNL     1       0.170   2.987  26.406  0.00  0.00    -0.153 OA
ATOM      6  O   UNL     1       1.403   2.541  24.259  0.00  0.00    -0.153 OA
ENDROOT
BRANCH   1  16
ATOM     16  C   UNL     1      -0.633   1.048  24.853  0.00  0.00    +0.105 A 
ATOM     17  C   UNL     1      -1.094   0.415  25.994  0.00  0.00    +0.030 A 
ATOM     18  C   UNL     1      -0.775   0.479  23.600  0.00  0.00    +0.030 A 
ATOM     19  C   UNL     1      -1.719  -0.827  25.877  0.00  0.00    +0.025 A 
ATOM     20  C   UNL     1      -1.400  -0.762  23.484  0.00  0.00    +0.025 A 
ATOM     21  C   UNL     1      -1.872  -1.416  24.622  0.00  0.00    +0.033 A 
BRANCH  21   9
ATOM      7  O   UNL     1      -4.658  -2.126  23.730  0.00  0.00    -0.276 OA
ATOM      9  N   UNL     1      -2.497  -2.658  24.506  0.00  0.00    -0.286 N 
ATOM     22  C   UNL     1      -3.804  -2.932  24.085  0.00  0.00    +0.214 C 
ATOM     23  C   UNL     1      -4.098  -4.411  24.099  0.00  0.00    +0.109 C 
ATOM     26  H   UNL     1      -1.922  -3.459  24.762  0.00  0.00    +0.155 HD
ENDBRANCH  21   9
ENDBRANCH   1  16
BRANCH   1   8
ATOM      8  N   UNL     1      -0.916   3.634  24.163  0.00  0.00    -0.182 NA
ATOM     24  H   UNL     1      -0.951   3.577  23.136  0.00  0.00    +0.148 HD
BRANCH   8  12
ATOM      2  O   UNL     1      -3.961   3.415  23.526  0.00  0.00    -0.370 OA
ATOM      3  O   UNL     1      -3.724   3.631  26.565  0.00  0.00    -0.370 OA
ATOM     10  C   UNL     1      -2.840   3.052  25.580  0.00  0.00    +0.170 C 
ATOM     11  C   UNL     1      -3.720   2.410  24.527  0.00  0.00    +0.179 C 
ATOM     12  C   UNL     1      -2.109   4.147  24.835  0.00  0.00    +0.133 C 
ATOM     13  C   UNL     1      -4.973   2.085  25.303  0.00  0.00    +0.171 C 
ATOM     14  C   UNL     1      -3.146   4.565  23.802  0.00  0.00    +0.183 C 
ATOM     15  C   UNL     1      -5.074   3.257  26.253  0.00  0.00    +0.194 C 
BRANCH  13   4
ATOM      4  O   UNL     1      -6.120   1.958  24.493  0.00  0.00    -0.387 OA
ATOM     25  H   UNL     1      -6.902   2.046  25.064  0.00  0.00    +0.210 HD
ENDBRANCH  13   4
ENDBRANCH   8  12
ENDBRANCH   1   8
TORSDOF 5
ENDMDL
MODEL 10
REMARK VINA RESULT:      -1.3      2.247      3.052
REMARK  Name = 11884359
REMARK  6 active torsions:
REMARK  status: ('A' for Active; 'I' for Inactive)
REMARK    1  A    between atoms: S_1  and  N_8
REMARK    2  A    between atoms: S_1  and  C_16
REMARK    3  A    between atoms: O_4  and  C_13
REMARK    4  A    between atoms: N_8  and  C_12
REMARK    5  A    between atoms: N_9  and  C_21
REMARK    6  A    between atoms: C_22  and  C_23
REMARK                            x       y       z     vdW  Elec       q    Type
REMARK                         _______ _______ _______ _____ _____    ______ ____
ROOT
ATOM      1  S   UNL     1      -1.706   1.210  24.216  0.00  0.00    +0.059 S 
ATOM      5  O   UNL     1      -2.555   0.796  23.115  0.00  0.00    -0.153 OA
ATOM      6  O   UNL     1      -1.912   0.659  25.542  0.00  0.00    -0.153 OA
ENDROOT
BRANCH   1  16
ATOM     16  C   UNL     1      -0.029   0.868  23.770  0.00  0.00    +0.105 A 
ATOM     17  C   UNL     1       0.302  -0.393  23.306  0.00  0.00    +0.030 A 
ATOM     18  C   UNL     1       0.920   1.867  23.896  0.00  0.00    +0.030 A 
ATOM     19  C   UNL     1       1.624  -0.663  22.954  0.00  0.00    +0.025 A 
ATOM     20  C   UNL     1       2.242   1.596  23.543  0.00  0.00    +0.025 A 
ATOM     21  C   UNL     1       2.594   0.331  23.073  0.00  0.00    +0.033 A 
BRANCH  21   9
ATOM      7  O   UNL     1       5.123   0.494  24.699  0.00  0.00    -0.276 OA
ATOM      9  N   UNL     1       3.917   0.061  22.720  0.00  0.00    -0.286 N 
ATOM     22  C   UNL     1       5.062   0.155  23.521  0.00  0.00    +0.214 C 
ATOM     23  C   UNL     1       6.309  -0.226  22.762  0.00  0.00    +0.109 C 
ATOM     26  H   UNL     1       4.057  -0.242  21.758  0.00  0.00    +0.155 HD
ENDBRANCH  21   9
ENDBRANCH   1  16
BRANCH   1   8
ATOM      8  N   UNL     1      -1.701   2.905  24.320  0.00  0.00    -0.182 NA
ATOM     24  H   UNL     1      -1.081   3.437  23.695  0.00  0.00    +0.148 HD
BRANCH   8  12
ATOM      2  O   UNL     1      -4.714   2.868  23.518  0.00  0.00    -0.370 OA
ATOM      3  O   UNL     1      -4.621   3.476  26.511  0.00  0.00    -0.370 OA
ATOM     10  C   UNL     1      -3.745   2.692  25.672  0.00  0.00    +0.170 C 
ATOM     11  C   UNL     1      -4.624   1.993  24.656  0.00  0.00    +0.179 C 
ATOM     12  C   UNL     1      -2.873   3.607  24.839  0.00  0.00    +0.133 C 
ATOM     13  C   UNL     1      -5.943   1.887  25.383  0.00  0.00    +0.171 C 
ATOM     14  C   UNL     1      -3.809   3.970  23.694  0.00  0.00    +0.183 C 
ATOM     15  C   UNL     1      -5.982   3.182  26.163  0.00  0.00    +0.194 C 
BRANCH  13   4
ATOM      4  O   UNL     1      -7.051   1.752  24.523  0.00  0.00    -0.387 OA
ATOM     25  H   UNL     1      -7.626   2.525  24.650  0.00  0.00    +0.210 HD
ENDBRANCH  13   4
ENDBRANCH   8  12
ENDBRANCH   1   8
TORSDOF 5
ENDMDL
