MODEL 1
REMARK VINA RESULT:       3.8      0.000      0.000
REMARK  Name = 11942591
REMARK  11 active torsions:
REMARK  status: ('A' for Active; 'I' for Inactive)
REMARK    1  A    between atoms: N_3  and  C_14
REMARK    2  A    between atoms: N_4  and  C_16
REMARK    3  A    between atoms: C_8  and  C_15
REMARK    4  A    between atoms: C_9  and  C_14
REMARK    5  A    between atoms: C_16  and  C_19
REMARK    6  A    between atoms: C_16  and  C_20
REMARK    7  A    between atoms: C_18  and  C_21
REMARK    8  A    between atoms: C_22  and  C_25
REMARK    9  A    between atoms: C_22  and  C_28
REMARK   10  A    between atoms: C_22  and  C_29
REMARK   11  A    between atoms: C_22  and  C_30
REMARK                            x       y       z     vdW  Elec       q    Type
REMARK                         _______ _______ _______ _____ _____    ______ ____
ROOT
ATOM     14  C   UNL     1      -3.442   3.791  23.236  0.00  0.00    +0.164 C 
ENDROOT
BRANCH  14   9
ATOM      2  N   UNL     1      -4.333   3.617  25.574  0.00  0.00    -0.297 NA
ATOM      7  C   UNL     1      -5.197   1.181  25.271  0.00  0.00    +0.005 C 
ATOM      8  C   UNL     1      -3.885   1.211  26.076  0.00  0.00    +0.092 C 
ATOM      9  C   UNL     1      -4.599   3.348  24.135  0.00  0.00    +0.078 C 
ATOM     10  C   UNL     1      -4.966   1.865  23.909  0.00  0.00    +0.025 C 
ATOM     11  C   UNL     1      -6.215   2.038  26.046  0.00  0.00    +0.020 C 
ATOM     12  C   UNL     1      -3.340   2.650  26.103  0.00  0.00    +0.097 C 
ATOM     13  C   UNL     1      -5.605   3.427  26.315  0.00  0.00    +0.085 C 
BRANCH   8  15
ATOM      1  O   UNL     1      -1.673   0.429  25.634  0.00  0.00    -0.275 OA
ATOM      4  N   UNL     1      -3.485  -0.815  24.864  0.00  0.00    -0.313 N 
ATOM     15  C   UNL     1      -2.883   0.247  25.517  0.00  0.00    +0.218 C 
ATOM     31  H   UNL     1      -4.499  -0.885  24.865  0.00  0.00    +0.149 HD
BRANCH   4  16
ATOM     16  C   UNL     1      -2.739  -1.871  24.218  0.00  0.00    +0.067 C 
ATOM     19  C   UNL     1      -3.645  -3.062  23.935  0.00  0.00    +0.027 C 
ATOM     20  C   UNL     1      -1.542  -2.278  25.069  0.00  0.00    +0.027 C 
ENDBRANCH   4  16
ENDBRANCH   8  15
ENDBRANCH  14   9
BRANCH  14   3
ATOM      3  N   UNL     1      -2.462   2.733  23.057  0.00  0.00    -0.250 N 
ATOM      5  N   UNL     1      -2.830   1.558  22.537  0.00  0.00    -0.065 NA
ATOM      6  N   UNL     1      -1.741   0.799  22.492  0.00  0.00    -0.130 NA
ATOM     17  C   UNL     1      -1.145   2.775  23.362  0.00  0.00    +0.138 A 
ATOM     18  C   UNL     1      -0.699   1.529  22.995  0.00  0.00    +0.113 A 
BRANCH  18  21
ATOM     21  C   UNL     1       0.642   1.057  23.114  0.00  0.00    +0.004 A 
ATOM     23  C   UNL     1       0.915  -0.314  23.058  0.00  0.00    +0.010 A 
ATOM     24  C   UNL     1       1.696   1.960  23.287  0.00  0.00    +0.010 A 
ATOM     25  C   UNL     1       3.272   0.130  23.347  0.00  0.00    -0.042 A 
ATOM     26  C   UNL     1       2.226  -0.777  23.175  0.00  0.00    +0.005 A 
ATOM     27  C   UNL     1       3.007   1.498  23.403  0.00  0.00    +0.005 A 
BRANCH  25  22
ATOM     22  C   UNL     1       4.673  -0.365  23.472  0.00  0.00    -0.013 C 
ATOM     28  C   UNL     1       4.707  -1.863  23.908  0.00  0.00    +0.015 C 
ATOM     29  C   UNL     1       5.469   0.452  24.537  0.00  0.00    +0.015 C 
ATOM     30  C   UNL     1       5.531  -0.293  22.165  0.00  0.00    +0.015 C 
ENDBRANCH  25  22
ENDBRANCH  18  21
ENDBRANCH  14   3
TORSDOF 6
ENDMDL
MODEL 2
REMARK VINA RESULT:       4.1      1.653      3.604
REMARK  Name = 11942591
REMARK  11 active torsions:
REMARK  status: ('A' for Active; 'I' for Inactive)
REMARK    1  A    between atoms: N_3  and  C_14
REMARK    2  A    between atoms: N_4  and  C_16
REMARK    3  A    between atoms: C_8  and  C_15
REMARK    4  A    between atoms: C_9  and  C_14
REMARK    5  A    between atoms: C_16  and  C_19
REMARK    6  A    between atoms: C_16  and  C_20
REMARK    7  A    between atoms: C_18  and  C_21
REMARK    8  A    between atoms: C_22  and  C_25
REMARK    9  A    between atoms: C_22  and  C_28
REMARK   10  A    between atoms: C_22  and  C_29
REMARK   11  A    between atoms: C_22  and  C_30
REMARK                            x       y       z     vdW  Elec       q    Type
REMARK                         _______ _______ _______ _____ _____    ______ ____
ROOT
ATOM     14  C   UNL     1      -4.729  -0.728  24.166  0.00  0.00    +0.164 C 
ENDROOT
BRANCH  14   9
ATOM      2  N   UNL     1      -6.105   1.355  24.397  0.00  0.00    -0.297 NA
ATOM      7  C   UNL     1      -4.426   2.518  26.009  0.00  0.00    +0.005 C 
ATOM      8  C   UNL     1      -4.315   3.089  24.583  0.00  0.00    +0.092 C 
ATOM      9  C   UNL     1      -5.297   0.332  25.113  0.00  0.00    +0.078 C 
ATOM     10  C   UNL     1      -4.190   0.996  25.961  0.00  0.00    +0.025 C 
ATOM     11  C   UNL     1      -5.879   2.742  26.466  0.00  0.00    +0.020 C 
ATOM     12  C   UNL     1      -5.217   2.273  23.640  0.00  0.00    +0.097 C 
ATOM     13  C   UNL     1      -6.836   2.151  25.413  0.00  0.00    +0.085 C 
BRANCH   8  15
ATOM      1  O   UNL     1      -2.580   2.770  22.974  0.00  0.00    -0.275 OA
ATOM      4  N   UNL     1      -2.016   3.511  25.107  0.00  0.00    -0.313 N 
ATOM     15  C   UNL     1      -2.891   3.105  24.114  0.00  0.00    +0.218 C 
ATOM     31  H   UNL     1      -2.391   3.805  26.005  0.00  0.00    +0.149 HD
BRANCH   4  16
ATOM     16  C   UNL     1      -0.587   3.591  24.917  0.00  0.00    +0.067 C 
ATOM     19  C   UNL     1       0.140   2.989  26.111  0.00  0.00    +0.027 C 
ATOM     20  C   UNL     1      -0.158   5.034  24.680  0.00  0.00    +0.027 C 
ENDBRANCH   4  16
ENDBRANCH   8  15
ENDBRANCH  14   9
BRANCH  14   3
ATOM      3  N   UNL     1      -3.298  -0.906  24.350  0.00  0.00    -0.250 N 
ATOM      5  N   UNL     1      -2.839  -1.807  25.224  0.00  0.00    -0.065 NA
ATOM      6  N   UNL     1      -1.513  -1.747  25.177  0.00  0.00    -0.130 NA
ATOM     17  C   UNL     1      -2.302  -0.242  23.718  0.00  0.00    +0.138 A 
ATOM     18  C   UNL     1      -1.167  -0.793  24.260  0.00  0.00    +0.113 A 
BRANCH  18  21
ATOM     21  C   UNL     1       0.173  -0.434  23.926  0.00  0.00    +0.004 A 
ATOM     23  C   UNL     1       0.496   0.896  23.635  0.00  0.00    +0.010 A 
ATOM     24  C   UNL     1       1.176  -1.408  23.889  0.00  0.00    +0.010 A 
ATOM     25  C   UNL     1       2.801   0.270  23.272  0.00  0.00    -0.042 A 
ATOM     26  C   UNL     1       1.806   1.247  23.308  0.00  0.00    +0.005 A 
ATOM     27  C   UNL     1       2.486  -1.056  23.562  0.00  0.00    +0.005 A 
BRANCH  25  22
ATOM     22  C   UNL     1       4.201   0.646  22.923  0.00  0.00    -0.013 C 
ATOM     28  C   UNL     1       4.296   2.148  22.507  0.00  0.00    +0.015 C 
ATOM     29  C   UNL     1       4.735  -0.206  21.730  0.00  0.00    +0.015 C 
ATOM     30  C   UNL     1       5.252   0.465  24.068  0.00  0.00    +0.015 C 
ENDBRANCH  25  22
ENDBRANCH  18  21
ENDBRANCH  14   3
TORSDOF 6
ENDMDL
