MODEL 1
REMARK VINA RESULT:       0.6      0.000      0.000
REMARK  Name = 26744058
REMARK  9 active torsions:
REMARK  status: ('A' for Active; 'I' for Inactive)
REMARK    1  A    between atoms: S_1  and  C_21
REMARK    2  A    between atoms: S_1  and  C_27
REMARK    3  A    between atoms: O_2  and  C_13
REMARK    4  A    between atoms: N_6  and  C_15
REMARK    5  A    between atoms: N_7  and  C_22
REMARK    6  A    between atoms: C_11  and  C_16
REMARK    7  A    between atoms: C_15  and  C_17
REMARK    8  A    between atoms: C_19  and  C_21
REMARK    9  A    between atoms: C_32  and  C_33
REMARK                            x       y       z     vdW  Elec       q    Type
REMARK                         _______ _______ _______ _____ _____    ______ ____
ROOT
ATOM      6  N   UNL     1      -4.752   1.924  25.360  0.00  0.00    -0.282 NA
ATOM     11  C   UNL     1      -4.081   2.757  24.343  0.00  0.00    +0.149 C 
ATOM     12  C   UNL     1      -4.556   4.194  24.633  0.00  0.00    +0.061 C 
ATOM     13  C   UNL     1      -5.526   4.059  25.800  0.00  0.00    +0.130 C 
ATOM     14  C   UNL     1      -5.990   2.618  25.712  0.00  0.00    +0.117 C 
ENDROOT
BRANCH  11  16
ATOM      3  O   UNL     1      -1.979   2.782  25.592  0.00  0.00    -0.336 OA
ATOM      8  N   UNL     1      -1.738   2.368  23.404  0.00  0.00    -0.193 NA
ATOM     10  N   UNL     1      -0.605   2.614  25.375  0.00  0.00    -0.060 NA
ATOM     16  C   UNL     1      -2.573   2.621  24.380  0.00  0.00    +0.245 A 
ATOM     19  C   UNL     1      -0.544   2.374  24.062  0.00  0.00    +0.193 A 
BRANCH  19  21
ATOM     21  C   UNL     1       0.730   2.134  23.375  0.00  0.00    +0.251 C 
BRANCH  21   1
ATOM      1  S   UNL     1       0.893   0.397  23.072  0.00  0.00    +0.004 S 
ATOM      4  O   UNL     1       0.492   0.152  21.698  0.00  0.00    -0.169 OA
ATOM      5  O   UNL     1       0.260  -0.323  24.161  0.00  0.00    -0.169 OA
BRANCH   1  27
ATOM     27  C   UNL     1       2.631   0.106  23.197  0.00  0.00    +0.089 A 
ATOM     28  C   UNL     1       3.100  -1.124  23.658  0.00  0.00    +0.027 A 
ATOM     29  C   UNL     1       3.533   1.107  22.837  0.00  0.00    +0.027 A 
ATOM     30  C   UNL     1       4.472  -1.353  23.760  0.00  0.00    +0.005 A 
ATOM     31  C   UNL     1       4.905   0.878  22.939  0.00  0.00    +0.005 A 
ATOM     32  C   UNL     1       5.374  -0.352  23.400  0.00  0.00    -0.050 A 
ATOM     33  C   UNL     1       6.842  -0.597  23.508  0.00  0.00    +0.044 C 
ENDBRANCH   1  27
ENDBRANCH  21   1
ENDBRANCH  19  21
ENDBRANCH  11  16
BRANCH  13   2
ATOM      2  O   UNL     1      -6.602   4.966  25.665  0.00  0.00    -0.390 OA
ATOM     34  H   UNL     1      -6.325   5.658  25.041  0.00  0.00    +0.210 HD
ENDBRANCH  13   2
BRANCH   6  15
ATOM     15  C   UNL     1      -4.996   0.558  24.915  0.00  0.00    +0.159 C 
BRANCH  15  17
ATOM      7  N   UNL     1      -3.618  -1.476  24.378  0.00  0.00    -0.330 N 
ATOM      9  N   UNL     1      -2.753  -0.065  25.862  0.00  0.00    -0.231 NA
ATOM     17  C   UNL     1      -3.776  -0.309  25.072  0.00  0.00    +0.125 A 
ATOM     18  C   UNL     1      -2.414  -2.021  24.743  0.00  0.00    +0.069 A 
ATOM     20  C   UNL     1      -1.893  -1.122  25.671  0.00  0.00    +0.089 A 
ATOM     22  C   UNL     1      -4.550  -2.038  23.426  0.00  0.00    +0.150 C 
ATOM     23  C   UNL     1      -1.754  -3.188  24.355  0.00  0.00    +0.028 A 
ATOM     24  C   UNL     1      -0.644  -1.386  26.254  0.00  0.00    +0.030 A 
ATOM     25  C   UNL     1      -0.512  -3.436  24.946  0.00  0.00    +0.002 A 
ATOM     26  C   UNL     1       0.036  -2.552  25.879  0.00  0.00    +0.002 A 
ENDBRANCH  15  17
ENDBRANCH   6  15
TORSDOF 7
ENDMDL
MODEL 2
REMARK VINA RESULT:       0.7      2.488      6.800
REMARK  Name = 26744058
REMARK  9 active torsions:
REMARK  status: ('A' for Active; 'I' for Inactive)
REMARK    1  A    between atoms: S_1  and  C_21
REMARK    2  A    between atoms: S_1  and  C_27
REMARK    3  A    between atoms: O_2  and  C_13
REMARK    4  A    between atoms: N_6  and  C_15
REMARK    5  A    between atoms: N_7  and  C_22
REMARK    6  A    between atoms: C_11  and  C_16
REMARK    7  A    between atoms: C_15  and  C_17
REMARK    8  A    between atoms: C_19  and  C_21
REMARK    9  A    between atoms: C_32  and  C_33
REMARK                            x       y       z     vdW  Elec       q    Type
REMARK                         _______ _______ _______ _____ _____    ______ ____
ROOT
ATOM      6  N   UNL     1      -0.357   1.600  24.451  0.00  0.00    -0.282 NA
ATOM     11  C   UNL     1      -0.767   0.555  25.410  0.00  0.00    +0.149 C 
ATOM     12  C   UNL     1      -0.495   1.164  26.798  0.00  0.00    +0.061 C 
ATOM     13  C   UNL     1       0.110   2.533  26.516  0.00  0.00    +0.130 C 
ATOM     14  C   UNL     1       0.679   2.388  25.118  0.00  0.00    +0.117 C 
ENDROOT
BRANCH  11  16
ATOM      3  O   UNL     1      -2.530  -1.125  25.634  0.00  0.00    -0.336 OA
ATOM      8  N   UNL     1      -3.216   0.806  24.729  0.00  0.00    -0.193 NA
ATOM     10  N   UNL     1      -3.896  -1.282  25.367  0.00  0.00    -0.060 NA
ATOM     16  C   UNL     1      -2.210   0.132  25.228  0.00  0.00    +0.245 A 
ATOM     19  C   UNL     1      -4.228  -0.102  24.835  0.00  0.00    +0.193 A 
BRANCH  19  21
ATOM     21  C   UNL     1      -5.594   0.194  24.392  0.00  0.00    +0.251 C 
BRANCH  21   1
ATOM      1  S   UNL     1      -6.161   1.647  25.231  0.00  0.00    +0.004 S 
ATOM      4  O   UNL     1      -6.371   1.294  26.624  0.00  0.00    -0.169 OA
ATOM      5  O   UNL     1      -7.233   2.239  24.454  0.00  0.00    -0.169 OA
BRANCH   1  27
ATOM     27  C   UNL     1      -4.785   2.750  25.145  0.00  0.00    +0.089 A 
ATOM     28  C   UNL     1      -4.271   3.128  23.905  0.00  0.00    +0.027 A 
ATOM     29  C   UNL     1      -4.209   3.241  26.318  0.00  0.00    +0.027 A 
ATOM     30  C   UNL     1      -3.183   3.997  23.837  0.00  0.00    +0.005 A 
ATOM     31  C   UNL     1      -3.121   4.109  26.249  0.00  0.00    +0.005 A 
ATOM     32  C   UNL     1      -2.608   4.488  25.010  0.00  0.00    -0.050 A 
ATOM     33  C   UNL     1      -1.443   5.418  24.936  0.00  0.00    +0.044 C 
ENDBRANCH   1  27
ENDBRANCH  21   1
ENDBRANCH  19  21
ENDBRANCH  11  16
BRANCH  13   2
ATOM      2  O   UNL     1       1.115   2.842  27.462  0.00  0.00    -0.390 OA
ATOM     34  H   UNL     1       1.221   3.809  27.470  0.00  0.00    +0.210 HD
ENDBRANCH  13   2
BRANCH   6  15
ATOM     15  C   UNL     1       0.099   1.064  23.175  0.00  0.00    +0.159 C 
BRANCH  15  17
ATOM      7  N   UNL     1       1.910  -0.627  23.606  0.00  0.00    -0.330 N 
ATOM      9  N   UNL     1       2.580   1.384  22.940  0.00  0.00    -0.231 NA
ATOM     17  C   UNL     1       1.540   0.634  23.231  0.00  0.00    +0.125 A 
ATOM     18  C   UNL     1       3.278  -0.697  23.553  0.00  0.00    +0.069 A 
ATOM     20  C   UNL     1       3.673   0.572  23.135  0.00  0.00    +0.089 A 
ATOM     22  C   UNL     1       1.020  -1.701  23.989  0.00  0.00    +0.150 C 
ATOM     23  C   UNL     1       4.178  -1.727  23.827  0.00  0.00    +0.028 A 
ATOM     24  C   UNL     1       5.041   0.845  22.975  0.00  0.00    +0.030 A 
ATOM     25  C   UNL     1       5.536  -1.437  23.663  0.00  0.00    +0.002 A 
ATOM     26  C   UNL     1       5.962  -0.175  23.245  0.00  0.00    +0.002 A 
ENDBRANCH  15  17
ENDBRANCH   6  15
TORSDOF 7
ENDMDL
MODEL 3
REMARK VINA RESULT:       1.5      1.806      4.457
REMARK  Name = 26744058
REMARK  9 active torsions:
REMARK  status: ('A' for Active; 'I' for Inactive)
REMARK    1  A    between atoms: S_1  and  C_21
REMARK    2  A    between atoms: S_1  and  C_27
REMARK    3  A    between atoms: O_2  and  C_13
REMARK    4  A    between atoms: N_6  and  C_15
REMARK    5  A    between atoms: N_7  and  C_22
REMARK    6  A    between atoms: C_11  and  C_16
REMARK    7  A    between atoms: C_15  and  C_17
REMARK    8  A    between atoms: C_19  and  C_21
REMARK    9  A    between atoms: C_32  and  C_33
REMARK                            x       y       z     vdW  Elec       q    Type
REMARK                         _______ _______ _______ _____ _____    ______ ____
ROOT
ATOM      6  N   UNL     1      -4.165  -0.757  24.004  0.00  0.00    -0.282 NA
ATOM     11  C   UNL     1      -3.277  -0.992  25.160  0.00  0.00    +0.149 C 
ATOM     12  C   UNL     1      -3.034  -2.513  25.168  0.00  0.00    +0.061 C 
ATOM     13  C   UNL     1      -3.862  -3.051  24.008  0.00  0.00    +0.130 C 
ATOM     14  C   UNL     1      -4.928  -1.990  23.811  0.00  0.00    +0.117 C 
ENDROOT
BRANCH  11  16
ATOM      3  O   UNL     1      -1.697   0.588  26.152  0.00  0.00    -0.336 OA
ATOM      8  N   UNL     1      -1.108  -0.139  24.116  0.00  0.00    -0.193 NA
ATOM     10  N   UNL     1      -0.484   1.218  25.848  0.00  0.00    -0.060 NA
ATOM     16  C   UNL     1      -1.993  -0.194  25.080  0.00  0.00    +0.245 A 
ATOM     19  C   UNL     1      -0.202   0.740  24.632  0.00  0.00    +0.193 A 
BRANCH  19  21
ATOM     21  C   UNL     1       1.006   1.137  23.902  0.00  0.00    +0.251 C 
BRANCH  21   1
ATOM      1  S   UNL     1       1.576  -0.245  22.952  0.00  0.00    +0.004 S 
ATOM      4  O   UNL     1       1.288   0.034  21.556  0.00  0.00    -0.169 OA
ATOM      5  O   UNL     1       1.092  -1.462  23.573  0.00  0.00    -0.169 OA
BRANCH   1  27
ATOM     27  C   UNL     1       3.329  -0.213  23.167  0.00  0.00    +0.089 A 
ATOM     28  C   UNL     1       3.983  -1.314  23.719  0.00  0.00    +0.027 A 
ATOM     29  C   UNL     1       4.059   0.914  22.787  0.00  0.00    +0.027 A 
ATOM     30  C   UNL     1       5.367  -1.288  23.891  0.00  0.00    +0.005 A 
ATOM     31  C   UNL     1       5.442   0.940  22.961  0.00  0.00    +0.005 A 
ATOM     32  C   UNL     1       6.096  -0.161  23.512  0.00  0.00    -0.050 A 
ATOM     33  C   UNL     1       7.576  -0.134  23.697  0.00  0.00    +0.044 C 
ENDBRANCH   1  27
ENDBRANCH  21   1
ENDBRANCH  19  21
ENDBRANCH  11  16
BRANCH  13   2
ATOM      2  O   UNL     1      -4.425  -4.307  24.333  0.00  0.00    -0.390 OA
ATOM     34  H   UNL     1      -5.392  -4.197  24.350  0.00  0.00    +0.210 HD
ENDBRANCH  13   2
BRANCH   6  15
ATOM     15  C   UNL     1      -5.031   0.403  24.169  0.00  0.00    +0.159 C 
BRANCH  15  17
ATOM      7  N   UNL     1      -4.560   2.526  25.432  0.00  0.00    -0.330 N 
ATOM      9  N   UNL     1      -3.193   2.063  23.741  0.00  0.00    -0.231 NA
ATOM     17  C   UNL     1      -4.241   1.659  24.425  0.00  0.00    +0.125 A 
ATOM     18  C   UNL     1      -3.657   3.558  25.397  0.00  0.00    +0.069 A 
ATOM     20  C   UNL     1      -2.815   3.246  24.333  0.00  0.00    +0.089 A 
ATOM     22  C   UNL     1      -5.651   2.385  26.370  0.00  0.00    +0.150 C 
ATOM     23  C   UNL     1      -3.509   4.704  26.180  0.00  0.00    +0.028 A 
ATOM     24  C   UNL     1      -1.758   4.115  24.018  0.00  0.00    +0.030 A 
ATOM     25  C   UNL     1      -2.452   5.558  25.852  0.00  0.00    +0.002 A 
ATOM     26  C   UNL     1      -1.591   5.272  24.791  0.00  0.00    +0.002 A 
ENDBRANCH  15  17
ENDBRANCH   6  15
TORSDOF 7
ENDMDL
MODEL 4
REMARK VINA RESULT:       2.2      2.492      7.782
REMARK  Name = 26744058
REMARK  9 active torsions:
REMARK  status: ('A' for Active; 'I' for Inactive)
REMARK    1  A    between atoms: S_1  and  C_21
REMARK    2  A    between atoms: S_1  and  C_27
REMARK    3  A    between atoms: O_2  and  C_13
REMARK    4  A    between atoms: N_6  and  C_15
REMARK    5  A    between atoms: N_7  and  C_22
REMARK    6  A    between atoms: C_11  and  C_16
REMARK    7  A    between atoms: C_15  and  C_17
REMARK    8  A    between atoms: C_19  and  C_21
REMARK    9  A    between atoms: C_32  and  C_33
REMARK                            x       y       z     vdW  Elec       q    Type
REMARK                         _______ _______ _______ _____ _____    ______ ____
ROOT
ATOM      6  N   UNL     1       2.115   1.213  23.559  0.00  0.00    -0.282 NA
ATOM     11  C   UNL     1       1.691  -0.132  23.121  0.00  0.00    +0.149 C 
ATOM     12  C   UNL     1       2.971  -0.987  23.177  0.00  0.00    +0.061 C 
ATOM     13  C   UNL     1       4.069  -0.025  23.614  0.00  0.00    +0.130 C 
ATOM     14  C   UNL     1       3.530   1.335  23.211  0.00  0.00    +0.117 C 
ENDROOT
BRANCH  11  16
ATOM      3  O   UNL     1       0.863  -1.808  24.697  0.00  0.00    -0.336 OA
ATOM      8  N   UNL     1      -0.657  -0.270  24.114  0.00  0.00    -0.193 NA
ATOM     10  N   UNL     1      -0.310  -2.137  25.388  0.00  0.00    -0.060 NA
ATOM     16  C   UNL     1       0.572  -0.696  23.971  0.00  0.00    +0.245 A 
ATOM     19  C   UNL     1      -1.160  -1.185  24.992  0.00  0.00    +0.193 A 
BRANCH  19  21
ATOM     21  C   UNL     1      -2.544  -1.131  25.472  0.00  0.00    +0.251 C 
BRANCH  21   1
ATOM      1  S   UNL     1      -3.608  -0.782  24.100  0.00  0.00    +0.004 S 
ATOM      4  O   UNL     1      -4.658  -1.785  24.094  0.00  0.00    -0.169 OA
ATOM      5  O   UNL     1      -2.787  -0.570  22.923  0.00  0.00    -0.169 OA
BRANCH   1  27
ATOM     27  C   UNL     1      -4.337   0.773  24.513  0.00  0.00    +0.089 A 
ATOM     28  C   UNL     1      -3.975   1.921  23.807  0.00  0.00    +0.027 A 
ATOM     29  C   UNL     1      -5.271   0.854  25.546  0.00  0.00    +0.027 A 
ATOM     30  C   UNL     1      -4.549   3.149  24.135  0.00  0.00    +0.005 A 
ATOM     31  C   UNL     1      -5.843   2.082  25.874  0.00  0.00    +0.005 A 
ATOM     32  C   UNL     1      -5.482   3.230  25.168  0.00  0.00    -0.050 A 
ATOM     33  C   UNL     1      -6.095   4.544  25.518  0.00  0.00    +0.044 C 
ENDBRANCH   1  27
ENDBRANCH  21   1
ENDBRANCH  19  21
ENDBRANCH  11  16
BRANCH  13   2
ATOM      2  O   UNL     1       5.286  -0.321  22.958  0.00  0.00    -0.390 OA
ATOM     34  H   UNL     1       5.901  -0.669  23.627  0.00  0.00    +0.210 HD
ENDBRANCH  13   2
BRANCH   6  15
ATOM     15  C   UNL     1       1.314   2.285  22.983  0.00  0.00    +0.159 C 
BRANCH  15  17
ATOM      7  N   UNL     1      -0.222   4.071  23.862  0.00  0.00    -0.330 N 
ATOM      9  N   UNL     1      -0.201   2.153  24.983  0.00  0.00    -0.231 NA
ATOM     17  C   UNL     1       0.296   2.810  23.959  0.00  0.00    +0.125 A 
ATOM     18  C   UNL     1      -1.113   4.239  24.892  0.00  0.00    +0.069 A 
ATOM     20  C   UNL     1      -1.081   3.027  25.577  0.00  0.00    +0.089 A 
ATOM     22  C   UNL     1       0.106   5.056  22.856  0.00  0.00    +0.150 C 
ATOM     23  C   UNL     1      -1.918   5.314  25.271  0.00  0.00    +0.028 A 
ATOM     24  C   UNL     1      -1.895   2.860  26.709  0.00  0.00    +0.030 A 
ATOM     25  C   UNL     1      -2.721   5.130  26.401  0.00  0.00    +0.002 A 
ATOM     26  C   UNL     1      -2.712   3.926  27.109  0.00  0.00    +0.002 A 
ENDBRANCH  15  17
ENDBRANCH   6  15
TORSDOF 7
ENDMDL
MODEL 5
REMARK VINA RESULT:       2.5      3.097      5.672
REMARK  Name = 26744058
REMARK  9 active torsions:
REMARK  status: ('A' for Active; 'I' for Inactive)
REMARK    1  A    between atoms: S_1  and  C_21
REMARK    2  A    between atoms: S_1  and  C_27
REMARK    3  A    between atoms: O_2  and  C_13
REMARK    4  A    between atoms: N_6  and  C_15
REMARK    5  A    between atoms: N_7  and  C_22
REMARK    6  A    between atoms: C_11  and  C_16
REMARK    7  A    between atoms: C_15  and  C_17
REMARK    8  A    between atoms: C_19  and  C_21
REMARK    9  A    between atoms: C_32  and  C_33
REMARK                            x       y       z     vdW  Elec       q    Type
REMARK                         _______ _______ _______ _____ _____    ______ ____
ROOT
ATOM      6  N   UNL     1      -0.453   2.986  24.632  0.00  0.00    -0.282 NA
ATOM     11  C   UNL     1      -0.890   4.179  25.382  0.00  0.00    +0.149 C 
ATOM     12  C   UNL     1      -0.706   5.352  24.400  0.00  0.00    +0.061 C 
ATOM     13  C   UNL     1      -0.118   4.725  23.143  0.00  0.00    +0.130 C 
ATOM     14  C   UNL     1       0.528   3.450  23.652  0.00  0.00    +0.117 C 
ENDROOT
BRANCH  11  16
ATOM      3  O   UNL     1      -2.490   4.195  27.231  0.00  0.00    -0.336 OA
ATOM      8  N   UNL     1      -3.416   3.838  25.223  0.00  0.00    -0.193 NA
ATOM     10  N   UNL     1      -3.865   4.046  27.456  0.00  0.00    -0.060 NA
ATOM     16  C   UNL     1      -2.312   4.059  25.890  0.00  0.00    +0.245 A 
ATOM     19  C   UNL     1      -4.341   3.838  26.225  0.00  0.00    +0.193 A 
BRANCH  19  21
ATOM     21  C   UNL     1      -5.770   3.622  25.971  0.00  0.00    +0.251 C 
BRANCH  21   1
ATOM      1  S   UNL     1      -5.983   2.020  25.247  0.00  0.00    +0.004 S 
ATOM      4  O   UNL     1      -7.288   1.996  24.612  0.00  0.00    -0.169 OA
ATOM      5  O   UNL     1      -5.627   1.017  26.234  0.00  0.00    -0.169 OA
BRANCH   1  27
ATOM     27  C   UNL     1      -4.754   1.961  23.979  0.00  0.00    +0.089 A 
ATOM     28  C   UNL     1      -4.053   0.778  23.743  0.00  0.00    +0.027 A 
ATOM     29  C   UNL     1      -4.482   3.097  23.217  0.00  0.00    +0.027 A 
ATOM     30  C   UNL     1      -3.081   0.733  22.744  0.00  0.00    +0.005 A 
ATOM     31  C   UNL     1      -3.510   3.051  22.219  0.00  0.00    +0.005 A 
ATOM     32  C   UNL     1      -2.809   1.869  21.982  0.00  0.00    -0.050 A 
ATOM     33  C   UNL     1      -1.769   1.819  20.913  0.00  0.00    +0.044 C 
ENDBRANCH   1  27
ENDBRANCH  21   1
ENDBRANCH  19  21
ENDBRANCH  11  16
BRANCH  13   2
ATOM      2  O   UNL     1       0.828   5.590  22.546  0.00  0.00    -0.390 OA
ATOM     34  H   UNL     1       1.238   5.109  21.806  0.00  0.00    +0.210 HD
ENDBRANCH  13   2
BRANCH   6  15
ATOM     15  C   UNL     1       0.082   1.933  25.486  0.00  0.00    +0.159 C 
BRANCH  15  17
ATOM      7  N   UNL     1      -0.444  -0.309  24.476  0.00  0.00    -0.330 N 
ATOM      9  N   UNL     1      -1.763   0.357  26.137  0.00  0.00    -0.231 NA
ATOM     17  C   UNL     1      -0.727   0.668  25.389  0.00  0.00    +0.125 A 
ATOM     18  C   UNL     1      -1.357  -1.318  24.645  0.00  0.00    +0.069 A 
ATOM     20  C   UNL     1      -2.170  -0.879  25.688  0.00  0.00    +0.089 A 
ATOM     22  C   UNL     1       0.626  -0.287  23.505  0.00  0.00    +0.150 C 
ATOM     23  C   UNL     1      -1.537  -2.540  23.996  0.00  0.00    +0.028 A 
ATOM     24  C   UNL     1      -3.228  -1.694  26.120  0.00  0.00    +0.030 A 
ATOM     25  C   UNL     1      -2.596  -3.338  24.440  0.00  0.00    +0.002 A 
ATOM     26  C   UNL     1      -3.428  -2.925  25.483  0.00  0.00    +0.002 A 
ENDBRANCH  15  17
ENDBRANCH   6  15
TORSDOF 7
ENDMDL
MODEL 6
REMARK VINA RESULT:       2.7      2.405      6.870
REMARK  Name = 26744058
REMARK  9 active torsions:
REMARK  status: ('A' for Active; 'I' for Inactive)
REMARK    1  A    between atoms: S_1  and  C_21
REMARK    2  A    between atoms: S_1  and  C_27
REMARK    3  A    between atoms: O_2  and  C_13
REMARK    4  A    between atoms: N_6  and  C_15
REMARK    5  A    between atoms: N_7  and  C_22
REMARK    6  A    between atoms: C_11  and  C_16
REMARK    7  A    between atoms: C_15  and  C_17
REMARK    8  A    between atoms: C_19  and  C_21
REMARK    9  A    between atoms: C_32  and  C_33
REMARK                            x       y       z     vdW  Elec       q    Type
REMARK                         _______ _______ _______ _____ _____    ______ ____
ROOT
ATOM      6  N   UNL     1      -0.608  -1.188  24.082  0.00  0.00    -0.282 NA
ATOM     11  C   UNL     1      -1.654  -0.182  24.354  0.00  0.00    +0.149 C 
ATOM     12  C   UNL     1      -2.733  -0.940  25.150  0.00  0.00    +0.061 C 
ATOM     13  C   UNL     1      -2.226  -2.374  25.235  0.00  0.00    +0.130 C 
ATOM     14  C   UNL     1      -1.280  -2.486  24.055  0.00  0.00    +0.117 C 
ENDROOT
BRANCH  11  16
ATOM      3  O   UNL     1      -0.591   0.800  26.325  0.00  0.00    -0.336 OA
ATOM      8  N   UNL     1      -1.094   2.282  24.722  0.00  0.00    -0.193 NA
ATOM     10  N   UNL     1      -0.174   2.049  26.803  0.00  0.00    -0.060 NA
ATOM     16  C   UNL     1      -1.121   1.027  25.094  0.00  0.00    +0.245 A 
ATOM     19  C   UNL     1      -0.505   2.871  25.802  0.00  0.00    +0.193 A 
BRANCH  19  21
ATOM     21  C   UNL     1      -0.251   4.314  25.866  0.00  0.00    +0.251 C 
BRANCH  21   1
ATOM      1  S   UNL     1      -1.362   5.136  24.758  0.00  0.00    +0.004 S 
ATOM      4  O   UNL     1      -0.813   5.018  23.420  0.00  0.00    -0.169 OA
ATOM      5  O   UNL     1      -1.681   6.439  25.309  0.00  0.00    -0.169 OA
BRANCH   1  27
ATOM     27  C   UNL     1      -2.834   4.163  24.835  0.00  0.00    +0.089 A 
ATOM     28  C   UNL     1      -3.301   3.514  23.692  0.00  0.00    +0.027 A 
ATOM     29  C   UNL     1      -3.531   4.047  26.038  0.00  0.00    +0.027 A 
ATOM     30  C   UNL     1      -4.465   2.748  23.753  0.00  0.00    +0.005 A 
ATOM     31  C   UNL     1      -4.695   3.282  26.097  0.00  0.00    +0.005 A 
ATOM     32  C   UNL     1      -5.162   2.632  24.955  0.00  0.00    -0.050 A 
ATOM     33  C   UNL     1      -6.407   1.812  25.018  0.00  0.00    +0.044 C 
ENDBRANCH   1  27
ENDBRANCH  21   1
ENDBRANCH  19  21
ENDBRANCH  11  16
BRANCH  13   2
ATOM      2  O   UNL     1      -3.297  -3.291  25.139  0.00  0.00    -0.390 OA
ATOM     34  H   UNL     1      -3.360  -3.571  24.209  0.00  0.00    +0.210 HD
ENDBRANCH  13   2
BRANCH   6  15
ATOM     15  C   UNL     1       0.135  -0.929  22.855  0.00  0.00    +0.159 C 
BRANCH  15  17
ATOM      7  N   UNL     1       2.208   0.469  23.124  0.00  0.00    -0.330 N 
ATOM      9  N   UNL     1       2.464  -1.725  23.362  0.00  0.00    -0.231 NA
ATOM     17  C   UNL     1       1.607  -0.758  23.118  0.00  0.00    +0.125 A 
ATOM     18  C   UNL     1       3.540   0.283  23.390  0.00  0.00    +0.069 A 
ATOM     20  C   UNL     1       3.674  -1.096  23.535  0.00  0.00    +0.089 A 
ATOM     22  C   UNL     1       1.558   1.741  22.892  0.00  0.00    +0.150 C 
ATOM     23  C   UNL     1       4.607   1.174  23.513  0.00  0.00    +0.028 A 
ATOM     24  C   UNL     1       4.940  -1.634  23.820  0.00  0.00    +0.030 A 
ATOM     25  C   UNL     1       5.860   0.620  23.796  0.00  0.00    +0.002 A 
ATOM     26  C   UNL     1       6.026  -0.758  23.947  0.00  0.00    +0.002 A 
ENDBRANCH  15  17
ENDBRANCH   6  15
TORSDOF 7
ENDMDL
MODEL 7
REMARK VINA RESULT:       3.3      2.085      7.101
REMARK  Name = 26744058
REMARK  9 active torsions:
REMARK  status: ('A' for Active; 'I' for Inactive)
REMARK    1  A    between atoms: S_1  and  C_21
REMARK    2  A    between atoms: S_1  and  C_27
REMARK    3  A    between atoms: O_2  and  C_13
REMARK    4  A    between atoms: N_6  and  C_15
REMARK    5  A    between atoms: N_7  and  C_22
REMARK    6  A    between atoms: C_11  and  C_16
REMARK    7  A    between atoms: C_15  and  C_17
REMARK    8  A    between atoms: C_19  and  C_21
REMARK    9  A    between atoms: C_32  and  C_33
REMARK                            x       y       z     vdW  Elec       q    Type
REMARK                         _______ _______ _______ _____ _____    ______ ____
ROOT
ATOM      6  N   UNL     1       1.787  -0.466  23.473  0.00  0.00    -0.282 NA
ATOM     11  C   UNL     1       2.062   0.935  23.851  0.00  0.00    +0.149 C 
ATOM     12  C   UNL     1       3.201   1.381  22.915  0.00  0.00    +0.061 C 
ATOM     13  C   UNL     1       3.528   0.150  22.079  0.00  0.00    +0.130 C 
ATOM     14  C   UNL     1       3.037  -1.002  22.936  0.00  0.00    +0.117 C 
ENDROOT
BRANCH  11  16
ATOM      3  O   UNL     1      -0.226   1.303  23.070  0.00  0.00    -0.336 OA
ATOM      8  N   UNL     1       0.641   3.025  24.212  0.00  0.00    -0.193 NA
ATOM     10  N   UNL     1      -1.220   2.289  23.105  0.00  0.00    -0.060 NA
ATOM     16  C   UNL     1       0.836   1.818  23.745  0.00  0.00    +0.245 A 
ATOM     19  C   UNL     1      -0.634   3.273  23.794  0.00  0.00    +0.193 A 
BRANCH  19  21
ATOM     21  C   UNL     1      -1.320   4.537  24.081  0.00  0.00    +0.251 C 
BRANCH  21   1
ATOM      1  S   UNL     1      -2.114   4.408  25.659  0.00  0.00    +0.004 S 
ATOM      4  O   UNL     1      -2.471   5.750  26.081  0.00  0.00    -0.169 OA
ATOM      5  O   UNL     1      -1.304   3.560  26.513  0.00  0.00    -0.169 OA
BRANCH   1  27
ATOM     27  C   UNL     1      -3.605   3.526  25.313  0.00  0.00    +0.089 A 
ATOM     28  C   UNL     1      -4.565   3.363  26.312  0.00  0.00    +0.027 A 
ATOM     29  C   UNL     1      -3.819   2.989  24.044  0.00  0.00    +0.027 A 
ATOM     30  C   UNL     1      -5.741   2.665  26.039  0.00  0.00    +0.005 A 
ATOM     31  C   UNL     1      -4.995   2.290  23.773  0.00  0.00    +0.005 A 
ATOM     32  C   UNL     1      -5.956   2.128  24.770  0.00  0.00    -0.050 A 
ATOM     33  C   UNL     1      -7.214   1.381  24.480  0.00  0.00    +0.044 C 
ENDBRANCH   1  27
ENDBRANCH  21   1
ENDBRANCH  19  21
ENDBRANCH  11  16
BRANCH  13   2
ATOM      2  O   UNL     1       4.918   0.066  21.834  0.00  0.00    -0.390 OA
ATOM     34  H   UNL     1       5.093   0.509  20.986  0.00  0.00    +0.210 HD
ENDBRANCH  13   2
BRANCH   6  15
ATOM     15  C   UNL     1       1.275  -1.270  24.575  0.00  0.00    +0.159 C 
BRANCH  15  17
ATOM      7  N   UNL     1      -1.053  -0.631  25.279  0.00  0.00    -0.330 N 
ATOM      9  N   UNL     1      -0.893  -2.251  23.766  0.00  0.00    -0.231 NA
ATOM     17  C   UNL     1      -0.223  -1.406  24.519  0.00  0.00    +0.125 A 
ATOM     18  C   UNL     1      -2.344  -0.999  24.999  0.00  0.00    +0.069 A 
ATOM     20  C   UNL     1      -2.217  -2.012  24.052  0.00  0.00    +0.089 A 
ATOM     22  C   UNL     1      -0.648   0.396  26.213  0.00  0.00    +0.150 C 
ATOM     23  C   UNL     1      -3.575  -0.547  25.478  0.00  0.00    +0.028 A 
ATOM     24  C   UNL     1      -3.376  -2.620  23.541  0.00  0.00    +0.030 A 
ATOM     25  C   UNL     1      -4.717  -1.165  24.959  0.00  0.00    +0.002 A 
ATOM     26  C   UNL     1      -4.622  -2.183  24.008  0.00  0.00    +0.002 A 
ENDBRANCH  15  17
ENDBRANCH   6  15
TORSDOF 7
ENDMDL
MODEL 8
REMARK VINA RESULT:       3.5      2.438      6.803
REMARK  Name = 26744058
REMARK  9 active torsions:
REMARK  status: ('A' for Active; 'I' for Inactive)
REMARK    1  A    between atoms: S_1  and  C_21
REMARK    2  A    between atoms: S_1  and  C_27
REMARK    3  A    between atoms: O_2  and  C_13
REMARK    4  A    between atoms: N_6  and  C_15
REMARK    5  A    between atoms: N_7  and  C_22
REMARK    6  A    between atoms: C_11  and  C_16
REMARK    7  A    between atoms: C_15  and  C_17
REMARK    8  A    between atoms: C_19  and  C_21
REMARK    9  A    between atoms: C_32  and  C_33
REMARK                            x       y       z     vdW  Elec       q    Type
REMARK                         _______ _______ _______ _____ _____    ______ ____
ROOT
ATOM      6  N   UNL     1      -1.115  -0.248  24.509  0.00  0.00    -0.282 NA
ATOM     11  C   UNL     1      -2.363  -0.899  24.064  0.00  0.00    +0.149 C 
ATOM     12  C   UNL     1      -2.304  -2.317  24.663  0.00  0.00    +0.061 C 
ATOM     13  C   UNL     1      -0.966  -2.382  25.388  0.00  0.00    +0.130 C 
ATOM     14  C   UNL     1      -0.136  -1.317  24.699  0.00  0.00    +0.117 C 
ENDROOT
BRANCH  11  16
ATOM      3  O   UNL     1      -4.315  -0.661  25.516  0.00  0.00    -0.336 OA
ATOM      8  N   UNL     1      -4.099   0.973  23.999  0.00  0.00    -0.193 NA
ATOM     10  N   UNL     1      -5.397   0.206  25.719  0.00  0.00    -0.060 NA
ATOM     16  C   UNL     1      -3.601  -0.136  24.486  0.00  0.00    +0.245 A 
ATOM     19  C   UNL     1      -5.200   1.143  24.786  0.00  0.00    +0.193 A 
BRANCH  19  21
ATOM     21  C   UNL     1      -6.112   2.279  24.622  0.00  0.00    +0.251 C 
BRANCH  21   1
ATOM      1  S   UNL     1      -5.685   3.525  25.807  0.00  0.00    +0.004 S 
ATOM      4  O   UNL     1      -5.784   2.928  27.126  0.00  0.00    -0.169 OA
ATOM      5  O   UNL     1      -6.423   4.734  25.490  0.00  0.00    -0.169 OA
BRANCH   1  27
ATOM     27  C   UNL     1      -3.981   3.855  25.480  0.00  0.00    +0.089 A 
ATOM     28  C   UNL     1      -3.600   4.407  24.257  0.00  0.00    +0.027 A 
ATOM     29  C   UNL     1      -3.016   3.560  26.444  0.00  0.00    +0.027 A 
ATOM     30  C   UNL     1      -2.254   4.665  23.998  0.00  0.00    +0.005 A 
ATOM     31  C   UNL     1      -1.671   3.817  26.184  0.00  0.00    +0.005 A 
ATOM     32  C   UNL     1      -1.290   4.370  24.962  0.00  0.00    -0.050 A 
ATOM     33  C   UNL     1       0.150   4.646  24.684  0.00  0.00    +0.044 C 
ENDBRANCH   1  27
ENDBRANCH  21   1
ENDBRANCH  19  21
ENDBRANCH  11  16
BRANCH  13   2
ATOM      2  O   UNL     1      -0.386  -3.665  25.257  0.00  0.00    -0.390 OA
ATOM     34  H   UNL     1      -0.860  -4.263  25.861  0.00  0.00    +0.210 HD
ENDBRANCH  13   2
BRANCH   6  15
ATOM     15  C   UNL     1      -0.639   0.775  23.587  0.00  0.00    +0.159 C 
BRANCH  15  17
ATOM      7  N   UNL     1       1.422   0.035  22.349  0.00  0.00    -0.330 N 
ATOM      9  N   UNL     1       1.756   1.256  24.176  0.00  0.00    -0.231 NA
ATOM     17  C   UNL     1       0.852   0.706  23.395  0.00  0.00    +0.125 A 
ATOM     18  C   UNL     1       2.783   0.161  22.461  0.00  0.00    +0.069 A 
ATOM     20  C   UNL     1       2.966   0.928  23.610  0.00  0.00    +0.089 A 
ATOM     22  C   UNL     1       0.718  -0.681  21.308  0.00  0.00    +0.150 C 
ATOM     23  C   UNL     1       3.837  -0.316  21.682  0.00  0.00    +0.028 A 
ATOM     24  C   UNL     1       4.271   1.247  24.018  0.00  0.00    +0.030 A 
ATOM     25  C   UNL     1       5.130   0.012  22.103  0.00  0.00    +0.002 A 
ATOM     26  C   UNL     1       5.345   0.780  23.250  0.00  0.00    +0.002 A 
ENDBRANCH  15  17
ENDBRANCH   6  15
TORSDOF 7
ENDMDL
MODEL 9
REMARK VINA RESULT:       3.7      2.346      6.704
REMARK  Name = 26744058
REMARK  9 active torsions:
REMARK  status: ('A' for Active; 'I' for Inactive)
REMARK    1  A    between atoms: S_1  and  C_21
REMARK    2  A    between atoms: S_1  and  C_27
REMARK    3  A    between atoms: O_2  and  C_13
REMARK    4  A    between atoms: N_6  and  C_15
REMARK    5  A    between atoms: N_7  and  C_22
REMARK    6  A    between atoms: C_11  and  C_16
REMARK    7  A    between atoms: C_15  and  C_17
REMARK    8  A    between atoms: C_19  and  C_21
REMARK    9  A    between atoms: C_32  and  C_33
REMARK                            x       y       z     vdW  Elec       q    Type
REMARK                         _______ _______ _______ _____ _____    ______ ____
ROOT
ATOM      6  N   UNL     1      -0.537   2.162  23.653  0.00  0.00    -0.282 NA
ATOM     11  C   UNL     1      -0.116   1.630  24.964  0.00  0.00    +0.149 C 
ATOM     12  C   UNL     1      -0.208   2.830  25.925  0.00  0.00    +0.061 C 
ATOM     13  C   UNL     1      -0.645   4.000  25.053  0.00  0.00    +0.130 C 
ATOM     14  C   UNL     1      -0.210   3.587  23.660  0.00  0.00    +0.117 C 
ENDROOT
BRANCH  11  16
ATOM      3  O   UNL     1      -0.616  -0.119  26.598  0.00  0.00    -0.336 OA
ATOM      8  N   UNL     1      -1.982  -0.108  24.823  0.00  0.00    -0.193 NA
ATOM     10  N   UNL     1      -1.523  -1.168  26.796  0.00  0.00    -0.060 NA
ATOM     16  C   UNL     1      -0.957   0.454  25.413  0.00  0.00    +0.245 A 
ATOM     19  C   UNL     1      -2.295  -1.097  25.707  0.00  0.00    +0.193 A 
BRANCH  19  21
ATOM     21  C   UNL     1      -3.406  -2.027  25.481  0.00  0.00    +0.251 C 
BRANCH  21   1
ATOM      1  S   UNL     1      -4.360  -1.449  24.106  0.00  0.00    +0.004 S 
ATOM      4  O   UNL     1      -5.626  -2.158  24.122  0.00  0.00    -0.169 OA
ATOM      5  O   UNL     1      -3.521  -1.469  22.922  0.00  0.00    -0.169 OA
BRANCH   1  27
ATOM     27  C   UNL     1      -4.675   0.246  24.491  0.00  0.00    +0.089 A 
ATOM     28  C   UNL     1      -4.052   1.255  23.755  0.00  0.00    +0.027 A 
ATOM     29  C   UNL     1      -5.542   0.575  25.533  0.00  0.00    +0.027 A 
ATOM     30  C   UNL     1      -4.299   2.593  24.062  0.00  0.00    +0.005 A 
ATOM     31  C   UNL     1      -5.788   1.913  25.839  0.00  0.00    +0.005 A 
ATOM     32  C   UNL     1      -5.167   2.922  25.103  0.00  0.00    -0.050 A 
ATOM     33  C   UNL     1      -5.430   4.354  25.430  0.00  0.00    +0.044 C 
ENDBRANCH   1  27
ENDBRANCH  21   1
ENDBRANCH  19  21
ENDBRANCH  11  16
BRANCH  13   2
ATOM      2  O   UNL     1      -0.015   5.197  25.466  0.00  0.00    -0.390 OA
ATOM     34  H   UNL     1      -0.109   5.258  26.432  0.00  0.00    +0.210 HD
ENDBRANCH  13   2
BRANCH   6  15
ATOM     15  C   UNL     1       0.071   1.465  22.527  0.00  0.00    +0.159 C 
BRANCH  15  17
ATOM      7  N   UNL     1       1.674  -0.360  23.180  0.00  0.00    -0.330 N 
ATOM      9  N   UNL     1       2.549   1.663  22.895  0.00  0.00    -0.231 NA
ATOM     17  C   UNL     1       1.445   0.950  22.863  0.00  0.00    +0.125 A 
ATOM     18  C   UNL     1       3.015  -0.502  23.432  0.00  0.00    +0.069 A 
ATOM     20  C   UNL     1       3.539   0.775  23.248  0.00  0.00    +0.089 A 
ATOM     22  C   UNL     1       0.684  -1.411  23.238  0.00  0.00    +0.150 C 
ATOM     23  C   UNL     1       3.791  -1.604  23.795  0.00  0.00    +0.028 A 
ATOM     24  C   UNL     1       4.916   0.983  23.432  0.00  0.00    +0.030 A 
ATOM     25  C   UNL     1       5.159  -1.378  23.974  0.00  0.00    +0.002 A 
ATOM     26  C   UNL     1       5.714  -0.109  23.796  0.00  0.00    +0.002 A 
ENDBRANCH  15  17
ENDBRANCH   6  15
TORSDOF 7
ENDMDL
MODEL 10
REMARK VINA RESULT:       4.0      1.811      2.638
REMARK  Name = 26744058
REMARK  9 active torsions:
REMARK  status: ('A' for Active; 'I' for Inactive)
REMARK    1  A    between atoms: S_1  and  C_21
REMARK    2  A    between atoms: S_1  and  C_27
REMARK    3  A    between atoms: O_2  and  C_13
REMARK    4  A    between atoms: N_6  and  C_15
REMARK    5  A    between atoms: N_7  and  C_22
REMARK    6  A    between atoms: C_11  and  C_16
REMARK    7  A    between atoms: C_15  and  C_17
REMARK    8  A    between atoms: C_19  and  C_21
REMARK    9  A    between atoms: C_32  and  C_33
REMARK                            x       y       z     vdW  Elec       q    Type
REMARK                         _______ _______ _______ _____ _____    ______ ____
ROOT
ATOM      6  N   UNL     1      -3.048   3.634  25.822  0.00  0.00    -0.282 NA
ATOM     11  C   UNL     1      -2.242   3.363  24.616  0.00  0.00    +0.149 C 
ATOM     12  C   UNL     1      -1.382   4.627  24.424  0.00  0.00    +0.061 C 
ATOM     13  C   UNL     1      -1.809   5.568  25.544  0.00  0.00    +0.130 C 
ATOM     14  C   UNL     1      -3.203   5.086  25.900  0.00  0.00    +0.117 C 
ENDROOT
BRANCH  11  16
ATOM      3  O   UNL     1      -0.955   1.798  25.984  0.00  0.00    -0.336 OA
ATOM      8  N   UNL     1      -1.056   1.248  23.815  0.00  0.00    -0.193 NA
ATOM     10  N   UNL     1      -0.224   0.611  25.848  0.00  0.00    -0.060 NA
ATOM     16  C   UNL     1      -1.411   2.103  24.740  0.00  0.00    +0.245 A 
ATOM     19  C   UNL     1      -0.330   0.351  24.541  0.00  0.00    +0.193 A 
BRANCH  19  21
ATOM     21  C   UNL     1       0.298  -0.825  23.930  0.00  0.00    +0.251 C 
BRANCH  21   1
ATOM      1  S   UNL     1       1.124  -0.322  22.446  0.00  0.00    +0.004 S 
ATOM      4  O   UNL     1       0.695   1.032  22.144  0.00  0.00    -0.169 OA
ATOM      5  O   UNL     1       0.983  -1.376  21.460  0.00  0.00    -0.169 OA
BRANCH   1  27
ATOM     27  C   UNL     1       2.828  -0.267  22.908  0.00  0.00    +0.089 A 
ATOM     28  C   UNL     1       3.575   0.889  22.679  0.00  0.00    +0.027 A 
ATOM     29  C   UNL     1       3.428  -1.380  23.497  0.00  0.00    +0.027 A 
ATOM     30  C   UNL     1       4.921   0.932  23.041  0.00  0.00    +0.005 A 
ATOM     31  C   UNL     1       4.774  -1.337  23.858  0.00  0.00    +0.005 A 
ATOM     32  C   UNL     1       5.521  -0.182  23.631  0.00  0.00    -0.050 A 
ATOM     33  C   UNL     1       6.961  -0.135  24.018  0.00  0.00    +0.044 C 
ENDBRANCH   1  27
ENDBRANCH  21   1
ENDBRANCH  19  21
ENDBRANCH  11  16
BRANCH  13   2
ATOM      2  O   UNL     1      -1.816   6.909  25.097  0.00  0.00    -0.390 OA
ATOM     34  H   UNL     1      -2.676   7.294  25.342  0.00  0.00    +0.210 HD
ENDBRANCH  13   2
BRANCH   6  15
ATOM     15  C   UNL     1      -4.332   2.945  25.822  0.00  0.00    +0.159 C 
BRANCH  15  17
ATOM      7  N   UNL     1      -4.388   1.018  24.207  0.00  0.00    -0.330 N 
ATOM      9  N   UNL     1      -3.862   0.525  26.309  0.00  0.00    -0.231 NA
ATOM     17  C   UNL     1      -4.186   1.488  25.474  0.00  0.00    +0.125 A 
ATOM     18  C   UNL     1      -4.179  -0.337  24.224  0.00  0.00    +0.069 A 
ATOM     20  C   UNL     1      -3.852  -0.621  25.548  0.00  0.00    +0.089 A 
ATOM     22  C   UNL     1      -4.754   1.805  23.051  0.00  0.00    +0.150 C 
ATOM     23  C   UNL     1      -4.246  -1.311  23.226  0.00  0.00    +0.028 A 
ATOM     24  C   UNL     1      -3.572  -1.947  25.915  0.00  0.00    +0.030 A 
ATOM     25  C   UNL     1      -3.965  -2.626  23.610  0.00  0.00    +0.002 A 
ATOM     26  C   UNL     1      -3.634  -2.941  24.929  0.00  0.00    +0.002 A 
ENDBRANCH  15  17
ENDBRANCH   6  15
TORSDOF 7
ENDMDL
