MODEL 1
REMARK VINA RESULT:      15.5      0.000      0.000
REMARK  Name = 86769126
REMARK  2 active torsions:
REMARK  status: ('A' for Active; 'I' for Inactive)
REMARK    1  A    between atoms: O_2  and  C_17
REMARK    2  A    between atoms: N_9  and  C_26
REMARK                            x       y       z     vdW  Elec       q    Type
REMARK                         _______ _______ _______ _____ _____    ______ ____
ROOT
ATOM      1  O   UNL     1      -4.740   3.870  23.965  0.00  0.00    -0.458 OA
ATOM      3  O   UNL     1      -1.036   1.511  23.287  0.00  0.00    -0.489 OA
ATOM      4  O   UNL     1      -6.069   5.252  25.189  0.00  0.00    -0.251 OA
ATOM      5  O   UNL     1      -3.700  -2.874  25.678  0.00  0.00    -0.274 OA
ATOM      7  N   UNL     1      -4.221  -0.718  24.978  0.00  0.00    -0.300 N 
ATOM      8  N   UNL     1      -1.372  -1.396  24.057  0.00  0.00    -0.304 NA
ATOM     10  C   UNL     1      -3.858   1.725  24.826  0.00  0.00    +0.053 C 
ATOM     11  C   UNL     1      -5.111   1.906  25.712  0.00  0.00    +0.009 C 
ATOM     12  C   UNL     1      -3.543   3.052  24.089  0.00  0.00    +0.213 C 
ATOM     13  C   UNL     1      -4.068   0.424  24.039  0.00  0.00    +0.115 C 
ATOM     14  C   UNL     1      -5.159   0.783  26.744  0.00  0.00    +0.023 C 
ATOM     15  C   UNL     1      -5.146   3.313  26.284  0.00  0.00    +0.124 C 
ATOM     16  C   UNL     1      -5.247  -0.563  26.020  0.00  0.00    +0.108 C 
ATOM     17  C   UNL     1      -2.843   3.057  22.717  0.00  0.00    +0.193 C 
ATOM     18  C   UNL     1      -5.368   4.250  25.117  0.00  0.00    +0.308 C 
ATOM     19  C   UNL     1      -3.548  -1.942  24.882  0.00  0.00    +0.229 C 
ATOM     20  C   UNL     1      -1.327   2.814  22.784  0.00  0.00    +0.264 C 
ATOM     21  C   UNL     1      -2.588  -2.125  23.726  0.00  0.00    +0.178 C 
ATOM     22  C   UNL     1       0.292   1.152  23.295  0.00  0.00    +0.125 A 
ATOM     23  C   UNL     1      -0.514  -1.235  22.887  0.00  0.00    +0.120 C 
ATOM     24  C   UNL     1       0.579  -0.221  23.136  0.00  0.00    +0.010 A 
ATOM     25  C   UNL     1       1.914  -0.652  23.184  0.00  0.00    +0.031 A 
ATOM     26  C   UNL     1       2.948   0.259  23.384  0.00  0.00    +0.030 A 
ATOM     27  C   UNL     1       1.339   2.058  23.503  0.00  0.00    +0.048 A 
ATOM     28  C   UNL     1       2.661   1.611  23.543  0.00  0.00    +0.027 A 
ATOM     34  H   UNL     1      -0.865  -1.873  24.802  0.00  0.00    +0.123 HD
ENDROOT
BRANCH  26   9
ATOM      6  O   UNL     1       6.918  -1.068  23.796  0.00  0.00    -0.377 OA
ATOM      9  N   UNL     1       4.275  -0.184  23.429  0.00  0.00    -0.326 N 
ATOM     29  C   UNL     1       4.542  -1.518  23.985  0.00  0.00    +0.133 C 
ATOM     30  C   UNL     1       5.366   0.785  23.579  0.00  0.00    +0.133 C 
ATOM     31  C   UNL     1       5.896  -2.018  23.495  0.00  0.00    +0.178 C 
ATOM     32  C   UNL     1       6.677   0.162  23.113  0.00  0.00    +0.178 C 
ENDBRANCH  26   9
BRANCH  17   2
ATOM      2  O   UNL     1      -3.464   2.152  21.815  0.00  0.00    -0.385 OA
ATOM     33  H   UNL     1      -2.949   1.328  21.820  0.00  0.00    +0.210 HD
ENDBRANCH  17   2
TORSDOF 2
ENDMDL
