MODEL 1
REMARK VINA RESULT:       9.3      0.000      0.000
REMARK  Name = 44716227
REMARK  6 active torsions:
REMARK  status: ('A' for Active; 'I' for Inactive)
REMARK    1  A    between atoms: N_5  and  C_16
REMARK    2  A    between atoms: C_10  and  C_17
REMARK    3  A    between atoms: C_11  and  C_16
REMARK    4  A    between atoms: C_22  and  C_24
REMARK    5  A    between atoms: C_25  and  C_26
REMARK    6  A    between atoms: C_31  and  C_32
REMARK                            x       y       z     vdW  Elec       q    Type
REMARK                         _______ _______ _______ _____ _____    ______ ____
ROOT
ATOM      3  N   UNL     1      -6.466   1.772  24.281  0.00  0.00    -0.297 NA
ATOM      9  C   UNL     1      -4.510   2.557  25.805  0.00  0.00    +0.005 C 
ATOM     10  C   UNL     1      -4.305   3.021  24.350  0.00  0.00    +0.092 C 
ATOM     11  C   UNL     1      -5.912   0.614  25.032  0.00  0.00    +0.078 C 
ATOM     12  C   UNL     1      -4.652   1.023  25.827  0.00  0.00    +0.025 C 
ATOM     13  C   UNL     1      -5.850   3.150  26.276  0.00  0.00    +0.020 C 
ATOM     14  C   UNL     1      -5.406   2.412  23.465  0.00  0.00    +0.097 C 
ATOM     15  C   UNL     1      -6.952   2.766  25.270  0.00  0.00    +0.085 C 
ENDROOT
BRANCH  10  17
ATOM      1  O   UNL     1      -2.823   1.932  22.858  0.00  0.00    -0.275 OA
ATOM      4  N   UNL     1      -1.848   3.212  24.533  0.00  0.00    -0.301 N 
ATOM     17  C   UNL     1      -2.929   2.669  23.841  0.00  0.00    +0.220 C 
ATOM     18  C   UNL     1      -0.483   2.951  24.074  0.00  0.00    +0.108 C 
ATOM     19  C   UNL     1      -1.944   4.092  25.705  0.00  0.00    +0.108 C 
ATOM     20  C   UNL     1       0.370   2.373  25.201  0.00  0.00    +0.032 C 
ATOM     21  C   UNL     1      -1.122   3.537  26.867  0.00  0.00    +0.032 C 
ATOM     22  C   UNL     1       0.324   3.269  26.442  0.00  0.00    +0.078 C 
BRANCH  22  24
ATOM      2  O   UNL     1       2.254   2.869  27.793  0.00  0.00    -0.276 OA
ATOM      8  N   UNL     1       0.330   1.697  28.265  0.00  0.00    -0.329 N 
ATOM     24  C   UNL     1       1.075   2.612  27.559  0.00  0.00    +0.214 C 
ATOM     38  H   UNL     1       0.735   1.185  29.041  0.00  0.00    +0.145 HD
ATOM     39  H   UNL     1      -0.639   1.494  28.042  0.00  0.00    +0.145 HD
ENDBRANCH  22  24
ENDBRANCH  10  17
BRANCH  11  16
ATOM     16  C   UNL     1      -5.649  -0.594  24.130  0.00  0.00    +0.164 C 
BRANCH  16   5
ATOM      5  N   UNL     1      -4.239  -1.092  24.274  0.00  0.00    -0.250 N 
ATOM      6  N   UNL     1      -3.989  -2.292  24.821  0.00  0.00    -0.065 NA
ATOM      7  N   UNL     1      -2.670  -2.461  24.815  0.00  0.00    -0.130 NA
ATOM     23  C   UNL     1      -3.091  -0.461  23.903  0.00  0.00    +0.138 A 
ATOM     25  C   UNL     1      -2.107  -1.349  24.256  0.00  0.00    +0.113 A 
BRANCH  25  26
ATOM     26  C   UNL     1      -0.705  -1.152  24.073  0.00  0.00    +0.004 A 
ATOM     27  C   UNL     1      -0.245  -0.281  23.085  0.00  0.00    +0.011 A 
ATOM     28  C   UNL     1       0.206  -1.832  24.883  0.00  0.00    +0.011 A 
ATOM     29  C   UNL     1       1.126  -0.089  22.907  0.00  0.00    +0.009 A 
ATOM     30  C   UNL     1       1.576  -1.640  24.705  0.00  0.00    +0.009 A 
ATOM     31  C   UNL     1       2.036  -0.769  23.718  0.00  0.00    -0.018 A 
BRANCH  31  32
ATOM     32  C   UNL     1       3.457  -0.571  23.533  0.00  0.00    -0.018 A 
ATOM     33  C   UNL     1       4.354  -1.573  23.903  0.00  0.00    +0.008 A 
ATOM     34  C   UNL     1       3.930   0.622  22.986  0.00  0.00    +0.008 A 
ATOM     35  C   UNL     1       5.724  -1.383  23.726  0.00  0.00    +0.001 A 
ATOM     36  C   UNL     1       5.301   0.812  22.809  0.00  0.00    +0.001 A 
ATOM     37  C   UNL     1       6.198  -0.190  23.179  0.00  0.00    +0.000 A 
ENDBRANCH  31  32
ENDBRANCH  25  26
ENDBRANCH  16   5
ENDBRANCH  11  16
TORSDOF 6
ENDMDL
MODEL 2
REMARK VINA RESULT:      10.7      2.024      3.982
REMARK  Name = 44716227
REMARK  6 active torsions:
REMARK  status: ('A' for Active; 'I' for Inactive)
REMARK    1  A    between atoms: N_5  and  C_16
REMARK    2  A    between atoms: C_10  and  C_17
REMARK    3  A    between atoms: C_11  and  C_16
REMARK    4  A    between atoms: C_22  and  C_24
REMARK    5  A    between atoms: C_25  and  C_26
REMARK    6  A    between atoms: C_31  and  C_32
REMARK                            x       y       z     vdW  Elec       q    Type
REMARK                         _______ _______ _______ _____ _____    ______ ____
ROOT
ATOM      3  N   UNL     1      -5.024   4.132  25.195  0.00  0.00    -0.297 NA
ATOM      9  C   UNL     1      -4.903   1.588  25.728  0.00  0.00    +0.005 C 
ATOM     10  C   UNL     1      -3.707   2.344  26.338  0.00  0.00    +0.092 C 
ATOM     11  C   UNL     1      -5.154   3.345  23.940  0.00  0.00    +0.078 C 
ATOM     12  C   UNL     1      -4.932   1.839  24.207  0.00  0.00    +0.025 C 
ATOM     13  C   UNL     1      -6.176   2.219  26.321  0.00  0.00    +0.020 C 
ATOM     14  C   UNL     1      -3.746   3.811  25.875  0.00  0.00    +0.097 C 
ATOM     15  C   UNL     1      -6.137   3.742  26.095  0.00  0.00    +0.085 C 
ENDROOT
BRANCH  10  17
ATOM      1  O   UNL     1      -1.429   2.397  25.693  0.00  0.00    -0.275 OA
ATOM      4  N   UNL     1      -2.365   0.295  26.016  0.00  0.00    -0.301 N 
ATOM     17  C   UNL     1      -2.395   1.689  25.986  0.00  0.00    +0.220 C 
ATOM     18  C   UNL     1      -1.116  -0.413  25.728  0.00  0.00    +0.108 C 
ATOM     19  C   UNL     1      -3.497  -0.573  26.361  0.00  0.00    +0.108 C 
ATOM     20  C   UNL     1      -1.315  -1.437  24.614  0.00  0.00    +0.032 C 
ATOM     21  C   UNL     1      -3.746  -1.601  25.260  0.00  0.00    +0.032 C 
ATOM     22  C   UNL     1      -2.473  -2.386  24.938  0.00  0.00    +0.078 C 
BRANCH  22  24
ATOM      2  O   UNL     1      -1.785  -3.802  23.140  0.00  0.00    -0.276 OA
ATOM      8  N   UNL     1      -4.040  -3.490  23.483  0.00  0.00    -0.329 N 
ATOM     24  C   UNL     1      -2.710  -3.298  23.774  0.00  0.00    +0.214 C 
ATOM     38  H   UNL     1      -4.323  -4.085  22.710  0.00  0.00    +0.145 HD
ATOM     39  H   UNL     1      -4.784  -3.051  24.015  0.00  0.00    +0.145 HD
ENDBRANCH  22  24
ENDBRANCH  10  17
BRANCH  11  16
ATOM     16  C   UNL     1      -4.242   3.865  22.827  0.00  0.00    +0.164 C 
BRANCH  16   5
ATOM      5  N   UNL     1      -3.141   2.892  22.517  0.00  0.00    -0.250 N 
ATOM      6  N   UNL     1      -3.304   1.953  21.569  0.00  0.00    -0.065 NA
ATOM      7  N   UNL     1      -2.178   1.248  21.516  0.00  0.00    -0.130 NA
ATOM     23  C   UNL     1      -1.911   2.814  23.094  0.00  0.00    +0.138 A 
ATOM     25  C   UNL     1      -1.316   1.763  22.443  0.00  0.00    +0.113 A 
BRANCH  25  26
ATOM     26  C   UNL     1       0.002   1.271  22.688  0.00  0.00    +0.004 A 
ATOM     27  C   UNL     1       0.456   0.129  22.029  0.00  0.00    +0.011 A 
ATOM     28  C   UNL     1       0.836   1.934  23.590  0.00  0.00    +0.011 A 
ATOM     29  C   UNL     1       1.744  -0.350  22.269  0.00  0.00    +0.009 A 
ATOM     30  C   UNL     1       2.124   1.454  23.830  0.00  0.00    +0.009 A 
ATOM     31  C   UNL     1       2.577   0.313  23.170  0.00  0.00    -0.018 A 
BRANCH  31  32
ATOM     32  C   UNL     1       3.913  -0.184  23.421  0.00  0.00    -0.018 A 
ATOM     33  C   UNL     1       4.102  -1.512  23.804  0.00  0.00    +0.008 A 
ATOM     34  C   UNL     1       5.011   0.665  23.282  0.00  0.00    +0.008 A 
ATOM     35  C   UNL     1       5.389  -1.991  24.046  0.00  0.00    +0.001 A 
ATOM     36  C   UNL     1       6.298   0.185  23.525  0.00  0.00    +0.001 A 
ATOM     37  C   UNL     1       6.487  -1.142  23.907  0.00  0.00    +0.000 A 
ENDBRANCH  31  32
ENDBRANCH  25  26
ENDBRANCH  16   5
ENDBRANCH  11  16
TORSDOF 6
ENDMDL
