MODEL 1
REMARK VINA RESULT:      -1.2      0.000      0.000
REMARK  Name = 24121228
REMARK  12 active torsions:
REMARK  status: ('A' for Active; 'I' for Inactive)
REMARK    1  A    between atoms: O_2  and  C_15
REMARK    2  A    between atoms: O_2  and  C_24
REMARK    3  A    between atoms: O_3  and  C_16
REMARK    4  A    between atoms: O_4  and  C_20
REMARK    5  A    between atoms: N_7  and  C_26
REMARK    6  A    between atoms: N_8  and  C_25
REMARK    7  A    between atoms: C_9  and  C_19
REMARK    8  A    between atoms: C_11  and  C_20
REMARK    9  A    between atoms: C_11  and  C_21
REMARK   10  A    between atoms: C_12  and  C_22
REMARK   11  A    between atoms: C_22  and  C_23
REMARK   12  A    between atoms: C_26  and  C_32
REMARK                            x       y       z     vdW  Elec       q    Type
REMARK                         _______ _______ _______ _____ _____    ______ ____
ROOT
ATOM      9  C   UNL     1      -2.732   0.032  24.022  0.00  0.00    -0.023 C 
ATOM     10  C   UNL     1      -3.610   0.236  25.317  0.00  0.00    +0.007 C 
ATOM     11  C   UNL     1      -4.744   1.328  25.238  0.00  0.00    +0.031 C 
ATOM     12  C   UNL     1      -1.488  -0.857  24.442  0.00  0.00    +0.032 C 
ATOM     13  C   UNL     1      -2.229   1.421  23.546  0.00  0.00    +0.011 C 
ATOM     14  C   UNL     1      -4.062  -1.123  25.896  0.00  0.00    +0.007 C 
ATOM     15  C   UNL     1      -4.135   2.647  24.673  0.00  0.00    +0.186 C 
ATOM     16  C   UNL     1      -1.885  -2.194  25.110  0.00  0.00    +0.119 C 
ATOM     17  C   UNL     1      -3.338   2.455  23.387  0.00  0.00    +0.046 C 
ATOM     18  C   UNL     1      -2.863  -1.997  26.265  0.00  0.00    +0.032 C 
ATOM     19  C   UNL     1      -3.500  -0.628  22.851  0.00  0.00    +0.012 C 
ATOM     21  C   UNL     1      -5.258   1.632  26.676  0.00  0.00    +0.017 C 
ENDROOT
BRANCH  16   3
ATOM      3  O   UNL     1      -2.441  -3.094  24.157  0.00  0.00    -0.391 OA
ATOM     36  H   UNL     1      -1.731  -3.689  23.863  0.00  0.00    +0.210 HD
ENDBRANCH  16   3
BRANCH  15   2
ATOM      2  O   UNL     1      -5.142   3.622  24.400  0.00  0.00    -0.446 OA
BRANCH   2  24
ATOM      6  O   UNL     1      -6.361   5.119  25.643  0.00  0.00    -0.226 OA
ATOM      8  N   UNL     1      -4.059   4.940  25.864  0.00  0.00    -0.278 N 
ATOM     24  C   UNL     1      -5.289   4.611  25.334  0.00  0.00    +0.401 C 
ATOM     39  H   UNL     1      -4.024   5.698  26.541  0.00  0.00    +0.152 HD
BRANCH   8  25
ATOM     25  C   UNL     1      -2.822   4.314  25.468  0.00  0.00    +0.076 C 
ATOM     27  C   UNL     1      -1.832   5.355  24.938  0.00  0.00    +0.022 C 
ATOM     28  C   UNL     1      -2.224   3.519  26.632  0.00  0.00    +0.022 C 
ATOM     29  C   UNL     1      -0.495   4.721  24.562  0.00  0.00    +0.002 C 
ATOM     30  C   UNL     1      -0.887   2.888  26.255  0.00  0.00    +0.002 C 
ATOM     31  C   UNL     1       0.096   3.927  25.724  0.00  0.00    +0.000 C 
ENDBRANCH   8  25
ENDBRANCH   2  24
ENDBRANCH  15   2
BRANCH  11  20
ATOM     20  C   UNL     1      -5.985   0.891  24.435  0.00  0.00    +0.166 C 
BRANCH  20   4
ATOM      4  O   UNL     1      -7.085   1.649  24.888  0.00  0.00    -0.394 OA
ATOM     37  H   UNL     1      -7.888   1.133  24.704  0.00  0.00    +0.209 HD
ENDBRANCH  20   4
ENDBRANCH  11  20
BRANCH  12  22
ATOM     22  C   UNL     1      -0.471  -1.116  23.319  0.00  0.00    +0.102 C 
BRANCH  22  23
ATOM      5  O   UNL     1       0.583   0.964  23.962  0.00  0.00    -0.276 OA
ATOM      7  N   UNL     1       1.546  -0.345  22.301  0.00  0.00    -0.311 N 
ATOM     23  C   UNL     1       0.587  -0.040  23.257  0.00  0.00    +0.214 C 
ATOM     38  H   UNL     1       1.456  -1.192  21.748  0.00  0.00    +0.149 HD
BRANCH   7  26
ATOM     26  C   UNL     1       2.678   0.508  22.020  0.00  0.00    +0.146 C 
BRANCH  26  32
ATOM      1  S   UNL     1       3.868  -1.453  23.583  0.00  0.00    -0.100 S 
ATOM     32  C   UNL     1       3.832   0.113  22.891  0.00  0.00    +0.007 A 
ATOM     33  C   UNL     1       4.934   0.861  23.245  0.00  0.00    +0.013 A 
ATOM     34  C   UNL     1       5.819   0.138  24.094  0.00  0.00    +0.008 A 
ATOM     35  C   UNL     1       5.361  -1.134  24.358  0.00  0.00    +0.045 A 
ENDBRANCH  26  32
ENDBRANCH   7  26
ENDBRANCH  22  23
ENDBRANCH  12  22
TORSDOF 10
ENDMDL
MODEL 2
REMARK VINA RESULT:       1.5      1.975      6.688
REMARK  Name = 24121228
REMARK  12 active torsions:
REMARK  status: ('A' for Active; 'I' for Inactive)
REMARK    1  A    between atoms: O_2  and  C_15
REMARK    2  A    between atoms: O_2  and  C_24
REMARK    3  A    between atoms: O_3  and  C_16
REMARK    4  A    between atoms: O_4  and  C_20
REMARK    5  A    between atoms: N_7  and  C_26
REMARK    6  A    between atoms: N_8  and  C_25
REMARK    7  A    between atoms: C_9  and  C_19
REMARK    8  A    between atoms: C_11  and  C_20
REMARK    9  A    between atoms: C_11  and  C_21
REMARK   10  A    between atoms: C_12  and  C_22
REMARK   11  A    between atoms: C_22  and  C_23
REMARK   12  A    between atoms: C_26  and  C_32
REMARK                            x       y       z     vdW  Elec       q    Type
REMARK                         _______ _______ _______ _____ _____    ______ ____
ROOT
ATOM      9  C   UNL     1      -3.073   2.485  24.517  0.00  0.00    -0.023 C 
ATOM     10  C   UNL     1      -1.869   2.912  25.443  0.00  0.00    +0.007 C 
ATOM     11  C   UNL     1      -0.420   2.723  24.851  0.00  0.00    +0.031 C 
ATOM     12  C   UNL     1      -4.370   2.462  25.427  0.00  0.00    +0.032 C 
ATOM     13  C   UNL     1      -2.798   1.053  23.984  0.00  0.00    +0.011 C 
ATOM     14  C   UNL     1      -2.129   4.294  26.082  0.00  0.00    +0.007 C 
ATOM     15  C   UNL     1      -0.294   1.280  24.278  0.00  0.00    +0.186 C 
ATOM     16  C   UNL     1      -4.629   3.797  26.163  0.00  0.00    +0.119 C 
ATOM     17  C   UNL     1      -1.428   0.892  23.334  0.00  0.00    +0.046 C 
ATOM     18  C   UNL     1      -3.402   4.284  26.929  0.00  0.00    +0.032 C 
ATOM     19  C   UNL     1      -3.279   3.419  23.300  0.00  0.00    +0.012 C 
ATOM     21  C   UNL     1       0.621   2.860  26.001  0.00  0.00    +0.017 C 
ENDROOT
BRANCH  16   3
ATOM      3  O   UNL     1      -5.060   4.803  25.254  0.00  0.00    -0.391 OA
ATOM     36  H   UNL     1      -6.031   4.844  25.296  0.00  0.00    +0.210 HD
ENDBRANCH  16   3
BRANCH  15   2
ATOM      2  O   UNL     1       0.928   1.098  23.560  0.00  0.00    -0.446 OA
BRANCH   2  24
ATOM      6  O   UNL     1      -0.072  -0.100  21.876  0.00  0.00    -0.226 OA
ATOM      8  N   UNL     1       2.142  -0.452  22.474  0.00  0.00    -0.278 N 
ATOM     24  C   UNL     1       0.907   0.156  22.569  0.00  0.00    +0.401 C 
ATOM     39  H   UNL     1       2.246  -1.206  21.802  0.00  0.00    +0.152 HD
BRANCH   8  25
ATOM     25  C   UNL     1       3.265  -0.117  23.314  0.00  0.00    +0.076 C 
ATOM     27  C   UNL     1       4.090  -1.365  23.641  0.00  0.00    +0.022 C 
ATOM     28  C   UNL     1       4.128   0.962  22.654  0.00  0.00    +0.022 C 
ATOM     29  C   UNL     1       5.315  -1.025  24.486  0.00  0.00    +0.002 C 
ATOM     30  C   UNL     1       5.353   1.299  23.498  0.00  0.00    +0.002 C 
ATOM     31  C   UNL     1       6.171   0.052  23.826  0.00  0.00    +0.000 C 
ENDBRANCH   8  25
ENDBRANCH   2  24
ENDBRANCH  15   2
BRANCH  11  20
ATOM     20  C   UNL     1      -0.023   3.782  23.803  0.00  0.00    +0.166 C 
BRANCH  20   4
ATOM      4  O   UNL     1      -0.234   5.056  24.372  0.00  0.00    -0.394 OA
ATOM     37  H   UNL     1       0.510   5.621  24.101  0.00  0.00    +0.209 HD
ENDBRANCH  20   4
ENDBRANCH  11  20
BRANCH  12  22
ATOM     22  C   UNL     1      -5.652   2.002  24.714  0.00  0.00    +0.102 C 
BRANCH  22  23
ATOM      5  O   UNL     1      -6.659  -0.103  24.075  0.00  0.00    -0.276 OA
ATOM      7  N   UNL     1      -4.597  -0.096  25.148  0.00  0.00    -0.311 N 
ATOM     23  C   UNL     1      -5.722   0.497  24.594  0.00  0.00    +0.214 C 
ATOM     38  H   UNL     1      -3.880   0.482  25.575  0.00  0.00    +0.149 HD
BRANCH   7  26
ATOM     26  C   UNL     1      -4.393  -1.526  25.177  0.00  0.00    +0.146 C 
BRANCH  26  32
ATOM      1  S   UNL     1      -1.883  -1.147  26.298  0.00  0.00    -0.100 S 
ATOM     32  C   UNL     1      -2.926  -1.826  25.122  0.00  0.00    +0.007 A 
ATOM     33  C   UNL     1      -2.245  -2.609  24.216  0.00  0.00    +0.013 A 
ATOM     34  C   UNL     1      -0.848  -2.652  24.492  0.00  0.00    +0.008 A 
ATOM     35  C   UNL     1      -0.515  -1.901  25.597  0.00  0.00    +0.045 A 
ENDBRANCH  26  32
ENDBRANCH   7  26
ENDBRANCH  22  23
ENDBRANCH  12  22
TORSDOF 10
ENDMDL
