MODEL 1
REMARK VINA RESULT:      -2.9      0.000      0.000
REMARK  Name = 75536990
REMARK  5 active torsions:
REMARK  status: ('A' for Active; 'I' for Inactive)
REMARK    1  A    between atoms: O_4  and  C_17
REMARK    2  A    between atoms: O_4  and  C_23
REMARK    3  A    between atoms: N_6  and  C_14
REMARK    4  A    between atoms: C_14  and  C_16
REMARK    5  A    between atoms: C_15  and  C_17
REMARK                            x       y       z     vdW  Elec       q    Type
REMARK                         _______ _______ _______ _____ _____    ______ ____
ROOT
ATOM      2  O   UNL     1      -0.205  -2.212  24.206  0.00  0.00    -0.252 OA
ATOM      3  O   UNL     1      -5.576   1.704  26.273  0.00  0.00    -0.272 OA
ATOM      5  N   UNL     1      -1.585  -0.327  24.458  0.00  0.00    -0.278 N 
ATOM      6  N   UNL     1       0.045  -0.256  22.913  0.00  0.00    -0.279 N 
ATOM      7  N   UNL     1      -3.961   1.098  24.718  0.00  0.00    -0.295 N 
ATOM      8  C   UNL     1      -1.632   1.029  23.937  0.00  0.00    +0.112 C 
ATOM      9  C   UNL     1      -0.672   0.996  22.751  0.00  0.00    +0.133 C 
ATOM     10  C   UNL     1      -3.067   1.415  23.588  0.00  0.00    +0.132 C 
ATOM     11  C   UNL     1      -2.497  -0.725  25.514  0.00  0.00    +0.128 C 
ATOM     12  C   UNL     1      -3.920  -0.305  25.158  0.00  0.00    +0.127 C 
ATOM     13  C   UNL     1      -0.538  -1.074  23.900  0.00  0.00    +0.306 C 
ATOM     15  C   UNL     1      -4.819   2.000  25.344  0.00  0.00    +0.253 C 
ENDROOT
BRANCH   6  14
ATOM     14  C   UNL     1       1.138  -0.631  22.042  0.00  0.00    +0.144 C 
BRANCH  14  16
ATOM      1  F   UNL     1       6.151   0.491  24.348  0.00  0.00    -0.205 F 
ATOM     16  C   UNL     1       2.475  -0.331  22.657  0.00  0.00    -0.030 A 
ATOM     18  C   UNL     1       3.036   0.939  22.524  0.00  0.00    +0.008 A 
ATOM     19  C   UNL     1       3.156  -1.323  23.362  0.00  0.00    +0.008 A 
ATOM     20  C   UNL     1       4.277   1.217  23.095  0.00  0.00    +0.038 A 
ATOM     21  C   UNL     1       4.398  -1.047  23.933  0.00  0.00    +0.038 A 
ATOM     22  C   UNL     1       4.959   0.224  23.799  0.00  0.00    +0.123 A 
ENDBRANCH  14  16
ENDBRANCH   6  14
BRANCH  15  17
ATOM     17  C   UNL     1      -4.797   3.419  24.835  0.00  0.00    +0.324 C 
BRANCH  17   4
ATOM      4  O   UNL     1      -4.026   4.163  25.747  0.00  0.00    -0.483 OA
BRANCH   4  23
ATOM     23  C   UNL     1      -2.657   4.061  25.649  0.00  0.00    +0.121 A 
ATOM     24  C   UNL     1      -1.967   3.146  26.443  0.00  0.00    +0.045 A 
ATOM     25  C   UNL     1      -1.959   4.872  24.753  0.00  0.00    +0.045 A 
ATOM     26  C   UNL     1      -0.579   3.041  26.343  0.00  0.00    +0.004 A 
ATOM     27  C   UNL     1      -0.572   4.768  24.653  0.00  0.00    +0.004 A 
ATOM     28  C   UNL     1       0.118   3.852  25.448  0.00  0.00    +0.000 A 
ENDBRANCH   4  23
ENDBRANCH  17   4
ENDBRANCH  15  17
TORSDOF 5
ENDMDL
MODEL 2
REMARK VINA RESULT:      -0.8      1.583      3.538
REMARK  Name = 75536990
REMARK  5 active torsions:
REMARK  status: ('A' for Active; 'I' for Inactive)
REMARK    1  A    between atoms: O_4  and  C_17
REMARK    2  A    between atoms: O_4  and  C_23
REMARK    3  A    between atoms: N_6  and  C_14
REMARK    4  A    between atoms: C_14  and  C_16
REMARK    5  A    between atoms: C_15  and  C_17
REMARK                            x       y       z     vdW  Elec       q    Type
REMARK                         _______ _______ _______ _____ _____    ______ ____
ROOT
ATOM      2  O   UNL     1       2.276   1.968  23.641  0.00  0.00    -0.252 OA
ATOM      3  O   UNL     1      -3.918   3.935  26.134  0.00  0.00    -0.272 OA
ATOM      5  N   UNL     1      -0.053   2.025  23.954  0.00  0.00    -0.278 N 
ATOM      6  N   UNL     1       0.831   0.284  22.841  0.00  0.00    -0.279 N 
ATOM      7  N   UNL     1      -2.450   2.323  25.335  0.00  0.00    -0.295 N 
ATOM      8  C   UNL     1      -1.201   1.253  23.509  0.00  0.00    +0.112 C 
ATOM      9  C   UNL     1      -0.584  -0.025  22.948  0.00  0.00    +0.133 C 
ATOM     10  C   UNL     1      -2.176   1.038  24.665  0.00  0.00    +0.132 C 
ATOM     11  C   UNL     1      -0.255   3.257  24.693  0.00  0.00    +0.128 C 
ATOM     12  C   UNL     1      -1.254   3.028  25.824  0.00  0.00    +0.127 C 
ATOM     13  C   UNL     1       1.159   1.488  23.495  0.00  0.00    +0.306 C 
ATOM     15  C   UNL     1      -3.714   2.869  25.547  0.00  0.00    +0.253 C 
ENDROOT
BRANCH   6  14
ATOM     14  C   UNL     1       1.773  -0.638  22.246  0.00  0.00    +0.144 C 
BRANCH  14  16
ATOM      1  F   UNL     1       6.980   0.069  24.269  0.00  0.00    -0.205 F 
ATOM     16  C   UNL     1       3.162  -0.449  22.785  0.00  0.00    -0.030 A 
ATOM     18  C   UNL     1       3.920   0.653  22.391  0.00  0.00    +0.008 A 
ATOM     19  C   UNL     1       3.694  -1.376  23.682  0.00  0.00    +0.008 A 
ATOM     20  C   UNL     1       5.210   0.828  22.891  0.00  0.00    +0.038 A 
ATOM     21  C   UNL     1       4.983  -1.201  24.183  0.00  0.00    +0.038 A 
ATOM     22  C   UNL     1       5.742  -0.099  23.788  0.00  0.00    +0.123 A 
ENDBRANCH  14  16
ENDBRANCH   6  14
BRANCH  15  17
ATOM     17  C   UNL     1      -4.886   2.085  25.012  0.00  0.00    +0.324 C 
BRANCH  17   4
ATOM      4  O   UNL     1      -5.028   0.956  25.840  0.00  0.00    -0.483 OA
BRANCH   4  23
ATOM     23  C   UNL     1      -4.519  -0.236  25.376  0.00  0.00    +0.121 A 
ATOM     24  C   UNL     1      -3.769  -1.051  26.223  0.00  0.00    +0.045 A 
ATOM     25  C   UNL     1      -4.756  -0.631  24.059  0.00  0.00    +0.045 A 
ATOM     26  C   UNL     1      -3.254  -2.260  25.753  0.00  0.00    +0.004 A 
ATOM     27  C   UNL     1      -4.242  -1.839  23.589  0.00  0.00    +0.004 A 
ATOM     28  C   UNL     1      -3.491  -2.653  24.436  0.00  0.00    +0.000 A 
ENDBRANCH   4  23
ENDBRANCH  17   4
ENDBRANCH  15  17
TORSDOF 5
ENDMDL
