MODEL 1
REMARK VINA RESULT:      -4.1      0.000      0.000
REMARK  Name = 45784169
REMARK  12 active torsions:
REMARK  status: ('A' for Active; 'I' for Inactive)
REMARK    1  A    between atoms: O_4  and  C_23
REMARK    2  A    between atoms: O_4  and  C_27
REMARK    3  A    between atoms: N_5  and  C_15
REMARK    4  A    between atoms: C_8  and  C_12
REMARK    5  A    between atoms: C_9  and  C_15
REMARK    6  A    between atoms: C_11  and  C_16
REMARK    7  A    between atoms: C_12  and  C_17
REMARK    8  A    between atoms: C_12  and  C_18
REMARK    9  A    between atoms: C_13  and  C_19
REMARK   10  A    between atoms: C_16  and  C_20
REMARK   11  A    between atoms: C_21  and  C_23
REMARK   12  A    between atoms: C_22  and  C_24
REMARK                            x       y       z     vdW  Elec       q    Type
REMARK                         _______ _______ _______ _____ _____    ______ ____
ROOT
ATOM      8  C   UNL     1      -1.668   2.141  23.802  0.00  0.00    +0.000 C 
ATOM      9  C   UNL     1      -0.306   2.875  23.873  0.00  0.00    +0.032 C 
ATOM     10  C   UNL     1      -2.786   3.124  23.419  0.00  0.00    +0.012 C 
ATOM     11  C   UNL     1      -2.909   4.286  24.422  0.00  0.00    +0.024 C 
ATOM     13  C   UNL     1      -1.560   4.892  24.750  0.00  0.00    -0.073 C 
ATOM     14  C   UNL     1      -0.407   4.253  24.486  0.00  0.00    -0.022 C 
ATOM     19  C   UNL     1      -1.565   6.271  25.349  0.00  0.00    +0.039 C 
ENDROOT
BRANCH   8  12
ATOM     12  C   UNL     1      -1.636   0.978  22.805  0.00  0.00    -0.013 C 
ATOM     17  C   UNL     1      -1.442  -0.345  23.538  0.00  0.00    +0.007 C 
ATOM     18  C   UNL     1      -2.915   0.954  21.975  0.00  0.00    +0.007 C 
ENDBRANCH   8  12
BRANCH   9  15
ATOM     15  C   UNL     1       0.728   2.048  24.644  0.00  0.00    +0.112 C 
BRANCH  15   5
ATOM      3  O   UNL     1       1.423  -0.366  23.209  0.00  0.00    -0.273 OA
ATOM      5  N   UNL     1       1.894   1.822  23.848  0.00  0.00    -0.313 N 
ATOM     21  C   UNL     1       2.152   0.621  23.187  0.00  0.00    +0.239 C 
ATOM     31  H   UNL     1       2.540   2.594  23.714  0.00  0.00    +0.149 HD
BRANCH  21  23
ATOM     23  C   UNL     1       3.456   0.660  22.418  0.00  0.00    +0.255 C 
BRANCH  23   4
ATOM      4  O   UNL     1       4.525   1.018  23.268  0.00  0.00    -0.374 OA
ATOM     27  C   UNL     1       5.378  -0.089  23.544  0.00  0.00    +0.194 C 
ENDBRANCH  23   4
ENDBRANCH  21  23
ENDBRANCH  15   5
ENDBRANCH   9  15
BRANCH  11  16
ATOM     16  C   UNL     1      -3.635   3.841  25.696  0.00  0.00    +0.105 C 
BRANCH  16  20
ATOM      2  O   UNL     1      -3.714   1.435  25.290  0.00  0.00    -0.420 OA
ATOM      6  N   UNL     1      -5.724   2.411  25.409  0.00  0.00    -0.112 NA
ATOM      7  N   UNL     1      -5.917   1.061  25.178  0.00  0.00    -0.107 NA
ATOM     20  C   UNL     1      -4.424   2.584  25.467  0.00  0.00    +0.218 A 
ATOM     22  C   UNL     1      -4.717   0.533  25.116  0.00  0.00    +0.251 A 
BRANCH  22  24
ATOM      1  F   UNL     1      -3.166  -0.871  26.983  0.00  0.00    -0.205 F 
ATOM     24  C   UNL     1      -4.309  -0.824  24.897  0.00  0.00    +0.074 A 
ATOM     25  C   UNL     1      -3.536  -1.487  25.851  0.00  0.00    +0.136 A 
ATOM     26  C   UNL     1      -4.685  -1.482  23.726  0.00  0.00    +0.016 A 
ATOM     28  C   UNL     1      -3.141  -2.808  25.634  0.00  0.00    +0.039 A 
ATOM     29  C   UNL     1      -4.289  -2.802  23.508  0.00  0.00    +0.001 A 
ATOM     30  C   UNL     1      -3.518  -3.465  24.462  0.00  0.00    +0.003 A 
ENDBRANCH  22  24
ENDBRANCH  16  20
ENDBRANCH  11  16
TORSDOF 8
ENDMDL
MODEL 2
REMARK VINA RESULT:      -3.9      1.568      5.018
REMARK  Name = 45784169
REMARK  12 active torsions:
REMARK  status: ('A' for Active; 'I' for Inactive)
REMARK    1  A    between atoms: O_4  and  C_23
REMARK    2  A    between atoms: O_4  and  C_27
REMARK    3  A    between atoms: N_5  and  C_15
REMARK    4  A    between atoms: C_8  and  C_12
REMARK    5  A    between atoms: C_9  and  C_15
REMARK    6  A    between atoms: C_11  and  C_16
REMARK    7  A    between atoms: C_12  and  C_17
REMARK    8  A    between atoms: C_12  and  C_18
REMARK    9  A    between atoms: C_13  and  C_19
REMARK   10  A    between atoms: C_16  and  C_20
REMARK   11  A    between atoms: C_21  and  C_23
REMARK   12  A    between atoms: C_22  and  C_24
REMARK                            x       y       z     vdW  Elec       q    Type
REMARK                         _______ _______ _______ _____ _____    ______ ____
ROOT
ATOM      8  C   UNL     1      -1.221   0.265  24.770  0.00  0.00    +0.000 C 
ATOM      9  C   UNL     1      -0.420  -1.007  24.399  0.00  0.00    +0.032 C 
ATOM     10  C   UNL     1      -2.283  -0.061  25.833  0.00  0.00    +0.012 C 
ATOM     11  C   UNL     1      -3.273  -1.140  25.354  0.00  0.00    +0.024 C 
ATOM     13  C   UNL     1      -2.559  -2.320  24.726  0.00  0.00    -0.073 C 
ATOM     14  C   UNL     1      -1.280  -2.246  24.317  0.00  0.00    -0.022 C 
ATOM     19  C   UNL     1      -3.336  -3.602  24.619  0.00  0.00    +0.039 C 
ENDROOT
BRANCH   8  12
ATOM     12  C   UNL     1      -0.308   1.386  25.278  0.00  0.00    -0.013 C 
ATOM     17  C   UNL     1      -0.367   2.587  24.339  0.00  0.00    +0.007 C 
ATOM     18  C   UNL     1      -0.698   1.788  26.696  0.00  0.00    +0.007 C 
ENDBRANCH   8  12
BRANCH   9  15
ATOM     15  C   UNL     1       0.334  -0.819  23.078  0.00  0.00    +0.112 C 
BRANCH  15   5
ATOM      3  O   UNL     1       2.357  -0.206  21.104  0.00  0.00    -0.273 OA
ATOM      5  N   UNL     1       1.551  -0.100  23.285  0.00  0.00    -0.313 N 
ATOM     21  C   UNL     1       2.476   0.152  22.272  0.00  0.00    +0.239 C 
ATOM     31  H   UNL     1       1.726   0.293  24.205  0.00  0.00    +0.149 HD
BRANCH  21  23
ATOM     23  C   UNL     1       3.673   0.934  22.772  0.00  0.00    +0.255 C 
BRANCH  23   4
ATOM      4  O   UNL     1       4.853   0.167  22.656  0.00  0.00    -0.374 OA
ATOM     27  C   UNL     1       5.393  -0.174  23.930  0.00  0.00    +0.194 C 
ENDBRANCH  23   4
ENDBRANCH  21  23
ENDBRANCH  15   5
ENDBRANCH   9  15
BRANCH  11  16
ATOM     16  C   UNL     1      -4.310  -0.551  24.393  0.00  0.00    +0.105 C 
BRANCH  16  20
ATOM      2  O   UNL     1      -3.718   1.817  24.431  0.00  0.00    -0.420 OA
ATOM      6  N   UNL     1      -5.713   1.356  25.333  0.00  0.00    -0.112 NA
ATOM      7  N   UNL     1      -5.510   2.721  25.421  0.00  0.00    -0.107 NA
ATOM     20  C   UNL     1      -4.643   0.870  24.749  0.00  0.00    +0.218 A 
ATOM     22  C   UNL     1      -4.333   2.944  24.884  0.00  0.00    +0.251 A 
BRANCH  22  24
ATOM      1  F   UNL     1      -2.386   3.805  26.708  0.00  0.00    -0.205 F 
ATOM     24  C   UNL     1      -3.609   4.169  24.702  0.00  0.00    +0.074 A 
ATOM     25  C   UNL     1      -2.649   4.562  25.634  0.00  0.00    +0.136 A 
ATOM     26  C   UNL     1      -3.870   4.969  23.589  0.00  0.00    +0.016 A 
ATOM     28  C   UNL     1      -1.948   5.755  25.453  0.00  0.00    +0.039 A 
ATOM     29  C   UNL     1      -3.170   6.162  23.408  0.00  0.00    +0.001 A 
ATOM     30  C   UNL     1      -2.209   6.555  24.339  0.00  0.00    +0.003 A 
ENDBRANCH  22  24
ENDBRANCH  16  20
ENDBRANCH  11  16
TORSDOF 8
ENDMDL
MODEL 3
REMARK VINA RESULT:      -2.8      1.514      1.973
REMARK  Name = 45784169
REMARK  12 active torsions:
REMARK  status: ('A' for Active; 'I' for Inactive)
REMARK    1  A    between atoms: O_4  and  C_23
REMARK    2  A    between atoms: O_4  and  C_27
REMARK    3  A    between atoms: N_5  and  C_15
REMARK    4  A    between atoms: C_8  and  C_12
REMARK    5  A    between atoms: C_9  and  C_15
REMARK    6  A    between atoms: C_11  and  C_16
REMARK    7  A    between atoms: C_12  and  C_17
REMARK    8  A    between atoms: C_12  and  C_18
REMARK    9  A    between atoms: C_13  and  C_19
REMARK   10  A    between atoms: C_16  and  C_20
REMARK   11  A    between atoms: C_21  and  C_23
REMARK   12  A    between atoms: C_22  and  C_24
REMARK                            x       y       z     vdW  Elec       q    Type
REMARK                         _______ _______ _______ _____ _____    ______ ____
ROOT
ATOM      8  C   UNL     1      -2.791   2.605  23.844  0.00  0.00    +0.000 C 
ATOM      9  C   UNL     1      -1.491   2.954  24.610  0.00  0.00    +0.032 C 
ATOM     10  C   UNL     1      -3.798   3.762  23.943  0.00  0.00    +0.012 C 
ATOM     11  C   UNL     1      -4.164   4.091  25.403  0.00  0.00    +0.024 C 
ATOM     13  C   UNL     1      -2.936   4.186  26.284  0.00  0.00    -0.073 C 
ATOM     14  C   UNL     1      -1.747   3.684  25.908  0.00  0.00    -0.022 C 
ATOM     19  C   UNL     1      -3.095   4.912  27.591  0.00  0.00    +0.039 C 
ENDROOT
BRANCH   8  12
ATOM     12  C   UNL     1      -2.516   2.284  22.371  0.00  0.00    -0.013 C 
ATOM     17  C   UNL     1      -2.518   0.775  22.146  0.00  0.00    +0.007 C 
ATOM     18  C   UNL     1      -3.545   2.966  21.476  0.00  0.00    +0.007 C 
ENDBRANCH   8  12
BRANCH   9  15
ATOM     15  C   UNL     1      -0.659   1.696  24.886  0.00  0.00    +0.112 C 
BRANCH  15   5
ATOM      3  O   UNL     1       0.679  -0.169  23.126  0.00  0.00    -0.273 OA
ATOM      5  N   UNL     1       0.652   1.823  24.329  0.00  0.00    -0.313 N 
ATOM     21  C   UNL     1       1.223   0.871  23.485  0.00  0.00    +0.239 C 
ATOM     31  H   UNL     1       1.172   2.675  24.516  0.00  0.00    +0.149 HD
BRANCH  21  23
ATOM     23  C   UNL     1       2.618   1.261  23.044  0.00  0.00    +0.255 C 
BRANCH  23   4
ATOM      4  O   UNL     1       3.419   0.114  22.855  0.00  0.00    -0.374 OA
ATOM     27  C   UNL     1       4.796   0.378  23.114  0.00  0.00    +0.194 C 
ENDBRANCH  23   4
ENDBRANCH  21  23
ENDBRANCH  15   5
ENDBRANCH   9  15
BRANCH  11  16
ATOM     16  C   UNL     1      -5.165   3.075  25.963  0.00  0.00    +0.105 C 
BRANCH  16  20
ATOM      2  O   UNL     1      -3.897   1.026  25.572  0.00  0.00    -0.420 OA
ATOM      6  N   UNL     1      -5.835   1.132  24.458  0.00  0.00    -0.112 NA
ATOM      7  N   UNL     1      -5.228  -0.071  24.146  0.00  0.00    -0.107 NA
ATOM     20  C   UNL     1      -5.024   1.738  25.293  0.00  0.00    +0.218 A 
ATOM     22  C   UNL     1      -4.100  -0.088  24.818  0.00  0.00    +0.251 A 
BRANCH  22  24
ATOM      1  F   UNL     1      -4.400  -2.613  23.637  0.00  0.00    -0.205 F 
ATOM     24  C   UNL     1      -3.069  -1.083  24.880  0.00  0.00    +0.074 A 
ATOM     25  C   UNL     1      -3.258  -2.329  24.279  0.00  0.00    +0.136 A 
ATOM     26  C   UNL     1      -1.874  -0.804  25.544  0.00  0.00    +0.016 A 
ATOM     28  C   UNL     1      -2.252  -3.293  24.342  0.00  0.00    +0.039 A 
ATOM     29  C   UNL     1      -0.869  -1.768  25.607  0.00  0.00    +0.001 A 
ATOM     30  C   UNL     1      -1.057  -3.013  25.007  0.00  0.00    +0.003 A 
ENDBRANCH  22  24
ENDBRANCH  16  20
ENDBRANCH  11  16
TORSDOF 8
ENDMDL
MODEL 4
REMARK VINA RESULT:      -2.0      2.303      2.921
REMARK  Name = 45784169
REMARK  12 active torsions:
REMARK  status: ('A' for Active; 'I' for Inactive)
REMARK    1  A    between atoms: O_4  and  C_23
REMARK    2  A    between atoms: O_4  and  C_27
REMARK    3  A    between atoms: N_5  and  C_15
REMARK    4  A    between atoms: C_8  and  C_12
REMARK    5  A    between atoms: C_9  and  C_15
REMARK    6  A    between atoms: C_11  and  C_16
REMARK    7  A    between atoms: C_12  and  C_17
REMARK    8  A    between atoms: C_12  and  C_18
REMARK    9  A    between atoms: C_13  and  C_19
REMARK   10  A    between atoms: C_16  and  C_20
REMARK   11  A    between atoms: C_21  and  C_23
REMARK   12  A    between atoms: C_22  and  C_24
REMARK                            x       y       z     vdW  Elec       q    Type
REMARK                         _______ _______ _______ _____ _____    ______ ____
ROOT
ATOM      8  C   UNL     1      -1.383   2.204  24.263  0.00  0.00    +0.000 C 
ATOM      9  C   UNL     1      -0.130   3.090  24.468  0.00  0.00    +0.032 C 
ATOM     10  C   UNL     1      -2.522   3.023  23.635  0.00  0.00    +0.012 C 
ATOM     11  C   UNL     1      -2.915   4.233  24.503  0.00  0.00    +0.024 C 
ATOM     13  C   UNL     1      -1.701   5.010  24.970  0.00  0.00    -0.073 C 
ATOM     14  C   UNL     1      -0.463   4.488  24.935  0.00  0.00    -0.022 C 
ATOM     19  C   UNL     1      -1.938   6.419  25.437  0.00  0.00    +0.039 C 
ENDROOT
BRANCH   8  12
ATOM     12  C   UNL     1      -1.081   0.982  23.389  0.00  0.00    -0.013 C 
ATOM     17  C   UNL     1      -0.894  -0.259  24.255  0.00  0.00    +0.007 C 
ATOM     18  C   UNL     1      -2.195   0.768  22.370  0.00  0.00    +0.007 C 
ENDBRANCH   8  12
BRANCH   9  15
ATOM     15  C   UNL     1       0.850   2.442  25.452  0.00  0.00    +0.112 C 
BRANCH  15   5
ATOM      3  O   UNL     1       2.275   3.047  27.896  0.00  0.00    -0.273 OA
ATOM      5  N   UNL     1       0.320   2.457  26.780  0.00  0.00    -0.313 N 
ATOM     21  C   UNL     1       1.081   2.761  27.908  0.00  0.00    +0.239 C 
ATOM     31  H   UNL     1      -0.675   2.290  26.901  0.00  0.00    +0.149 HD
BRANCH  21  23
ATOM     23  C   UNL     1       0.265   2.702  29.182  0.00  0.00    +0.255 C 
BRANCH  23   4
ATOM      4  O   UNL     1       1.102   2.492  30.300  0.00  0.00    -0.374 OA
ATOM     27  C   UNL     1       2.295   1.797  29.948  0.00  0.00    +0.194 C 
ENDBRANCH  23   4
ENDBRANCH  21  23
ENDBRANCH  15   5
ENDBRANCH   9  15
BRANCH  11  16
ATOM     16  C   UNL     1      -3.782   3.803  25.691  0.00  0.00    +0.105 C 
BRANCH  16  20
ATOM      2  O   UNL     1      -3.779   1.399  25.265  0.00  0.00    -0.420 OA
ATOM      6  N   UNL     1      -5.813   2.332  25.240  0.00  0.00    -0.112 NA
ATOM      7  N   UNL     1      -5.960   0.981  24.987  0.00  0.00    -0.107 NA
ATOM     20  C   UNL     1      -4.525   2.531  25.396  0.00  0.00    +0.218 A 
ATOM     22  C   UNL     1      -4.747   0.478  25.010  0.00  0.00    +0.251 A 
BRANCH  22  24
ATOM      1  F   UNL     1      -3.330  -0.917  26.987  0.00  0.00    -0.205 F 
ATOM     24  C   UNL     1      -4.295  -0.869  24.814  0.00  0.00    +0.074 A 
ATOM     25  C   UNL     1      -3.591  -1.528  25.823  0.00  0.00    +0.136 A 
ATOM     26  C   UNL     1      -4.559  -1.520  23.609  0.00  0.00    +0.016 A 
ATOM     28  C   UNL     1      -3.153  -2.838  25.627  0.00  0.00    +0.039 A 
ATOM     29  C   UNL     1      -4.120  -2.830  23.412  0.00  0.00    +0.001 A 
ATOM     30  C   UNL     1      -3.418  -3.489  24.421  0.00  0.00    +0.003 A 
ENDBRANCH  22  24
ENDBRANCH  16  20
ENDBRANCH  11  16
TORSDOF 8
ENDMDL
MODEL 5
REMARK VINA RESULT:      -1.2      2.309      7.100
REMARK  Name = 45784169
REMARK  12 active torsions:
REMARK  status: ('A' for Active; 'I' for Inactive)
REMARK    1  A    between atoms: O_4  and  C_23
REMARK    2  A    between atoms: O_4  and  C_27
REMARK    3  A    between atoms: N_5  and  C_15
REMARK    4  A    between atoms: C_8  and  C_12
REMARK    5  A    between atoms: C_9  and  C_15
REMARK    6  A    between atoms: C_11  and  C_16
REMARK    7  A    between atoms: C_12  and  C_17
REMARK    8  A    between atoms: C_12  and  C_18
REMARK    9  A    between atoms: C_13  and  C_19
REMARK   10  A    between atoms: C_16  and  C_20
REMARK   11  A    between atoms: C_21  and  C_23
REMARK   12  A    between atoms: C_22  and  C_24
REMARK                            x       y       z     vdW  Elec       q    Type
REMARK                         _______ _______ _______ _____ _____    ______ ____
ROOT
ATOM      8  C   UNL     1      -3.486   1.301  23.531  0.00  0.00    +0.000 C 
ATOM      9  C   UNL     1      -4.753   0.813  24.277  0.00  0.00    +0.032 C 
ATOM     10  C   UNL     1      -2.804   0.129  22.809  0.00  0.00    +0.012 C 
ATOM     11  C   UNL     1      -2.397  -0.996  23.779  0.00  0.00    +0.024 C 
ATOM     13  C   UNL     1      -3.519  -1.350  24.734  0.00  0.00    -0.073 C 
ATOM     14  C   UNL     1      -4.570  -0.536  24.934  0.00  0.00    -0.022 C 
ATOM     19  C   UNL     1      -3.427  -2.684  25.421  0.00  0.00    +0.039 C 
ENDROOT
BRANCH   8  12
ATOM     12  C   UNL     1      -3.809   2.411  22.526  0.00  0.00    -0.013 C 
ATOM     17  C   UNL     1      -3.747   3.777  23.203  0.00  0.00    +0.007 C 
ATOM     18  C   UNL     1      -2.853   2.351  21.340  0.00  0.00    +0.007 C 
ENDBRANCH   8  12
BRANCH   9  15
ATOM     15  C   UNL     1      -5.205   1.835  25.326  0.00  0.00    +0.112 C 
BRANCH  15   5
ATOM      3  O   UNL     1      -5.167   4.630  26.070  0.00  0.00    -0.273 OA
ATOM      5  N   UNL     1      -4.091   2.581  25.820  0.00  0.00    -0.313 N 
ATOM     21  C   UNL     1      -4.160   3.933  26.157  0.00  0.00    +0.239 C 
ATOM     31  H   UNL     1      -3.218   2.088  25.985  0.00  0.00    +0.149 HD
BRANCH  21  23
ATOM     23  C   UNL     1      -2.833   4.468  26.654  0.00  0.00    +0.255 C 
BRANCH  23   4
ATOM      4  O   UNL     1      -1.763   3.714  26.125  0.00  0.00    -0.374 OA
ATOM     27  C   UNL     1      -1.021   4.449  25.156  0.00  0.00    +0.194 C 
ENDBRANCH  23   4
ENDBRANCH  21  23
ENDBRANCH  15   5
ENDBRANCH   9  15
BRANCH  11  16
ATOM     16  C   UNL     1      -1.120  -0.629  24.544  0.00  0.00    +0.105 C 
BRANCH  16  20
ATOM      2  O   UNL     1       1.292  -0.525  24.186  0.00  0.00    -0.420 OA
ATOM      6  N   UNL     1       0.079  -0.347  22.315  0.00  0.00    -0.112 NA
ATOM      7  N   UNL     1       1.415  -0.273  21.966  0.00  0.00    -0.107 NA
ATOM     20  C   UNL     1       0.054  -0.494  23.619  0.00  0.00    +0.218 A 
ATOM     22  C   UNL     1       2.085  -0.380  23.090  0.00  0.00    +0.251 A 
BRANCH  22  24
ATOM      1  F   UNL     1       3.654   1.901  22.646  0.00  0.00    -0.205 F 
ATOM     24  C   UNL     1       3.498  -0.370  23.335  0.00  0.00    +0.074 A 
ATOM     25  C   UNL     1       4.243   0.786  23.101  0.00  0.00    +0.136 A 
ATOM     26  C   UNL     1       4.128  -1.521  23.809  0.00  0.00    +0.016 A 
ATOM     28  C   UNL     1       5.618   0.791  23.341  0.00  0.00    +0.039 A 
ATOM     29  C   UNL     1       5.502  -1.517  24.048  0.00  0.00    +0.001 A 
ATOM     30  C   UNL     1       6.247  -0.361  23.815  0.00  0.00    +0.003 A 
ENDBRANCH  22  24
ENDBRANCH  16  20
ENDBRANCH  11  16
TORSDOF 8
ENDMDL
MODEL 6
REMARK VINA RESULT:      -1.0      1.818      2.996
REMARK  Name = 45784169
REMARK  12 active torsions:
REMARK  status: ('A' for Active; 'I' for Inactive)
REMARK    1  A    between atoms: O_4  and  C_23
REMARK    2  A    between atoms: O_4  and  C_27
REMARK    3  A    between atoms: N_5  and  C_15
REMARK    4  A    between atoms: C_8  and  C_12
REMARK    5  A    between atoms: C_9  and  C_15
REMARK    6  A    between atoms: C_11  and  C_16
REMARK    7  A    between atoms: C_12  and  C_17
REMARK    8  A    between atoms: C_12  and  C_18
REMARK    9  A    between atoms: C_13  and  C_19
REMARK   10  A    between atoms: C_16  and  C_20
REMARK   11  A    between atoms: C_21  and  C_23
REMARK   12  A    between atoms: C_22  and  C_24
REMARK                            x       y       z     vdW  Elec       q    Type
REMARK                         _______ _______ _______ _____ _____    ______ ____
ROOT
ATOM      8  C   UNL     1      -1.715   4.157  24.755  0.00  0.00    +0.000 C 
ATOM      9  C   UNL     1      -1.820   3.412  26.109  0.00  0.00    +0.032 C 
ATOM     10  C   UNL     1      -2.900   5.120  24.580  0.00  0.00    +0.012 C 
ATOM     11  C   UNL     1      -4.256   4.391  24.634  0.00  0.00    +0.024 C 
ATOM     13  C   UNL     1      -4.333   3.429  25.801  0.00  0.00    -0.073 C 
ATOM     14  C   UNL     1      -3.235   3.013  26.457  0.00  0.00    -0.022 C 
ATOM     19  C   UNL     1      -5.706   2.990  26.228  0.00  0.00    +0.039 C 
ENDROOT
BRANCH   8  12
ATOM     12  C   UNL     1      -0.398   4.929  24.630  0.00  0.00    -0.013 C 
ATOM     17  C   UNL     1       0.182   4.768  23.228  0.00  0.00    +0.007 C 
ATOM     18  C   UNL     1      -0.610   6.402  24.962  0.00  0.00    +0.007 C 
ENDBRANCH   8  12
BRANCH   9  15
ATOM     15  C   UNL     1      -0.919   2.172  26.128  0.00  0.00    +0.112 C 
BRANCH  15   5
ATOM      3  O   UNL     1       0.059  -0.196  24.784  0.00  0.00    -0.273 OA
ATOM      5  N   UNL     1      -0.102   2.120  24.956  0.00  0.00    -0.313 N 
ATOM     21  C   UNL     1       0.327   0.929  24.371  0.00  0.00    +0.239 C 
ATOM     31  H   UNL     1       0.133   2.994  24.496  0.00  0.00    +0.149 HD
BRANCH  21  23
ATOM     23  C   UNL     1       1.178   1.169  23.142  0.00  0.00    +0.255 C 
BRANCH  23   4
ATOM      4  O   UNL     1       1.749  -0.040  22.687  0.00  0.00    -0.374 OA
ATOM     27  C   UNL     1       3.143   0.095  22.426  0.00  0.00    +0.194 C 
ENDBRANCH  23   4
ENDBRANCH  21  23
ENDBRANCH  15   5
ENDBRANCH   9  15
BRANCH  11  16
ATOM     16  C   UNL     1      -4.549   3.674  23.311  0.00  0.00    +0.105 C 
BRANCH  16  20
ATOM      2  O   UNL     1      -4.174   1.324  23.857  0.00  0.00    -0.420 OA
ATOM      6  N   UNL     1      -2.640   2.203  22.486  0.00  0.00    -0.112 NA
ATOM      7  N   UNL     1      -2.307   0.879  22.707  0.00  0.00    -0.107 NA
ATOM     20  C   UNL     1      -3.736   2.419  23.175  0.00  0.00    +0.218 A 
ATOM     22  C   UNL     1      -3.229   0.408  23.514  0.00  0.00    +0.251 A 
BRANCH  22  24
ATOM      1  F   UNL     1      -2.455  -0.185  26.143  0.00  0.00    -0.205 F 
ATOM     24  C   UNL     1      -3.391  -0.901  24.077  0.00  0.00    +0.074 A 
ATOM     25  C   UNL     1      -2.992  -1.156  25.390  0.00  0.00    +0.136 A 
ATOM     26  C   UNL     1      -3.949  -1.923  23.308  0.00  0.00    +0.016 A 
ATOM     28  C   UNL     1      -3.152  -2.431  25.933  0.00  0.00    +0.039 A 
ATOM     29  C   UNL     1      -4.108  -3.198  23.851  0.00  0.00    +0.001 A 
ATOM     30  C   UNL     1      -3.710  -3.452  25.163  0.00  0.00    +0.003 A 
ENDBRANCH  22  24
ENDBRANCH  16  20
ENDBRANCH  11  16
TORSDOF 8
ENDMDL
MODEL 7
REMARK VINA RESULT:      -0.9      2.563      5.005
REMARK  Name = 45784169
REMARK  12 active torsions:
REMARK  status: ('A' for Active; 'I' for Inactive)
REMARK    1  A    between atoms: O_4  and  C_23
REMARK    2  A    between atoms: O_4  and  C_27
REMARK    3  A    between atoms: N_5  and  C_15
REMARK    4  A    between atoms: C_8  and  C_12
REMARK    5  A    between atoms: C_9  and  C_15
REMARK    6  A    between atoms: C_11  and  C_16
REMARK    7  A    between atoms: C_12  and  C_17
REMARK    8  A    between atoms: C_12  and  C_18
REMARK    9  A    between atoms: C_13  and  C_19
REMARK   10  A    between atoms: C_16  and  C_20
REMARK   11  A    between atoms: C_21  and  C_23
REMARK   12  A    between atoms: C_22  and  C_24
REMARK                            x       y       z     vdW  Elec       q    Type
REMARK                         _______ _______ _______ _____ _____    ______ ____
ROOT
ATOM      8  C   UNL     1      -3.488   2.226  24.126  0.00  0.00    +0.000 C 
ATOM      9  C   UNL     1      -4.297   3.386  24.757  0.00  0.00    +0.032 C 
ATOM     10  C   UNL     1      -4.396   1.011  23.878  0.00  0.00    +0.012 C 
ATOM     11  C   UNL     1      -5.051   0.501  25.176  0.00  0.00    +0.024 C 
ATOM     13  C   UNL     1      -5.642   1.632  25.992  0.00  0.00    -0.073 C 
ATOM     14  C   UNL     1      -5.303   2.916  25.782  0.00  0.00    -0.022 C 
ATOM     19  C   UNL     1      -6.666   1.258  27.027  0.00  0.00    +0.039 C 
ENDROOT
BRANCH   8  12
ATOM     12  C   UNL     1      -2.818   2.647  22.813  0.00  0.00    -0.013 C 
ATOM     17  C   UNL     1      -2.410   1.419  22.006  0.00  0.00    +0.007 C 
ATOM     18  C   UNL     1      -3.750   3.542  22.003  0.00  0.00    +0.007 C 
ENDBRANCH   8  12
BRANCH   9  15
ATOM     15  C   UNL     1      -3.367   4.426  25.393  0.00  0.00    +0.112 C 
BRANCH  15   5
ATOM      3  O   UNL     1      -0.699   5.228  24.615  0.00  0.00    -0.273 OA
ATOM      5  N   UNL     1      -2.134   3.826  25.794  0.00  0.00    -0.313 N 
ATOM     21  C   UNL     1      -0.885   4.278  25.369  0.00  0.00    +0.239 C 
ATOM     31  H   UNL     1      -2.167   3.064  26.466  0.00  0.00    +0.149 HD
BRANCH  21  23
ATOM     23  C   UNL     1       0.249   3.459  25.950  0.00  0.00    +0.255 C 
BRANCH  23   4
ATOM      4  O   UNL     1      -0.201   2.692  27.047  0.00  0.00    -0.374 OA
ATOM     27  C   UNL     1       0.818   2.518  28.027  0.00  0.00    +0.194 C 
ENDBRANCH  23   4
ENDBRANCH  21  23
ENDBRANCH  15   5
ENDBRANCH   9  15
BRANCH  11  16
ATOM     16  C   UNL     1      -4.059  -0.318  26.009  0.00  0.00    +0.105 C 
BRANCH  16  20
ATOM      2  O   UNL     1      -1.956  -0.176  24.779  0.00  0.00    -0.420 OA
ATOM      6  N   UNL     1      -2.948  -2.179  24.671  0.00  0.00    -0.112 NA
ATOM      7  N   UNL     1      -1.778  -2.241  23.937  0.00  0.00    -0.107 NA
ATOM     20  C   UNL     1      -3.011  -0.956  25.144  0.00  0.00    +0.218 A 
ATOM     22  C   UNL     1      -1.233  -1.050  24.027  0.00  0.00    +0.251 A 
BRANCH  22  24
ATOM      1  F   UNL     1       0.206   1.023  25.248  0.00  0.00    -0.205 F 
ATOM     24  C   UNL     1      -0.016  -0.539  23.468  0.00  0.00    +0.074 A 
ATOM     25  C   UNL     1       0.670   0.495  24.106  0.00  0.00    +0.136 A 
ATOM     26  C   UNL     1       0.481  -1.077  22.281  0.00  0.00    +0.016 A 
ATOM     28  C   UNL     1       1.854   0.990  23.558  0.00  0.00    +0.039 A 
ATOM     29  C   UNL     1       1.664  -0.582  21.732  0.00  0.00    +0.001 A 
ATOM     30  C   UNL     1       2.351   0.451  22.370  0.00  0.00    +0.003 A 
ENDBRANCH  22  24
ENDBRANCH  16  20
ENDBRANCH  11  16
TORSDOF 8
ENDMDL
