MODEL 1
REMARK VINA RESULT:      17.4      0.000      0.000
REMARK  Name = 25388691
REMARK  4 active torsions:
REMARK  status: ('A' for Active; 'I' for Inactive)
REMARK    1  A    between atoms: N_6  and  C_14
REMARK    2  A    between atoms: C_23  and  C_26
REMARK    3  A    between atoms: C_25  and  C_27
REMARK    4  A    between atoms: C_30  and  C_33
REMARK                            x       y       z     vdW  Elec       q    Type
REMARK                         _______ _______ _______ _____ _____    ______ ____
ROOT
ATOM      4  O   UNL     1      -0.344  -0.560  21.711  0.00  0.00    -0.267 OA
ATOM      6  N   UNL     1      -3.832  -0.095  25.284  0.00  0.00    -0.298 NA
ATOM      7  N   UNL     1      -1.505  -1.412  23.545  0.00  0.00    -0.311 N 
ATOM      9  C   UNL     1      -4.031  -1.848  23.503  0.00  0.00    +0.024 C 
ATOM     10  C   UNL     1      -2.747  -2.333  25.531  0.00  0.00    +0.050 C 
ATOM     11  C   UNL     1      -3.709  -2.940  24.514  0.00  0.00    +0.017 C 
ATOM     12  C   UNL     1      -4.677  -0.641  24.216  0.00  0.00    +0.090 C 
ATOM     13  C   UNL     1      -3.430  -1.140  26.239  0.00  0.00    +0.094 C 
ATOM     15  C   UNL     1      -2.744  -1.472  22.755  0.00  0.00    +0.130 C 
ATOM     16  C   UNL     1      -1.463  -1.886  24.858  0.00  0.00    +0.026 A 
ATOM     21  C   UNL     1      -0.298  -1.926  25.523  0.00  0.00    +0.022 A 
ATOM     22  C   UNL     1      -0.351  -0.954  22.879  0.00  0.00    +0.259 A 
ATOM     23  C   UNL     1       0.934  -0.979  23.661  0.00  0.00    +0.047 A 
ATOM     24  C   UNL     1       0.915  -1.459  24.913  0.00  0.00    +0.015 A 
ENDROOT
BRANCH   6  14
ATOM      5  O   UNL     1      -7.035   5.136  24.868  0.00  0.00    -0.276 OA
ATOM      8  N   UNL     1      -5.564   3.702  25.951  0.00  0.00    -0.302 N 
ATOM     14  C   UNL     1      -4.499   1.010  25.968  0.00  0.00    +0.060 C 
ATOM     17  C   UNL     1      -5.816   1.349  25.259  0.00  0.00    +0.038 C 
ATOM     18  C   UNL     1      -3.580   2.237  26.008  0.00  0.00    +0.038 C 
ATOM     19  C   UNL     1      -6.484   2.564  25.901  0.00  0.00    +0.109 C 
ATOM     20  C   UNL     1      -4.292   3.436  26.635  0.00  0.00    +0.109 C 
ATOM     25  C   UNL     1      -5.945   4.927  25.406  0.00  0.00    +0.212 C 
ATOM     27  C   UNL     1      -4.941   6.049  25.494  0.00  0.00    +0.109 C 
ENDBRANCH   6  14
BRANCH  23  26
ATOM     26  C   UNL     1       2.193  -0.481  23.079  0.00  0.00    -0.012 A 
ATOM     28  C   UNL     1       3.362  -0.480  23.839  0.00  0.00    +0.021 A 
ATOM     29  C   UNL     1       2.214  -0.007  21.767  0.00  0.00    +0.009 A 
ATOM     30  C   UNL     1       4.553  -0.007  23.288  0.00  0.00    +0.055 A 
ATOM     31  C   UNL     1       3.404   0.466  21.216  0.00  0.00    +0.001 A 
ATOM     32  C   UNL     1       4.574   0.466  21.975  0.00  0.00    +0.012 A 
BRANCH  30  33
ATOM      1  F   UNL     1       6.006   1.178  24.749  0.00  0.00    -0.166 F 
ATOM      2  F   UNL     1       5.821  -0.964  25.077  0.00  0.00    -0.166 F 
ATOM      3  F   UNL     1       6.934  -0.223  23.369  0.00  0.00    -0.166 F 
ATOM     33  C   UNL     1       5.802  -0.007  24.102  0.00  0.00    +0.417 C 
ENDBRANCH  30  33
ENDBRANCH  23  26
TORSDOF 3
ENDMDL
