MODEL 1
REMARK VINA RESULT:      -5.9      0.000      0.000
REMARK  Name = 56775464
REMARK  9 active torsions:
REMARK  status: ('A' for Active; 'I' for Inactive)
REMARK    1  A    between atoms: N_4  and  C_6
REMARK    2  A    between atoms: N_4  and  C_11
REMARK    3  A    between atoms: C_6  and  C_9
REMARK    4  A    between atoms: C_9  and  C_10
REMARK    5  A    between atoms: C_11  and  C_15
REMARK    6  A    between atoms: C_12  and  C_14
REMARK    7  A    between atoms: C_12  and  C_16
REMARK    8  A    between atoms: C_12  and  C_17
REMARK    9  A    between atoms: C_12  and  C_18
REMARK                            x       y       z     vdW  Elec       q    Type
REMARK                         _______ _______ _______ _____ _____    ______ ____
ROOT
ATOM      2  O   UNL     1      -4.106  -3.747  24.280  0.00  0.00    -0.376 OA
ATOM      6  C   UNL     1      -2.869  -2.054  24.687  0.00  0.00    +0.072 C 
ATOM      7  C   UNL     1      -3.755  -2.549  23.549  0.00  0.00    +0.184 C 
ATOM      8  C   UNL     1      -3.360  -3.290  25.432  0.00  0.00    +0.184 C 
ENDROOT
BRANCH   6   4
ATOM      4  N   UNL     1      -3.483  -0.874  25.280  0.00  0.00    -0.302 NA
ATOM     24  H   UNL     1      -3.949  -1.032  26.172  0.00  0.00    +0.123 HD
BRANCH   4  11
ATOM     11  C   UNL     1      -4.418  -0.274  24.331  0.00  0.00    +0.120 C 
BRANCH  11  15
ATOM      1  F   UNL     1      -3.021   1.632  22.770  0.00  0.00    -0.205 F 
ATOM     15  C   UNL     1      -4.549   1.212  24.537  0.00  0.00    +0.002 A 
ATOM     19  C   UNL     1      -3.831   2.096  23.732  0.00  0.00    +0.128 A 
ATOM     20  C   UNL     1      -5.391   1.703  25.535  0.00  0.00    +0.008 A 
ATOM     21  C   UNL     1      -3.954   3.472  23.926  0.00  0.00    +0.038 A 
ATOM     22  C   UNL     1      -5.514   3.080  25.728  0.00  0.00    +0.000 A 
ATOM     23  C   UNL     1      -4.795   3.964  24.924  0.00  0.00    +0.003 A 
ENDBRANCH  11  15
ENDBRANCH   4  11
ENDBRANCH   6   4
BRANCH   6   9
ATOM      9  C   UNL     1      -1.365  -1.884  24.439  0.00  0.00    +0.085 C 
BRANCH   9  10
ATOM      3  O   UNL     1      -0.080   1.413  23.954  0.00  0.00    -0.359 OA
ATOM      5  N   UNL     1      -0.289   0.103  23.540  0.00  0.00    -0.083 NA
ATOM     10  C   UNL     1      -0.965  -0.471  24.541  0.00  0.00    +0.086 A 
ATOM     13  C   UNL     1      -1.209   0.419  25.600  0.00  0.00    +0.071 A 
ATOM     14  C   UNL     1      -0.632   1.589  25.181  0.00  0.00    +0.143 A 
BRANCH  14  12
ATOM     12  C   UNL     1      -0.496   2.990  25.800  0.00  0.00    +0.023 C 
ATOM     16  C   UNL     1      -1.773   3.483  26.520  0.00  0.00    +0.019 C 
ATOM     17  C   UNL     1       0.642   2.988  26.845  0.00  0.00    +0.019 C 
ATOM     18  C   UNL     1      -0.170   4.017  24.696  0.00  0.00    +0.019 C 
ENDBRANCH  14  12
ENDBRANCH   9  10
ENDBRANCH   6   9
TORSDOF 6
ENDMDL
MODEL 2
REMARK VINA RESULT:      -5.9      1.599      4.937
REMARK  Name = 56775464
REMARK  9 active torsions:
REMARK  status: ('A' for Active; 'I' for Inactive)
REMARK    1  A    between atoms: N_4  and  C_6
REMARK    2  A    between atoms: N_4  and  C_11
REMARK    3  A    between atoms: C_6  and  C_9
REMARK    4  A    between atoms: C_9  and  C_10
REMARK    5  A    between atoms: C_11  and  C_15
REMARK    6  A    between atoms: C_12  and  C_14
REMARK    7  A    between atoms: C_12  and  C_16
REMARK    8  A    between atoms: C_12  and  C_17
REMARK    9  A    between atoms: C_12  and  C_18
REMARK                            x       y       z     vdW  Elec       q    Type
REMARK                         _______ _______ _______ _____ _____    ______ ____
ROOT
ATOM      2  O   UNL     1      -0.536   5.715  24.818  0.00  0.00    -0.376 OA
ATOM      6  C   UNL     1      -1.088   3.653  24.793  0.00  0.00    +0.072 C 
ATOM      7  C   UNL     1      -1.637   4.954  25.367  0.00  0.00    +0.184 C 
ATOM      8  C   UNL     1      -0.014   4.535  24.167  0.00  0.00    +0.184 C 
ENDROOT
BRANCH   6   4
ATOM      4  N   UNL     1      -1.984   3.189  23.743  0.00  0.00    -0.302 NA
ATOM     24  H   UNL     1      -1.624   3.283  22.795  0.00  0.00    +0.123 HD
BRANCH   4  11
ATOM     11  C   UNL     1      -3.272   3.871  23.855  0.00  0.00    +0.120 C 
BRANCH  11  15
ATOM      1  F   UNL     1      -3.795   1.181  23.137  0.00  0.00    -0.205 F 
ATOM     15  C   UNL     1      -4.299   3.019  24.553  0.00  0.00    +0.002 A 
ATOM     19  C   UNL     1      -4.507   1.701  24.148  0.00  0.00    +0.128 A 
ATOM     20  C   UNL     1      -5.044   3.552  25.606  0.00  0.00    +0.008 A 
ATOM     21  C   UNL     1      -5.460   0.915  24.795  0.00  0.00    +0.038 A 
ATOM     22  C   UNL     1      -5.997   2.765  26.253  0.00  0.00    +0.000 A 
ATOM     23  C   UNL     1      -6.205   1.447  25.848  0.00  0.00    +0.003 A 
ENDBRANCH  11  15
ENDBRANCH   4  11
ENDBRANCH   6   4
BRANCH   6   9
ATOM      9  C   UNL     1      -0.665   2.535  25.755  0.00  0.00    +0.085 C 
BRANCH   9  10
ATOM      3  O   UNL     1      -0.940  -0.530  23.943  0.00  0.00    -0.359 OA
ATOM      5  N   UNL     1      -0.357   0.709  24.179  0.00  0.00    -0.083 NA
ATOM     10  C   UNL     1      -1.025   1.211  25.223  0.00  0.00    +0.086 A 
ATOM     13  C   UNL     1      -2.030   0.343  25.681  0.00  0.00    +0.071 A 
ATOM     14  C   UNL     1      -1.934  -0.737  24.843  0.00  0.00    +0.143 A 
BRANCH  14  12
ATOM     12  C   UNL     1      -2.696  -2.068  24.730  0.00  0.00    +0.023 C 
ATOM     16  C   UNL     1      -3.946  -1.998  23.822  0.00  0.00    +0.019 C 
ATOM     17  C   UNL     1      -1.766  -3.151  24.142  0.00  0.00    +0.019 C 
ATOM     18  C   UNL     1      -3.174  -2.513  26.129  0.00  0.00    +0.019 C 
ENDBRANCH  14  12
ENDBRANCH   9  10
ENDBRANCH   6   9
TORSDOF 6
ENDMDL
MODEL 3
REMARK VINA RESULT:      -5.5      1.778      3.705
REMARK  Name = 56775464
REMARK  9 active torsions:
REMARK  status: ('A' for Active; 'I' for Inactive)
REMARK    1  A    between atoms: N_4  and  C_6
REMARK    2  A    between atoms: N_4  and  C_11
REMARK    3  A    between atoms: C_6  and  C_9
REMARK    4  A    between atoms: C_9  and  C_10
REMARK    5  A    between atoms: C_11  and  C_15
REMARK    6  A    between atoms: C_12  and  C_14
REMARK    7  A    between atoms: C_12  and  C_16
REMARK    8  A    between atoms: C_12  and  C_17
REMARK    9  A    between atoms: C_12  and  C_18
REMARK                            x       y       z     vdW  Elec       q    Type
REMARK                         _______ _______ _______ _____ _____    ______ ____
ROOT
ATOM      2  O   UNL     1      -2.561  -3.759  24.321  0.00  0.00    -0.376 OA
ATOM      6  C   UNL     1      -2.914  -1.664  24.534  0.00  0.00    +0.072 C 
ATOM      7  C   UNL     1      -3.588  -2.964  24.958  0.00  0.00    +0.184 C 
ATOM      8  C   UNL     1      -1.822  -2.567  23.971  0.00  0.00    +0.184 C 
ENDROOT
BRANCH   6   4
ATOM      4  N   UNL     1      -2.401  -0.993  25.721  0.00  0.00    -0.302 NA
ATOM     24  H   UNL     1      -2.885  -0.133  25.975  0.00  0.00    +0.123 HD
BRANCH   4  11
ATOM     11  C   UNL     1      -0.973  -0.728  25.561  0.00  0.00    +0.120 C 
BRANCH  11  15
ATOM      1  F   UNL     1      -0.021   0.180  23.052  0.00  0.00    -0.205 F 
ATOM     15  C   UNL     1      -0.702   0.722  25.260  0.00  0.00    +0.002 A 
ATOM     19  C   UNL     1      -0.233   1.101  24.002  0.00  0.00    +0.128 A 
ATOM     20  C   UNL     1      -0.921   1.688  26.243  0.00  0.00    +0.008 A 
ATOM     21  C   UNL     1       0.017   2.445  23.727  0.00  0.00    +0.038 A 
ATOM     22  C   UNL     1      -0.670   3.032  25.967  0.00  0.00    +0.000 A 
ATOM     23  C   UNL     1      -0.201   3.411  24.709  0.00  0.00    +0.003 A 
ENDBRANCH  11  15
ENDBRANCH   4  11
ENDBRANCH   6   4
BRANCH   6   9
ATOM      9  C   UNL     1      -3.656  -0.715  23.586  0.00  0.00    +0.085 C 
BRANCH   9  10
ATOM      3  O   UNL     1      -5.097   1.750  25.732  0.00  0.00    -0.359 OA
ATOM      5  N   UNL     1      -4.919   0.436  25.317  0.00  0.00    -0.083 NA
ATOM     10  C   UNL     1      -4.075   0.513  24.282  0.00  0.00    +0.086 A 
ATOM     13  C   UNL     1      -3.692   1.835  24.003  0.00  0.00    +0.071 A 
ATOM     14  C   UNL     1      -4.361   2.574  24.943  0.00  0.00    +0.143 A 
BRANCH  14  12
ATOM     12  C   UNL     1      -4.438   4.076  25.259  0.00  0.00    +0.023 C 
ATOM     16  C   UNL     1      -5.877   4.596  25.487  0.00  0.00    +0.019 C 
ATOM     17  C   UNL     1      -3.637   4.378  26.544  0.00  0.00    +0.019 C 
ATOM     18  C   UNL     1      -3.842   4.885  24.087  0.00  0.00    +0.019 C 
ENDBRANCH  14  12
ENDBRANCH   9  10
ENDBRANCH   6   9
TORSDOF 6
ENDMDL
MODEL 4
REMARK VINA RESULT:      -5.3      2.381      5.414
REMARK  Name = 56775464
REMARK  9 active torsions:
REMARK  status: ('A' for Active; 'I' for Inactive)
REMARK    1  A    between atoms: N_4  and  C_6
REMARK    2  A    between atoms: N_4  and  C_11
REMARK    3  A    between atoms: C_6  and  C_9
REMARK    4  A    between atoms: C_9  and  C_10
REMARK    5  A    between atoms: C_11  and  C_15
REMARK    6  A    between atoms: C_12  and  C_14
REMARK    7  A    between atoms: C_12  and  C_16
REMARK    8  A    between atoms: C_12  and  C_17
REMARK    9  A    between atoms: C_12  and  C_18
REMARK                            x       y       z     vdW  Elec       q    Type
REMARK                         _______ _______ _______ _____ _____    ______ ____
ROOT
ATOM      2  O   UNL     1      -6.616   4.142  25.906  0.00  0.00    -0.376 OA
ATOM      6  C   UNL     1      -4.600   3.798  25.291  0.00  0.00    +0.072 C 
ATOM      7  C   UNL     1      -5.538   4.989  25.445  0.00  0.00    +0.184 C 
ATOM      8  C   UNL     1      -5.750   2.984  25.874  0.00  0.00    +0.184 C 
ENDROOT
BRANCH   6   4
ATOM      4  N   UNL     1      -3.545   3.900  26.290  0.00  0.00    -0.302 NA
ATOM     24  H   UNL     1      -3.807   4.385  27.148  0.00  0.00    +0.123 HD
BRANCH   4  11
ATOM     11  C   UNL     1      -2.368   4.536  25.702  0.00  0.00    +0.120 C 
BRANCH  11  15
ATOM      1  F   UNL     1      -0.442   4.967  23.670  0.00  0.00    -0.205 F 
ATOM     15  C   UNL     1      -1.305   3.529  25.349  0.00  0.00    +0.002 A 
ATOM     19  C   UNL     1      -0.387   3.805  24.336  0.00  0.00    +0.128 A 
ATOM     20  C   UNL     1      -1.240   2.317  26.039  0.00  0.00    +0.008 A 
ATOM     21  C   UNL     1       0.595   2.870  24.012  0.00  0.00    +0.038 A 
ATOM     22  C   UNL     1      -0.257   1.382  25.713  0.00  0.00    +0.000 A 
ATOM     23  C   UNL     1       0.661   1.659  24.700  0.00  0.00    +0.003 A 
ENDBRANCH  11  15
ENDBRANCH   4  11
ENDBRANCH   6   4
BRANCH   6   9
ATOM      9  C   UNL     1      -4.070   3.443  23.897  0.00  0.00    +0.085 C 
BRANCH   9  10
ATOM      3  O   UNL     1      -2.581   0.294  23.109  0.00  0.00    -0.359 OA
ATOM      5  N   UNL     1      -2.788   1.648  22.874  0.00  0.00    -0.083 NA
ATOM     10  C   UNL     1      -3.629   2.040  23.837  0.00  0.00    +0.086 A 
ATOM     13  C   UNL     1      -3.982   0.988  24.698  0.00  0.00    +0.071 A 
ATOM     14  C   UNL     1      -3.296  -0.087  24.197  0.00  0.00    +0.143 A 
BRANCH  14  12
ATOM     12  C   UNL     1      -3.187  -1.565  24.607  0.00  0.00    +0.023 C 
ATOM     16  C   UNL     1      -4.195  -2.491  23.886  0.00  0.00    +0.019 C 
ATOM     17  C   UNL     1      -1.773  -2.092  24.282  0.00  0.00    +0.019 C 
ATOM     18  C   UNL     1      -3.445  -1.704  26.123  0.00  0.00    +0.019 C 
ENDBRANCH  14  12
ENDBRANCH   9  10
ENDBRANCH   6   9
TORSDOF 6
ENDMDL
MODEL 5
REMARK VINA RESULT:      -5.1      2.703      4.639
REMARK  Name = 56775464
REMARK  9 active torsions:
REMARK  status: ('A' for Active; 'I' for Inactive)
REMARK    1  A    between atoms: N_4  and  C_6
REMARK    2  A    between atoms: N_4  and  C_11
REMARK    3  A    between atoms: C_6  and  C_9
REMARK    4  A    between atoms: C_9  and  C_10
REMARK    5  A    between atoms: C_11  and  C_15
REMARK    6  A    between atoms: C_12  and  C_14
REMARK    7  A    between atoms: C_12  and  C_16
REMARK    8  A    between atoms: C_12  and  C_17
REMARK    9  A    between atoms: C_12  and  C_18
REMARK                            x       y       z     vdW  Elec       q    Type
REMARK                         _______ _______ _______ _____ _____    ______ ____
ROOT
ATOM      2  O   UNL     1       2.391   0.101  22.704  0.00  0.00    -0.376 OA
ATOM      6  C   UNL     1       0.452   0.570  23.464  0.00  0.00    +0.072 C 
ATOM      7  C   UNL     1       1.143  -0.621  22.810  0.00  0.00    +0.184 C 
ATOM      8  C   UNL     1       1.824   1.231  23.406  0.00  0.00    +0.184 C 
ENDROOT
BRANCH   6   4
ATOM      4  N   UNL     1       0.151   0.235  24.850  0.00  0.00    -0.302 NA
ATOM     24  H   UNL     1       0.880   0.475  25.520  0.00  0.00    +0.123 HD
BRANCH   4  11
ATOM     11  C   UNL     1      -0.171  -1.187  24.955  0.00  0.00    +0.120 C 
BRANCH  11  15
ATOM      1  F   UNL     1      -1.329  -3.278  23.434  0.00  0.00    -0.205 F 
ATOM     15  C   UNL     1      -1.656  -1.431  24.890  0.00  0.00    +0.002 A 
ATOM     19  C   UNL     1      -2.159  -2.480  24.120  0.00  0.00    +0.128 A 
ATOM     20  C   UNL     1      -2.527  -0.606  25.601  0.00  0.00    +0.008 A 
ATOM     21  C   UNL     1      -3.535  -2.703  24.062  0.00  0.00    +0.038 A 
ATOM     22  C   UNL     1      -3.903  -0.830  25.542  0.00  0.00    +0.000 A 
ATOM     23  C   UNL     1      -4.407  -1.878  24.772  0.00  0.00    +0.003 A 
ENDBRANCH  11  15
ENDBRANCH   4  11
ENDBRANCH   6   4
BRANCH   6   9
ATOM      9  C   UNL     1      -0.726   1.236  22.742  0.00  0.00    +0.085 C 
BRANCH   9  10
ATOM      3  O   UNL     1      -1.884   3.614  25.143  0.00  0.00    -0.359 OA
ATOM      5  N   UNL     1      -0.876   3.000  24.409  0.00  0.00    -0.083 NA
ATOM     10  C   UNL     1      -1.502   2.086  23.661  0.00  0.00    +0.086 A 
ATOM     13  C   UNL     1      -2.889   2.077  23.879  0.00  0.00    +0.071 A 
ATOM     14  C   UNL     1      -3.078   3.056  24.819  0.00  0.00    +0.143 A 
BRANCH  14  12
ATOM     12  C   UNL     1      -4.315   3.615  25.540  0.00  0.00    +0.023 C 
ATOM     16  C   UNL     1      -5.416   2.560  25.803  0.00  0.00    +0.019 C 
ATOM     17  C   UNL     1      -3.901   4.191  26.912  0.00  0.00    +0.019 C 
ATOM     18  C   UNL     1      -4.951   4.734  24.689  0.00  0.00    +0.019 C 
ENDBRANCH  14  12
ENDBRANCH   9  10
ENDBRANCH   6   9
TORSDOF 6
ENDMDL
MODEL 6
REMARK VINA RESULT:      -5.1      2.489      4.860
REMARK  Name = 56775464
REMARK  9 active torsions:
REMARK  status: ('A' for Active; 'I' for Inactive)
REMARK    1  A    between atoms: N_4  and  C_6
REMARK    2  A    between atoms: N_4  and  C_11
REMARK    3  A    between atoms: C_6  and  C_9
REMARK    4  A    between atoms: C_9  and  C_10
REMARK    5  A    between atoms: C_11  and  C_15
REMARK    6  A    between atoms: C_12  and  C_14
REMARK    7  A    between atoms: C_12  and  C_16
REMARK    8  A    between atoms: C_12  and  C_17
REMARK    9  A    between atoms: C_12  and  C_18
REMARK                            x       y       z     vdW  Elec       q    Type
REMARK                         _______ _______ _______ _____ _____    ______ ____
ROOT
ATOM      2  O   UNL     1      -5.598   3.869  25.719  0.00  0.00    -0.376 OA
ATOM      6  C   UNL     1      -3.994   2.732  24.887  0.00  0.00    +0.072 C 
ATOM      7  C   UNL     1      -4.165   3.850  25.909  0.00  0.00    +0.184 C 
ATOM      8  C   UNL     1      -5.516   2.746  24.812  0.00  0.00    +0.184 C 
ENDROOT
BRANCH   6   4
ATOM      4  N   UNL     1      -3.570   1.523  25.580  0.00  0.00    -0.302 NA
ATOM     24  H   UNL     1      -2.617   1.223  25.381  0.00  0.00    +0.123 HD
BRANCH   4  11
ATOM     11  C   UNL     1      -4.503   0.436  25.293  0.00  0.00    +0.120 C 
BRANCH  11  15
ATOM      1  F   UNL     1      -1.878  -0.187  26.155  0.00  0.00    -0.205 F 
ATOM     15  C   UNL     1      -3.786  -0.828  24.897  0.00  0.00    +0.002 A 
ATOM     19  C   UNL     1      -2.493  -1.072  25.358  0.00  0.00    +0.128 A 
ATOM     20  C   UNL     1      -4.419  -1.755  24.069  0.00  0.00    +0.008 A 
ATOM     21  C   UNL     1      -1.831  -2.244  24.989  0.00  0.00    +0.038 A 
ATOM     22  C   UNL     1      -3.757  -2.927  23.701  0.00  0.00    +0.000 A 
ATOM     23  C   UNL     1      -2.463  -3.171  24.161  0.00  0.00    +0.003 A 
ENDBRANCH  11  15
ENDBRANCH   4  11
ENDBRANCH   6   4
BRANCH   6   9
ATOM      9  C   UNL     1      -3.184   3.005  23.613  0.00  0.00    +0.085 C 
BRANCH   9  10
ATOM      3  O   UNL     1       0.174   2.040  24.352  0.00  0.00    -0.359 OA
ATOM      5  N   UNL     1      -0.942   2.847  24.540  0.00  0.00    -0.083 NA
ATOM     10  C   UNL     1      -1.855   2.377  23.683  0.00  0.00    +0.086 A 
ATOM     13  C   UNL     1      -1.376   1.287  22.937  0.00  0.00    +0.071 A 
ATOM     14  C   UNL     1      -0.096   1.116  23.396  0.00  0.00    +0.143 A 
BRANCH  14  12
ATOM     12  C   UNL     1       1.033   0.130  23.054  0.00  0.00    +0.023 C 
ATOM     16  C   UNL     1       0.948  -0.448  21.622  0.00  0.00    +0.019 C 
ATOM     17  C   UNL     1       2.398   0.842  23.175  0.00  0.00    +0.019 C 
ATOM     18  C   UNL     1       0.995  -1.064  24.031  0.00  0.00    +0.019 C 
ENDBRANCH  14  12
ENDBRANCH   9  10
ENDBRANCH   6   9
TORSDOF 6
ENDMDL
MODEL 7
REMARK VINA RESULT:      -5.1      2.500      5.079
REMARK  Name = 56775464
REMARK  9 active torsions:
REMARK  status: ('A' for Active; 'I' for Inactive)
REMARK    1  A    between atoms: N_4  and  C_6
REMARK    2  A    between atoms: N_4  and  C_11
REMARK    3  A    between atoms: C_6  and  C_9
REMARK    4  A    between atoms: C_9  and  C_10
REMARK    5  A    between atoms: C_11  and  C_15
REMARK    6  A    between atoms: C_12  and  C_14
REMARK    7  A    between atoms: C_12  and  C_16
REMARK    8  A    between atoms: C_12  and  C_17
REMARK    9  A    between atoms: C_12  and  C_18
REMARK                            x       y       z     vdW  Elec       q    Type
REMARK                         _______ _______ _______ _____ _____    ______ ____
ROOT
ATOM      2  O   UNL     1       2.013   0.547  23.135  0.00  0.00    -0.376 OA
ATOM      6  C   UNL     1      -0.011   0.850  23.742  0.00  0.00    +0.072 C 
ATOM      7  C   UNL     1       0.817  -0.267  23.118  0.00  0.00    +0.184 C 
ATOM      8  C   UNL     1       1.307   1.611  23.814  0.00  0.00    +0.184 C 
ENDROOT
BRANCH   6   4
ATOM      4  N   UNL     1      -0.397   0.452  25.089  0.00  0.00    -0.302 NA
ATOM     24  H   UNL     1       0.146   0.878  25.838  0.00  0.00    +0.123 HD
BRANCH   4  11
ATOM     11  C   UNL     1      -0.349  -1.004  25.206  0.00  0.00    +0.120 C 
BRANCH  11  15
ATOM      1  F   UNL     1      -2.797  -0.154  26.352  0.00  0.00    -0.205 F 
ATOM     15  C   UNL     1      -1.675  -1.637  24.876  0.00  0.00    +0.002 A 
ATOM     19  C   UNL     1      -2.843  -1.170  25.477  0.00  0.00    +0.128 A 
ATOM     20  C   UNL     1      -1.732  -2.694  23.967  0.00  0.00    +0.008 A 
ATOM     21  C   UNL     1      -4.069  -1.759  25.170  0.00  0.00    +0.038 A 
ATOM     22  C   UNL     1      -2.959  -3.283  23.660  0.00  0.00    +0.000 A 
ATOM     23  C   UNL     1      -4.128  -2.815  24.261  0.00  0.00    +0.003 A 
ENDBRANCH  11  15
ENDBRANCH   4  11
ENDBRANCH   6   4
BRANCH   6   9
ATOM      9  C   UNL     1      -1.173   1.451  22.940  0.00  0.00    +0.085 C 
BRANCH   9  10
ATOM      3  O   UNL     1      -3.130   3.084  25.443  0.00  0.00    -0.359 OA
ATOM      5  N   UNL     1      -1.924   2.819  24.806  0.00  0.00    -0.083 NA
ATOM     10  C   UNL     1      -2.231   1.954  23.833  0.00  0.00    +0.086 A 
ATOM     13  C   UNL     1      -3.600   1.642  23.808  0.00  0.00    +0.071 A 
ATOM     14  C   UNL     1      -4.121   2.378  24.840  0.00  0.00    +0.143 A 
BRANCH  14  12
ATOM     12  C   UNL     1      -5.535   2.549  25.418  0.00  0.00    +0.023 C 
ATOM     16  C   UNL     1      -5.714   1.936  26.826  0.00  0.00    +0.019 C 
ATOM     17  C   UNL     1      -5.872   4.052  25.530  0.00  0.00    +0.019 C 
ATOM     18  C   UNL     1      -6.562   1.866  24.490  0.00  0.00    +0.019 C 
ENDBRANCH  14  12
ENDBRANCH   9  10
ENDBRANCH   6   9
TORSDOF 6
ENDMDL
MODEL 8
REMARK VINA RESULT:      -4.8      2.599      4.981
REMARK  Name = 56775464
REMARK  9 active torsions:
REMARK  status: ('A' for Active; 'I' for Inactive)
REMARK    1  A    between atoms: N_4  and  C_6
REMARK    2  A    between atoms: N_4  and  C_11
REMARK    3  A    between atoms: C_6  and  C_9
REMARK    4  A    between atoms: C_9  and  C_10
REMARK    5  A    between atoms: C_11  and  C_15
REMARK    6  A    between atoms: C_12  and  C_14
REMARK    7  A    between atoms: C_12  and  C_16
REMARK    8  A    between atoms: C_12  and  C_17
REMARK    9  A    between atoms: C_12  and  C_18
REMARK                            x       y       z     vdW  Elec       q    Type
REMARK                         _______ _______ _______ _____ _____    ______ ____
ROOT
ATOM      2  O   UNL     1      -3.434   4.510  24.524  0.00  0.00    -0.376 OA
ATOM      6  C   UNL     1      -2.556   2.573  24.715  0.00  0.00    +0.072 C 
ATOM      7  C   UNL     1      -3.695   3.357  25.357  0.00  0.00    +0.184 C 
ATOM      8  C   UNL     1      -2.405   3.789  23.808  0.00  0.00    +0.184 C 
ENDROOT
BRANCH   6   4
ATOM      4  N   UNL     1      -3.121   1.477  23.939  0.00  0.00    -0.302 NA
ATOM     24  H   UNL     1      -3.513   1.744  23.037  0.00  0.00    +0.123 HD
BRANCH   4  11
ATOM     11  C   UNL     1      -4.131   0.779  24.732  0.00  0.00    +0.120 C 
BRANCH  11  15
ATOM      1  F   UNL     1      -2.866  -0.718  26.777  0.00  0.00    -0.205 F 
ATOM     15  C   UNL     1      -3.957  -0.716  24.669  0.00  0.00    +0.002 A 
ATOM     19  C   UNL     1      -3.324  -1.391  25.712  0.00  0.00    +0.128 A 
ATOM     20  C   UNL     1      -4.432  -1.424  23.565  0.00  0.00    +0.008 A 
ATOM     21  C   UNL     1      -3.165  -2.775  25.651  0.00  0.00    +0.038 A 
ATOM     22  C   UNL     1      -4.272  -2.809  23.505  0.00  0.00    +0.000 A 
ATOM     23  C   UNL     1      -3.639  -3.484  24.548  0.00  0.00    +0.003 A 
ENDBRANCH  11  15
ENDBRANCH   4  11
ENDBRANCH   6   4
BRANCH   6   9
ATOM      9  C   UNL     1      -1.368   2.140  25.582  0.00  0.00    +0.085 C 
BRANCH   9  10
ATOM      3  O   UNL     1       0.353  -0.516  23.927  0.00  0.00    -0.359 OA
ATOM      5  N   UNL     1      -0.702  -0.019  24.682  0.00  0.00    -0.083 NA
ATOM     10  C   UNL     1      -0.440   1.284  24.824  0.00  0.00    +0.086 A 
ATOM     13  C   UNL     1       0.754   1.661  24.187  0.00  0.00    +0.071 A 
ATOM     14  C   UNL     1       1.213   0.493  23.638  0.00  0.00    +0.143 A 
BRANCH  14  12
ATOM     12  C   UNL     1       2.450   0.123  22.803  0.00  0.00    +0.023 C 
ATOM     16  C   UNL     1       3.452   1.287  22.620  0.00  0.00    +0.019 C 
ATOM     17  C   UNL     1       3.214  -1.031  23.488  0.00  0.00    +0.019 C 
ATOM     18  C   UNL     1       2.010  -0.324  21.393  0.00  0.00    +0.019 C 
ENDBRANCH  14  12
ENDBRANCH   9  10
ENDBRANCH   6   9
TORSDOF 6
ENDMDL
MODEL 9
REMARK VINA RESULT:      -4.4      2.445      4.734
REMARK  Name = 56775464
REMARK  9 active torsions:
REMARK  status: ('A' for Active; 'I' for Inactive)
REMARK    1  A    between atoms: N_4  and  C_6
REMARK    2  A    between atoms: N_4  and  C_11
REMARK    3  A    between atoms: C_6  and  C_9
REMARK    4  A    between atoms: C_9  and  C_10
REMARK    5  A    between atoms: C_11  and  C_15
REMARK    6  A    between atoms: C_12  and  C_14
REMARK    7  A    between atoms: C_12  and  C_16
REMARK    8  A    between atoms: C_12  and  C_17
REMARK    9  A    between atoms: C_12  and  C_18
REMARK                            x       y       z     vdW  Elec       q    Type
REMARK                         _______ _______ _______ _____ _____    ______ ____
ROOT
ATOM      2  O   UNL     1       1.820  -0.402  21.792  0.00  0.00    -0.376 OA
ATOM      6  C   UNL     1       1.066   0.591  23.524  0.00  0.00    +0.072 C 
ATOM      7  C   UNL     1       0.504  -0.001  22.237  0.00  0.00    +0.184 C 
ATOM      8  C   UNL     1       2.405   0.053  23.034  0.00  0.00    +0.184 C 
ENDROOT
BRANCH   6   4
ATOM      4  N   UNL     1       0.617  -0.220  24.648  0.00  0.00    -0.302 NA
ATOM     24  H   UNL     1       1.331  -0.424  25.346  0.00  0.00    +0.123 HD
BRANCH   4  11
ATOM     11  C   UNL     1       0.036  -1.467  24.156  0.00  0.00    +0.120 C 
BRANCH  11  15
ATOM      1  F   UNL     1      -1.076  -0.063  26.350  0.00  0.00    -0.205 F 
ATOM     15  C   UNL     1      -1.395  -1.630  24.596  0.00  0.00    +0.002 A 
ATOM     19  C   UNL     1      -1.879  -0.907  25.687  0.00  0.00    +0.128 A 
ATOM     20  C   UNL     1      -2.238  -2.506  23.911  0.00  0.00    +0.008 A 
ATOM     21  C   UNL     1      -3.204  -1.061  26.093  0.00  0.00    +0.038 A 
ATOM     22  C   UNL     1      -3.563  -2.660  24.318  0.00  0.00    +0.000 A 
ATOM     23  C   UNL     1      -4.047  -1.937  25.408  0.00  0.00    +0.003 A 
ENDBRANCH  11  15
ENDBRANCH   4  11
ENDBRANCH   6   4
BRANCH   6   9
ATOM      9  C   UNL     1       0.917   2.097  23.778  0.00  0.00    +0.085 C 
BRANCH   9  10
ATOM      3  O   UNL     1      -1.818   2.964  25.905  0.00  0.00    -0.359 OA
ATOM      5  N   UNL     1      -0.467   2.733  25.674  0.00  0.00    -0.083 NA
ATOM     10  C   UNL     1      -0.390   2.409  24.378  0.00  0.00    +0.086 A 
ATOM     13  C   UNL     1      -1.646   2.419  23.750  0.00  0.00    +0.071 A 
ATOM     14  C   UNL     1      -2.510   2.774  24.753  0.00  0.00    +0.143 A 
BRANCH  14  12
ATOM     12  C   UNL     1      -4.031   2.987  24.822  0.00  0.00    +0.023 C 
ATOM     16  C   UNL     1      -4.845   1.673  24.872  0.00  0.00    +0.019 C 
ATOM     17  C   UNL     1      -4.386   3.790  26.093  0.00  0.00    +0.019 C 
ATOM     18  C   UNL     1      -4.504   3.769  23.578  0.00  0.00    +0.019 C 
ENDBRANCH  14  12
ENDBRANCH   9  10
ENDBRANCH   6   9
TORSDOF 6
ENDMDL
MODEL 10
REMARK VINA RESULT:      -4.0      2.156      4.997
REMARK  Name = 56775464
REMARK  9 active torsions:
REMARK  status: ('A' for Active; 'I' for Inactive)
REMARK    1  A    between atoms: N_4  and  C_6
REMARK    2  A    between atoms: N_4  and  C_11
REMARK    3  A    between atoms: C_6  and  C_9
REMARK    4  A    between atoms: C_9  and  C_10
REMARK    5  A    between atoms: C_11  and  C_15
REMARK    6  A    between atoms: C_12  and  C_14
REMARK    7  A    between atoms: C_12  and  C_16
REMARK    8  A    between atoms: C_12  and  C_17
REMARK    9  A    between atoms: C_12  and  C_18
REMARK                            x       y       z     vdW  Elec       q    Type
REMARK                         _______ _______ _______ _____ _____    ______ ____
ROOT
ATOM      2  O   UNL     1      -6.194   4.454  25.882  0.00  0.00    -0.376 OA
ATOM      6  C   UNL     1      -5.249   2.654  25.230  0.00  0.00    +0.072 C 
ATOM      7  C   UNL     1      -6.545   3.406  24.951  0.00  0.00    +0.184 C 
ATOM      8  C   UNL     1      -4.905   3.842  26.121  0.00  0.00    +0.184 C 
ENDROOT
BRANCH   6   4
ATOM      4  N   UNL     1      -4.413   2.704  24.038  0.00  0.00    -0.302 NA
ATOM     24  H   UNL     1      -3.984   1.818  23.774  0.00  0.00    +0.123 HD
BRANCH   4  11
ATOM     11  C   UNL     1      -3.379   3.724  24.203  0.00  0.00    +0.120 C 
BRANCH  11  15
ATOM      1  F   UNL     1      -1.878   2.129  22.407  0.00  0.00    -0.205 F 
ATOM     15  C   UNL     1      -2.046   3.120  24.557  0.00  0.00    +0.002 A 
ATOM     19  C   UNL     1      -1.360   2.343  23.625  0.00  0.00    +0.128 A 
ATOM     20  C   UNL     1      -1.499   3.339  25.822  0.00  0.00    +0.008 A 
ATOM     21  C   UNL     1      -0.125   1.784  23.956  0.00  0.00    +0.038 A 
ATOM     22  C   UNL     1      -0.264   2.779  26.153  0.00  0.00    +0.000 A 
ATOM     23  C   UNL     1       0.422   2.003  25.220  0.00  0.00    +0.003 A 
ENDBRANCH  11  15
ENDBRANCH   4  11
ENDBRANCH   6   4
BRANCH   6   9
ATOM      9  C   UNL     1      -5.320   1.254  25.852  0.00  0.00    +0.085 C 
BRANCH   9  10
ATOM      3  O   UNL     1      -3.585  -1.026  23.719  0.00  0.00    -0.359 OA
ATOM      5  N   UNL     1      -4.685  -0.242  24.042  0.00  0.00    -0.083 NA
ATOM     10  C   UNL     1      -4.367   0.336  25.205  0.00  0.00    +0.086 A 
ATOM     13  C   UNL     1      -3.093  -0.043  25.659  0.00  0.00    +0.071 A 
ATOM     14  C   UNL     1      -2.643  -0.900  24.689  0.00  0.00    +0.143 A 
BRANCH  14  12
ATOM     12  C   UNL     1      -1.347  -1.704  24.497  0.00  0.00    +0.023 C 
ATOM     16  C   UNL     1      -0.442  -1.171  23.361  0.00  0.00    +0.019 C 
ATOM     17  C   UNL     1      -0.514  -1.666  25.797  0.00  0.00    +0.019 C 
ATOM     18  C   UNL     1      -1.690  -3.169  24.155  0.00  0.00    +0.019 C 
ENDBRANCH  14  12
ENDBRANCH   9  10
ENDBRANCH   6   9
TORSDOF 6
ENDMDL
