REMARK  Name = 28961971
REMARK  13 active torsions:
REMARK  status: ('A' for Active; 'I' for Inactive)
REMARK    1  A    between atoms: O_2  and  C_12
REMARK    2  A    between atoms: O_3  and  C_19
REMARK    3  A    between atoms: O_4  and  C_22
REMARK    4  A    between atoms: O_4  and  C_30
REMARK    5  A    between atoms: N_6  and  C_10
REMARK    6  A    between atoms: N_7  and  C_20
REMARK    7  A    between atoms: N_8  and  C_16
REMARK    8  A    between atoms: N_9  and  C_33
REMARK    9  A    between atoms: N_9  and  C_34
REMARK   10  A    between atoms: N_9  and  C_35
REMARK   11  A    between atoms: C_11  and  C_16
REMARK   12  A    between atoms: C_13  and  C_19
REMARK   13  A    between atoms: C_21  and  C_25
REMARK                            x       y       z     vdW  Elec       q    Type
REMARK                         _______ _______ _______ _____ _____    ______ ____
ROOT
ATOM      1  O   UNL     1       1.326   2.727   0.681  0.00  0.00    -0.365 OA
ATOM     10  C   UNL     1      -0.970   2.099   0.649  0.00  0.00    +0.118 C 
ATOM     11  C   UNL     1       0.467   1.570   0.569  0.00  0.00    +0.155 C 
ATOM     12  C   UNL     1      -0.837   3.530   0.150  0.00  0.00    +0.165 C 
ATOM     13  C   UNL     1       0.510   3.912   0.751  0.00  0.00    +0.174 C 
ENDROOT
BRANCH  10   6
ATOM      6  N   UNL     1      -1.985   1.302  -0.018  0.00  0.00    -0.292 NA
ATOM      7  N   UNL     1      -4.372  -0.256  -0.202  0.00  0.00    -0.325 N 
ATOM     14  C   UNL     1      -2.034  -0.050   0.551  0.00  0.00    +0.104 C 
ATOM     15  C   UNL     1      -3.301   1.942   0.100  0.00  0.00    +0.104 C 
ATOM     17  C   UNL     1      -3.061  -0.917  -0.181  0.00  0.00    +0.120 C 
ATOM     18  C   UNL     1      -4.371   1.141  -0.647  0.00  0.00    +0.120 C 
BRANCH   7  20
ATOM     20  C   UNL     1      -5.505  -1.050  -0.410  0.00  0.00    +0.072 A 
ATOM     22  C   UNL     1      -5.822  -2.082   0.473  0.00  0.00    +0.141 A 
ATOM     23  C   UNL     1      -6.323  -0.800  -1.513  0.00  0.00    +0.027 A 
ATOM     24  C   UNL     1      -6.955  -2.865   0.254  0.00  0.00    +0.047 A 
ATOM     26  C   UNL     1      -7.457  -1.583  -1.732  0.00  0.00    +0.002 A 
ATOM     27  C   UNL     1      -7.773  -2.615  -0.848  0.00  0.00    +0.004 A 
BRANCH  22   4
ATOM      4  O   UNL     1      -5.036  -2.342   1.556  0.00  0.00    -0.493 OA
ATOM     30  C   UNL     1      -5.354  -1.659   2.766  0.00  0.00    +0.277 C 
ENDBRANCH  22   4
ENDBRANCH   7  20
ENDBRANCH  10   6
BRANCH  12   2
ATOM      2  O   UNL     1      -0.779   3.583  -1.270  0.00  0.00    -0.388 OA
ATOM     36  H   UNL     1      -0.802   4.519  -1.531  0.00  0.00    +0.210 HD
ENDBRANCH  12   2
BRANCH  11  16
ATOM     16  C   UNL     1       0.858   0.840  -0.711  0.00  0.00    +0.137 C 
BRANCH  16   8
ATOM      5  O   UNL     1       1.812  -1.680   0.282  0.00  0.00    -0.270 OA
ATOM      8  N   UNL     1       2.220   0.401  -0.660  0.00  0.00    -0.309 N 
ATOM     21  C   UNL     1       2.596  -0.843  -0.160  0.00  0.00    +0.244 C 
ATOM     37  H   UNL     1       2.925   1.073  -0.944  0.00  0.00    +0.149 HD
BRANCH  21  25
ATOM     25  C   UNL     1       4.052  -1.137  -0.151  0.00  0.00    +0.037 A 
ATOM     28  C   UNL     1       4.578  -2.027   0.785  0.00  0.00    +0.015 A 
ATOM     29  C   UNL     1       4.893  -0.522  -1.078  0.00  0.00    +0.015 A 
ATOM     31  C   UNL     1       5.946  -2.303   0.793  0.00  0.00    +0.024 A 
ATOM     32  C   UNL     1       6.261  -0.797  -1.069  0.00  0.00    +0.024 A 
ATOM     33  C   UNL     1       6.787  -1.687  -0.134  0.00  0.00    +0.029 A 
BRANCH  33   9
ATOM      9  N   UNL     1       8.169  -1.965  -0.126  0.00  0.00    -0.336 N 
ATOM     34  C   UNL     1       8.727  -2.889   0.842  0.00  0.00    +0.129 C 
ATOM     35  C   UNL     1       9.050  -1.336  -1.090  0.00  0.00    +0.129 C 
ENDBRANCH  33   9
ENDBRANCH  21  25
ENDBRANCH  16   8
ENDBRANCH  11  16
BRANCH  13  19
ATOM     19  C   UNL     1       1.231   5.057   0.062  0.00  0.00    +0.190 C 
BRANCH  19   3
ATOM      3  O   UNL     1       2.454   5.301   0.738  0.00  0.00    -0.392 OA
ATOM     38  H   UNL     1       2.892   6.039   0.280  0.00  0.00    +0.210 HD
ENDBRANCH  19   3
ENDBRANCH  13  19
TORSDOF 10
