REMARK  Name = 75536752
REMARK  6 active torsions:
REMARK  status: ('A' for Active; 'I' for Inactive)
REMARK    1  A    between atoms: O_3  and  C_10
REMARK    2  A    between atoms: N_6  and  C_9
REMARK    3  A    between atoms: N_6  and  C_14
REMARK    4  A    between atoms: N_7  and  C_13
REMARK    5  A    between atoms: C_11  and  C_13
REMARK    6  A    between atoms: C_14  and  C_18
REMARK                            x       y       z     vdW  Elec       q    Type
REMARK                         _______ _______ _______ _____ _____    ______ ____
ROOT
ATOM      2  O   UNL     1      -0.742   0.970  -0.165  0.00  0.00    -0.371 OA
ATOM      9  C   UNL     1       1.297  -0.230  -0.377  0.00  0.00    +0.111 C 
ATOM     10  C   UNL     1       0.364  -0.997   0.542  0.00  0.00    +0.164 C 
ATOM     11  C   UNL     1      -0.985  -0.412   0.146  0.00  0.00    +0.165 C 
ATOM     12  C   UNL     1       0.672   1.155  -0.350  0.00  0.00    +0.181 C 
ENDROOT
BRANCH  10   3
ATOM      3  O   UNL     1       0.416  -2.395   0.329  0.00  0.00    -0.388 OA
ATOM     28  H   UNL     1       0.216  -2.569  -0.606  0.00  0.00    +0.210 HD
ENDBRANCH  10   3
BRANCH   9   6
ATOM      6  N   UNL     1       2.682  -0.234   0.063  0.00  0.00    -0.305 NA
ATOM     26  H   UNL     1       2.942  -1.183   0.335  0.00  0.00    +0.123 HD
BRANCH   6  14
ATOM     14  C   UNL     1       3.573   0.212  -1.002  0.00  0.00    +0.116 C 
BRANCH  14  18
ATOM      1  F   UNL     1       8.958   0.279   0.656  0.00  0.00    -0.205 F 
ATOM     18  C   UNL     1       5.011   0.230  -0.559  0.00  0.00    -0.033 A 
ATOM     21  C   UNL     1       5.549   1.381   0.018  0.00  0.00    +0.008 A 
ATOM     22  C   UNL     1       5.807  -0.903  -0.726  0.00  0.00    +0.008 A 
ATOM     23  C   UNL     1       6.882   1.397   0.428  0.00  0.00    +0.038 A 
ATOM     24  C   UNL     1       7.140  -0.887  -0.316  0.00  0.00    +0.038 A 
ATOM     25  C   UNL     1       7.678   0.264   0.262  0.00  0.00    +0.123 A 
ENDBRANCH  14  18
ENDBRANCH   6  14
ENDBRANCH   9   6
BRANCH  11  13
ATOM     13  C   UNL     1      -2.030  -0.516   1.242  0.00  0.00    +0.140 C 
BRANCH  13   7
ATOM      4  O   UNL     1      -8.040   1.093  -0.335  0.00  0.00    -0.377 OA
ATOM      5  O   UNL     1      -4.114  -1.904  -0.043  0.00  0.00    -0.253 OA
ATOM      7  N   UNL     1      -3.292   0.054   0.826  0.00  0.00    -0.297 N 
ATOM      8  N   UNL     1      -5.442  -0.006  -0.155  0.00  0.00    -0.281 N 
ATOM     15  C   UNL     1      -4.273  -0.702   0.195  0.00  0.00    +0.302 C 
ATOM     16  C   UNL     1      -6.525  -0.723  -0.831  0.00  0.00    +0.137 C 
ATOM     17  C   UNL     1      -5.652   1.445  -0.047  0.00  0.00    +0.137 C 
ATOM     19  C   UNL     1      -7.879  -0.325  -0.265  0.00  0.00    +0.179 C 
ATOM     20  C   UNL     1      -7.056   1.754   0.462  0.00  0.00    +0.179 C 
ATOM     27  H   UNL     1      -3.413   1.040   1.005  0.00  0.00    +0.150 HD
ENDBRANCH  13   7
ENDBRANCH  11  13
TORSDOF 6
