REMARK  Name = 25390368
REMARK  7 active torsions:
REMARK  status: ('A' for Active; 'I' for Inactive)
REMARK    1  A    between atoms: O_2  and  C_12
REMARK    2  A    between atoms: O_3  and  C_13
REMARK    3  A    between atoms: N_8  and  C_16
REMARK    4  A    between atoms: N_10  and  C_28
REMARK    5  A    between atoms: C_11  and  C_15
REMARK    6  A    between atoms: C_14  and  C_16
REMARK    7  A    between atoms: C_15  and  C_17
REMARK                            x       y       z     vdW  Elec       q    Type
REMARK                         _______ _______ _______ _____ _____    ______ ____
ROOT
ATOM      1  O   UNL     1      -3.918  -0.388  -0.907  0.00  0.00    -0.366 OA
ATOM     11  C   UNL     1      -3.596  -1.661  -0.301  0.00  0.00    +0.159 C 
ATOM     12  C   UNL     1      -4.620  -1.880   0.807  0.00  0.00    +0.175 C 
ATOM     13  C   UNL     1      -4.963  -0.460   1.205  0.00  0.00    +0.176 C 
ATOM     14  C   UNL     1      -4.959   0.244  -0.141  0.00  0.00    +0.167 C 
ENDROOT
BRANCH  12   2
ATOM      2  O   UNL     1      -5.760  -2.523   0.235  0.00  0.00    -0.387 OA
ATOM     34  H   UNL     1      -5.487  -3.419  -0.027  0.00  0.00    +0.210 HD
ENDBRANCH  12   2
BRANCH  13   3
ATOM      3  O   UNL     1      -6.209  -0.347   1.858  0.00  0.00    -0.387 OA
ATOM     35  H   UNL     1      -6.181  -0.922   2.642  0.00  0.00    +0.210 HD
ENDBRANCH  13   3
BRANCH  11  15
ATOM     15  C   UNL     1      -2.166  -1.582   0.216  0.00  0.00    +0.130 C 
BRANCH  15  17
ATOM      4  O   UNL     1      -1.625  -1.918  -2.071  0.00  0.00    -0.276 OA
ATOM      6  N   UNL     1       0.159  -1.646  -0.607  0.00  0.00    -0.298 N 
ATOM      7  N   UNL     1       2.981  -1.273  -0.084  0.00  0.00    -0.312 N 
ATOM      9  N   UNL     1       4.959  -0.040  -0.467  0.00  0.00    -0.240 NA
ATOM     17  C   UNL     1      -1.196  -1.730  -0.930  0.00  0.00    +0.218 C 
ATOM     18  C   UNL     1       1.161  -1.784  -1.660  0.00  0.00    +0.126 C 
ATOM     19  C   UNL     1       0.666  -1.412   0.748  0.00  0.00    +0.126 C 
ATOM     20  C   UNL     1       2.399  -0.934  -1.385  0.00  0.00    +0.125 C 
ATOM     21  C   UNL     1       2.111  -1.878   0.927  0.00  0.00    +0.125 C 
ATOM     22  C   UNL     1       4.334  -1.056   0.169  0.00  0.00    +0.121 A 
ATOM     24  C   UNL     1       4.956  -1.910   1.066  0.00  0.00    +0.043 A 
ATOM     25  C   UNL     1       6.306  -1.706   1.328  0.00  0.00    +0.005 A 
ATOM     26  C   UNL     1       6.271   0.127  -0.188  0.00  0.00    +0.113 A 
ATOM     27  C   UNL     1       6.984  -0.671   0.693  0.00  0.00    +0.020 A 
ENDBRANCH  15  17
ENDBRANCH  11  15
BRANCH  14  16
ATOM     16  C   UNL     1      -4.687   1.734  -0.041  0.00  0.00    +0.140 C 
BRANCH  16   8
ATOM      5  O   UNL     1      -2.178   1.998  -1.398  0.00  0.00    -0.253 OA
ATOM      8  N   UNL     1      -3.411   1.989   0.559  0.00  0.00    -0.297 N 
ATOM     10  N   UNL     1      -1.138   2.353   0.676  0.00  0.00    -0.269 N 
ATOM     23  C   UNL     1      -2.219   2.106  -0.174  0.00  0.00    +0.304 C 
ATOM     36  H   UNL     1      -3.368   2.099   1.568  0.00  0.00    +0.150 HD
ATOM     37  H   UNL     1      -1.344   2.412   1.670  0.00  0.00    +0.156 HD
BRANCH  10  28
ATOM     28  C   UNL     1       0.220   2.532   0.325  0.00  0.00    +0.035 A 
ATOM     29  C   UNL     1       1.172   2.771   1.316  0.00  0.00    +0.023 A 
ATOM     30  C   UNL     1       0.609   2.469  -1.013  0.00  0.00    +0.023 A 
ATOM     31  C   UNL     1       2.511   2.948   0.970  0.00  0.00    +0.002 A 
ATOM     32  C   UNL     1       1.948   2.645  -1.360  0.00  0.00    +0.002 A 
ATOM     33  C   UNL     1       2.900   2.885  -0.368  0.00  0.00    +0.000 A 
ENDBRANCH  10  28
ENDBRANCH  16   8
ENDBRANCH  14  16
TORSDOF 7
