REMARK  Name = 51137139
REMARK  6 active torsions:
REMARK  status: ('A' for Active; 'I' for Inactive)
REMARK    1  A    between atoms: S_1  and  C_23
REMARK    2  A    between atoms: S_1  and  C_25
REMARK    3  A    between atoms: N_5  and  C_8
REMARK    4  A    between atoms: N_6  and  C_18
REMARK    5  A    between atoms: C_9  and  C_17
REMARK    6  A    between atoms: C_25  and  C_26
REMARK                            x       y       z     vdW  Elec       q    Type
REMARK                         _______ _______ _______ _____ _____    ______ ____
ROOT
ATOM      2  O   UNL     1       1.025   2.028   0.757  0.00  0.00    -0.439 OA
ATOM      7  N   UNL     1       0.782   0.130  -0.457  0.00  0.00    -0.213 NA
ATOM     17  C   UNL     1       0.213   1.211   0.030  0.00  0.00    +0.201 A 
ATOM     19  C   UNL     1       2.080   0.232  -0.020  0.00  0.00    +0.111 A 
ATOM     20  C   UNL     1       2.233   1.392   0.724  0.00  0.00    +0.155 A 
ATOM     21  C   UNL     1       3.189  -0.606  -0.203  0.00  0.00    +0.058 A 
ATOM     22  C   UNL     1       3.421   1.803   1.316  0.00  0.00    +0.050 A 
ATOM     23  C   UNL     1       4.407  -0.225   0.379  0.00  0.00    +0.090 A 
ATOM     24  C   UNL     1       4.518   0.956   1.123  0.00  0.00    +0.030 A 
ENDROOT
BRANCH  17   9
ATOM      5  N   UNL     1      -3.413   0.870  -0.369  0.00  0.00    -0.299 NA
ATOM      9  C   UNL     1      -1.221   1.664  -0.114  0.00  0.00    +0.090 C 
ATOM     10  C   UNL     1      -2.227   0.658   0.463  0.00  0.00    +0.097 C 
ATOM     11  C   UNL     1      -2.900   0.989  -1.734  0.00  0.00    +0.085 C 
ATOM     12  C   UNL     1      -1.685   1.892  -1.563  0.00  0.00    +0.029 C 
BRANCH   5   8
ATOM      6  N   UNL     1      -7.096  -1.087   0.447  0.00  0.00    -0.305 NA
ATOM      8  C   UNL     1      -4.389  -0.208  -0.234  0.00  0.00    +0.059 C 
ATOM     13  C   UNL     1      -5.585   0.040  -1.157  0.00  0.00    +0.034 C 
ATOM     14  C   UNL     1      -4.867  -0.337   1.216  0.00  0.00    +0.034 C 
ATOM     15  C   UNL     1      -6.664  -1.028  -0.956  0.00  0.00    +0.085 C 
ATOM     16  C   UNL     1      -5.969  -1.392   1.339  0.00  0.00    +0.085 C 
ATOM     18  C   UNL     1      -8.162  -2.076   0.613  0.00  0.00    +0.104 C 
ENDBRANCH   5   8
ENDBRANCH  17   9
BRANCH  23   1
ATOM      1  S   UNL     1       5.812  -1.247   0.173  0.00  0.00    -0.003 S 
ATOM      3  O   UNL     1       6.739  -0.996   1.267  0.00  0.00    -0.169 OA
ATOM      4  O   UNL     1       5.343  -2.600  -0.085  0.00  0.00    -0.169 OA
BRANCH   1  25
ATOM     25  C   UNL     1       6.582  -0.641  -1.310  0.00  0.00    +0.168 C 
ATOM     26  C   UNL     1       7.832  -1.422  -1.645  0.00  0.00    +0.028 C 
ENDBRANCH   1  25
ENDBRANCH  23   1
TORSDOF 4
