REMARK  Name = 25338993
REMARK  8 active torsions:
REMARK  status: ('A' for Active; 'I' for Inactive)
REMARK    1  A    between atoms: S_1  and  N_6
REMARK    2  A    between atoms: S_1  and  C_17
REMARK    3  A    between atoms: O_2  and  C_16
REMARK    4  A    between atoms: O_2  and  C_20
REMARK    5  A    between atoms: N_7  and  C_14
REMARK    6  A    between atoms: C_9  and  C_16
REMARK    7  A    between atoms: C_14  and  C_18
REMARK    8  A    between atoms: C_14  and  C_19
REMARK                            x       y       z     vdW  Elec       q    Type
REMARK                         _______ _______ _______ _____ _____    ______ ____
ROOT
ATOM      6  N   UNL     1      -1.073  -0.872   0.467  0.00  0.00    -0.161 NA
ATOM      7  N   UNL     1       2.527   0.044   0.023  0.00  0.00    -0.330 N 
ATOM      8  N   UNL     1       2.035   1.726   1.409  0.00  0.00    -0.240 NA
ATOM      9  C   UNL     1      -1.517   0.529   0.801  0.00  0.00    +0.194 C 
ATOM     10  C   UNL     1       1.186  -0.028   0.256  0.00  0.00    +0.057 A 
ATOM     11  C   UNL     1       0.222  -0.998  -0.299  0.00  0.00    +0.165 C 
ATOM     12  C   UNL     1      -0.451   1.291   1.619  0.00  0.00    +0.089 C 
ATOM     13  C   UNL     1       0.908   1.015   1.104  0.00  0.00    +0.066 A 
ATOM     15  C   UNL     1       2.994   1.116   0.741  0.00  0.00    +0.200 A 
ENDROOT
BRANCH   6   1
ATOM      1  S   UNL     1      -2.301  -1.978   0.016  0.00  0.00    +0.030 S 
ATOM      3  O   UNL     1      -2.041  -2.436  -1.331  0.00  0.00    -0.158 OA
ATOM      4  O   UNL     1      -3.583  -1.431   0.401  0.00  0.00    -0.158 OA
ATOM     17  C   UNL     1      -1.912  -3.302   1.131  0.00  0.00    +0.215 C 
ENDBRANCH   6   1
BRANCH   7  14
ATOM     14  C   UNL     1       3.316  -0.824  -0.817  0.00  0.00    +0.082 C 
ATOM     18  C   UNL     1       4.384  -1.568  -0.012  0.00  0.00    +0.030 C 
ATOM     19  C   UNL     1       3.946  -0.058  -1.983  0.00  0.00    +0.030 C 
ENDBRANCH   7  14
BRANCH   9  16
ATOM      5  O   UNL     1      -1.749   0.752  -1.581  0.00  0.00    -0.249 OA
ATOM     16  C   UNL     1      -1.867   1.242  -0.466  0.00  0.00    +0.326 C 
BRANCH  16   2
ATOM      2  O   UNL     1      -2.326   2.492  -0.175  0.00  0.00    -0.467 OA
ATOM     20  C   UNL     1      -2.700   3.288  -1.304  0.00  0.00    +0.280 C 
ENDBRANCH  16   2
ENDBRANCH   9  16
TORSDOF 4
