REMARK  Name = 56775489
REMARK  8 active torsions:
REMARK  status: ('A' for Active; 'I' for Inactive)
REMARK    1  A    between atoms: O_4  and  C_19
REMARK    2  A    between atoms: O_4  and  C_27
REMARK    3  A    between atoms: N_5  and  C_7
REMARK    4  A    between atoms: N_5  and  C_11
REMARK    5  A    between atoms: C_7  and  C_10
REMARK    6  A    between atoms: C_10  and  C_12
REMARK    7  A    between atoms: C_11  and  C_13
REMARK    8  A    between atoms: C_15  and  C_18
REMARK                            x       y       z     vdW  Elec       q    Type
REMARK                         _______ _______ _______ _____ _____    ______ ____
ROOT
ATOM      2  O   UNL     1      -2.082  -3.878   1.167  0.00  0.00    -0.376 OA
ATOM      7  C   UNL     1      -1.145  -2.389  -0.042  0.00  0.00    +0.072 C 
ATOM      8  C   UNL     1      -0.845  -3.133   1.254  0.00  0.00    +0.184 C 
ATOM      9  C   UNL     1      -2.382  -3.278  -0.114  0.00  0.00    +0.184 C 
ENDROOT
BRANCH   7   5
ATOM      5  N   UNL     1      -1.562  -1.032   0.282  0.00  0.00    -0.302 NA
ATOM     28  H   UNL     1      -0.842  -0.446   0.703  0.00  0.00    +0.123 HD
BRANCH   5  11
ATOM     11  C   UNL     1      -2.094  -0.379  -0.912  0.00  0.00    +0.117 C 
BRANCH  11  13
ATOM     13  C   UNL     1      -3.055   0.727  -0.565  0.00  0.00    -0.030 A 
ATOM     16  C   UNL     1      -4.351   0.421  -0.150  0.00  0.00    +0.050 A 
ATOM     17  C   UNL     1      -2.649   2.058  -0.660  0.00  0.00    +0.005 A 
ATOM     19  C   UNL     1      -5.241   1.446   0.171  0.00  0.00    +0.120 A 
ATOM     20  C   UNL     1      -3.539   3.083  -0.340  0.00  0.00    +0.004 A 
ATOM     21  C   UNL     1      -4.835   2.777   0.075  0.00  0.00    +0.045 A 
BRANCH  19   4
ATOM      4  O   UNL     1      -6.505   1.147   0.576  0.00  0.00    -0.495 OA
ATOM     27  C   UNL     1      -7.363   2.244   0.888  0.00  0.00    +0.277 C 
ENDBRANCH  19   4
ENDBRANCH  11  13
ENDBRANCH   5  11
ENDBRANCH   7   5
BRANCH   7  10
ATOM     10  C   UNL     1      -0.123  -2.443  -1.186  0.00  0.00    +0.085 C 
BRANCH  10  12
ATOM      3  O   UNL     1       3.185  -1.934   0.060  0.00  0.00    -0.354 OA
ATOM      6  N   UNL     1       2.092  -2.742  -0.228  0.00  0.00    -0.083 NA
ATOM     12  C   UNL     1       1.183  -1.918  -0.757  0.00  0.00    +0.086 A 
ATOM     14  C   UNL     1       1.641  -0.591  -0.827  0.00  0.00    +0.076 A 
ATOM     15  C   UNL     1       2.905  -0.656  -0.301  0.00  0.00    +0.167 A 
BRANCH  15  18
ATOM      1  F   UNL     1       6.957   3.057   0.614  0.00  0.00    -0.205 F 
ATOM     18  C   UNL     1       3.954   0.306  -0.063  0.00  0.00    +0.020 A 
ATOM     22  C   UNL     1       3.762   1.645  -0.403  0.00  0.00    +0.014 A 
ATOM     23  C   UNL     1       5.160  -0.104   0.505  0.00  0.00    +0.014 A 
ATOM     24  C   UNL     1       4.777   2.575  -0.174  0.00  0.00    +0.039 A 
ATOM     25  C   UNL     1       6.174   0.825   0.734  0.00  0.00    +0.039 A 
ATOM     26  C   UNL     1       5.982   2.165   0.395  0.00  0.00    +0.123 A 
ENDBRANCH  15  18
ENDBRANCH  10  12
ENDBRANCH   7  10
TORSDOF 7
