REMARK  Name = 75536515
REMARK  11 active torsions:
REMARK  status: ('A' for Active; 'I' for Inactive)
REMARK    1  A    between atoms: O_2  and  C_10
REMARK    2  A    between atoms: N_5  and  C_8
REMARK    3  A    between atoms: N_5  and  C_9
REMARK    4  A    between atoms: N_7  and  C_17
REMARK    5  A    between atoms: C_11  and  C_17
REMARK    6  A    between atoms: C_18  and  C_22
REMARK    7  A    between atoms: C_19  and  C_20
REMARK    8  A    between atoms: C_19  and  C_23
REMARK    9  A    between atoms: C_19  and  C_24
REMARK   10  A    between atoms: C_19  and  C_25
REMARK   11  A    between atoms: C_20  and  C_21
REMARK                            x       y       z     vdW  Elec       q    Type
REMARK                         _______ _______ _______ _____ _____    ______ ____
ROOT
ATOM      1  O   UNL     1       1.661  -0.040  -0.376  0.00  0.00    -0.371 OA
ATOM      8  C   UNL     1      -0.563  -0.748   0.062  0.00  0.00    +0.111 C 
ATOM     10  C   UNL     1       0.374  -1.931   0.223  0.00  0.00    +0.164 C 
ATOM     11  C   UNL     1       1.705  -1.224   0.437  0.00  0.00    +0.165 C 
ATOM     12  C   UNL     1       0.295   0.206  -0.752  0.00  0.00    +0.181 C 
ENDROOT
BRANCH  10   2
ATOM      2  O   UNL     1       0.031  -2.754   1.321  0.00  0.00    -0.388 OA
ATOM     27  H   UNL     1       0.012  -2.203   2.122  0.00  0.00    +0.210 HD
ENDBRANCH  10   2
BRANCH   8   5
ATOM      5  N   UNL     1      -1.817  -1.082  -0.594  0.00  0.00    -0.306 NA
ATOM     26  H   UNL     1      -2.185  -1.958  -0.225  0.00  0.00    +0.123 HD
BRANCH   5   9
ATOM      3  O   UNL     1      -7.336   0.646   1.494  0.00  0.00    -0.276 OA
ATOM      6  N   UNL     1      -5.521   0.845   0.057  0.00  0.00    -0.302 N 
ATOM      9  C   UNL     1      -2.797  -0.014  -0.413  0.00  0.00    +0.057 C 
ATOM     13  C   UNL     1      -3.448  -0.126   0.971  0.00  0.00    +0.037 C 
ATOM     14  C   UNL     1      -3.863  -0.085  -1.514  0.00  0.00    +0.037 C 
ATOM     15  C   UNL     1      -4.545   0.923   1.145  0.00  0.00    +0.109 C 
ATOM     16  C   UNL     1      -4.952   0.964  -1.291  0.00  0.00    +0.109 C 
ATOM     18  C   UNL     1      -6.878   0.708   0.351  0.00  0.00    +0.212 C 
ATOM     22  C   UNL     1      -7.819   0.631  -0.825  0.00  0.00    +0.109 C 
ENDBRANCH   5   9
ENDBRANCH   8   5
BRANCH  11  17
ATOM     17  C   UNL     1       2.904  -2.071   0.048  0.00  0.00    +0.138 C 
BRANCH  17   7
ATOM      4  O   UNL     1       4.304  -0.369  -1.832  0.00  0.00    -0.276 OA
ATOM      7  N   UNL     1       4.134  -1.364   0.263  0.00  0.00    -0.313 N 
ATOM     21  C   UNL     1       4.740  -0.565  -0.699  0.00  0.00    +0.214 C 
ATOM     28  H   UNL     1       4.571  -1.453   1.175  0.00  0.00    +0.149 HD
BRANCH  21  20
ATOM     20  C   UNL     1       6.039   0.068  -0.228  0.00  0.00    +0.102 C 
BRANCH  20  19
ATOM     19  C   UNL     1       5.884   1.476   0.396  0.00  0.00    -0.029 C 
ATOM     23  C   UNL     1       5.288   2.409  -0.676  0.00  0.00    +0.011 C 
ATOM     24  C   UNL     1       4.934   1.455   1.604  0.00  0.00    +0.011 C 
ATOM     25  C   UNL     1       7.246   2.042   0.830  0.00  0.00    +0.011 C 
ENDBRANCH  20  19
ENDBRANCH  21  20
ENDBRANCH  17   7
ENDBRANCH  11  17
TORSDOF 7
