REMARK  Name = 75537037
REMARK  1 active torsions:
REMARK  status: ('A' for Active; 'I' for Inactive)
REMARK    1  A    between atoms: N_3  and  C_7
REMARK                            x       y       z     vdW  Elec       q    Type
REMARK                         _______ _______ _______ _____ _____    ______ ____
ROOT
ATOM      2  O   UNL     1       4.413   1.197   0.392  0.00  0.00    -0.253 OA
ATOM      3  N   UNL     1      -0.523   0.194  -0.276  0.00  0.00    -0.296 NA
ATOM      4  N   UNL     1       2.279   0.414  -0.217  0.00  0.00    -0.279 N 
ATOM      5  N   UNL     1       3.893  -1.085   0.225  0.00  0.00    -0.297 N 
ATOM      6  C   UNL     1       1.683  -0.867  -0.530  0.00  0.00    +0.109 C 
ATOM      8  C   UNL     1       0.295  -0.975   0.102  0.00  0.00    +0.108 C 
ATOM      9  C   UNL     1       0.106   1.449   0.182  0.00  0.00    +0.104 C 
ATOM     10  C   UNL     1       1.507   1.623  -0.411  0.00  0.00    +0.125 C 
ATOM     11  C   UNL     1       2.705  -1.875  -0.012  0.00  0.00    +0.129 C 
ATOM     14  C   UNL     1       3.622   0.295   0.157  0.00  0.00    +0.303 C 
ATOM     17  H   UNL     1       4.793  -1.471   0.493  0.00  0.00    +0.150 HD
ENDROOT
BRANCH   3   7
ATOM      1  O   UNL     1      -4.703  -0.187  -0.175  0.00  0.00    -0.380 OA
ATOM      7  C   UNL     1      -1.871   0.071   0.274  0.00  0.00    +0.061 C 
ATOM     12  C   UNL     1      -2.741   1.247  -0.180  0.00  0.00    +0.047 C 
ATOM     13  C   UNL     1      -2.519  -1.252  -0.145  0.00  0.00    +0.047 C 
ATOM     15  C   UNL     1      -4.178   1.056   0.291  0.00  0.00    +0.161 C 
ATOM     16  C   UNL     1      -3.969  -1.305   0.324  0.00  0.00    +0.161 C 
ENDBRANCH   3   7
TORSDOF 1
