REMARK  Name = 75536990
REMARK  5 active torsions:
REMARK  status: ('A' for Active; 'I' for Inactive)
REMARK    1  A    between atoms: O_4  and  C_17
REMARK    2  A    between atoms: O_4  and  C_23
REMARK    3  A    between atoms: N_6  and  C_14
REMARK    4  A    between atoms: C_14  and  C_16
REMARK    5  A    between atoms: C_15  and  C_17
REMARK                            x       y       z     vdW  Elec       q    Type
REMARK                         _______ _______ _______ _____ _____    ______ ____
ROOT
ATOM      2  O   UNL     1       3.177  -2.711   1.062  0.00  0.00    -0.252 OA
ATOM      3  O   UNL     1      -3.280  -2.234  -1.493  0.00  0.00    -0.272 OA
ATOM      5  N   UNL     1       1.055  -1.814   0.599  0.00  0.00    -0.278 N 
ATOM      6  N   UNL     1       2.623  -0.453   1.459  0.00  0.00    -0.279 N 
ATOM      7  N   UNL     1      -1.246  -1.297  -0.878  0.00  0.00    -0.295 N 
ATOM      8  C   UNL     1       0.365  -0.555   0.823  0.00  0.00    +0.112 C 
ATOM      9  C   UNL     1       1.485   0.411   1.201  0.00  0.00    +0.133 C 
ATOM     10  C   UNL     1      -0.431  -0.157  -0.418  0.00  0.00    +0.132 C 
ATOM     11  C   UNL     1       0.326  -2.951   0.068  0.00  0.00    +0.128 C 
ATOM     12  C   UNL     1      -0.484  -2.525  -1.153  0.00  0.00    +0.127 C 
ATOM     13  C   UNL     1       2.384  -1.778   1.045  0.00  0.00    +0.306 C 
ATOM     15  C   UNL     1      -2.624  -1.272  -1.083  0.00  0.00    +0.253 C 
ENDROOT
BRANCH   6  14
ATOM     14  C   UNL     1       3.880   0.064   1.954  0.00  0.00    +0.144 C 
BRANCH  14  16
ATOM      1  F   UNL     1       7.033   2.245  -2.170  0.00  0.00    -0.205 F 
ATOM     16  C   UNL     1       4.721   0.645   0.854  0.00  0.00    -0.030 A 
ATOM     18  C   UNL     1       5.625  -0.163   0.165  0.00  0.00    +0.008 A 
ATOM     19  C   UNL     1       4.598   1.994   0.521  0.00  0.00    +0.008 A 
ATOM     20  C   UNL     1       6.406   0.377  -0.856  0.00  0.00    +0.038 A 
ATOM     21  C   UNL     1       5.379   2.535  -0.500  0.00  0.00    +0.038 A 
ATOM     22  C   UNL     1       6.283   1.726  -1.189  0.00  0.00    +0.123 A 
ENDBRANCH  14  16
ENDBRANCH   6  14
BRANCH  15  17
ATOM     17  C   UNL     1      -3.329   0.024  -0.774  0.00  0.00    +0.324 C 
BRANCH  17   4
ATOM      4  O   UNL     1      -4.687  -0.171  -1.086  0.00  0.00    -0.483 OA
BRANCH   4  23
ATOM     23  C   UNL     1      -5.609   0.581  -0.393  0.00  0.00    +0.121 A 
ATOM     24  C   UNL     1      -5.267   1.852   0.068  0.00  0.00    +0.045 A 
ATOM     25  C   UNL     1      -6.886   0.073  -0.153  0.00  0.00    +0.045 A 
ATOM     26  C   UNL     1      -6.201   2.615   0.769  0.00  0.00    +0.004 A 
ATOM     27  C   UNL     1      -7.820   0.835   0.548  0.00  0.00    +0.004 A 
ATOM     28  C   UNL     1      -7.477   2.106   1.009  0.00  0.00    +0.000 A 
ENDBRANCH   4  23
ENDBRANCH  17   4
ENDBRANCH  15  17
TORSDOF 5
