REMARK  Name = 75536641
REMARK  9 active torsions:
REMARK  status: ('A' for Active; 'I' for Inactive)
REMARK    1  A    between atoms: O_3  and  C_9
REMARK    2  A    between atoms: O_5  and  C_21
REMARK    3  A    between atoms: O_5  and  C_27
REMARK    4  A    between atoms: N_6  and  C_8
REMARK    5  A    between atoms: N_6  and  C_13
REMARK    6  A    between atoms: N_7  and  C_12
REMARK    7  A    between atoms: C_10  and  C_12
REMARK    8  A    between atoms: C_13  and  C_14
REMARK    9  A    between atoms: C_15  and  C_18
REMARK                            x       y       z     vdW  Elec       q    Type
REMARK                         _______ _______ _______ _____ _____    ______ ____
ROOT
ATOM      2  O   UNL     1       4.019   1.077   0.890  0.00  0.00    -0.371 OA
ATOM      8  C   UNL     1       3.154  -1.126   0.953  0.00  0.00    +0.111 C 
ATOM      9  C   UNL     1       3.852  -0.936  -0.383  0.00  0.00    +0.164 C 
ATOM     10  C   UNL     1       4.185   0.554  -0.441  0.00  0.00    +0.165 C 
ATOM     11  C   UNL     1       3.767  -0.012   1.786  0.00  0.00    +0.181 C 
ENDROOT
BRANCH   9   3
ATOM      3  O   UNL     1       5.069  -1.686  -0.348  0.00  0.00    -0.388 OA
ATOM     29  H   UNL     1       5.525  -1.537  -1.194  0.00  0.00    +0.210 HD
ENDBRANCH   9   3
BRANCH   8   6
ATOM      6  N   UNL     1       1.708  -0.948   0.835  0.00  0.00    -0.305 NA
ATOM     28  H   UNL     1       1.333  -0.646   1.734  0.00  0.00    +0.123 HD
BRANCH   6  13
ATOM     13  C   UNL     1       1.055  -2.196   0.458  0.00  0.00    +0.116 C 
BRANCH  13  14
ATOM     14  C   UNL     1      -0.434  -2.029   0.316  0.00  0.00    -0.033 A 
ATOM     16  C   UNL     1      -1.010  -1.956  -0.953  0.00  0.00    +0.008 A 
ATOM     17  C   UNL     1      -1.239  -1.946   1.452  0.00  0.00    +0.008 A 
ATOM     19  C   UNL     1      -2.390  -1.801  -1.085  0.00  0.00    +0.046 A 
ATOM     20  C   UNL     1      -2.619  -1.790   1.320  0.00  0.00    +0.046 A 
ATOM     21  C   UNL     1      -3.194  -1.718   0.051  0.00  0.00    +0.120 A 
BRANCH  21   5
ATOM      5  O   UNL     1      -4.540  -1.565  -0.077  0.00  0.00    -0.495 OA
ATOM     27  C   UNL     1      -5.062  -1.499  -1.404  0.00  0.00    +0.277 C 
ENDBRANCH  21   5
ENDBRANCH  13  14
ENDBRANCH   6  13
ENDBRANCH   8   6
BRANCH  10  12
ATOM     12  C   UNL     1       3.285   1.342  -1.381  0.00  0.00    +0.138 C 
BRANCH  12   7
ATOM      4  O   UNL     1       0.691   0.540  -2.314  0.00  0.00    -0.270 OA
ATOM      7  N   UNL     1       2.023   1.640  -0.766  0.00  0.00    -0.309 N 
ATOM     15  C   UNL     1       0.809   1.208  -1.290  0.00  0.00    +0.244 C 
ATOM     30  H   UNL     1       2.044   2.259   0.038  0.00  0.00    +0.149 HD
BRANCH  15  18
ATOM      1  F   UNL     1      -3.799   2.774   1.509  0.00  0.00    -0.205 F 
ATOM     18  C   UNL     1      -0.410   1.623  -0.550  0.00  0.00    +0.037 A 
ATOM     22  C   UNL     1      -1.625   1.752  -1.223  0.00  0.00    +0.016 A 
ATOM     23  C   UNL     1      -0.341   1.883   0.819  0.00  0.00    +0.016 A 
ATOM     24  C   UNL     1      -2.770   2.141  -0.528  0.00  0.00    +0.039 A 
ATOM     25  C   UNL     1      -1.485   2.272   1.514  0.00  0.00    +0.039 A 
ATOM     26  C   UNL     1      -2.700   2.401   0.841  0.00  0.00    +0.123 A 
ENDBRANCH  15  18
ENDBRANCH  12   7
ENDBRANCH  10  12
TORSDOF 8
