REMARK  Name = 11882876
REMARK  5 active torsions:
REMARK  status: ('A' for Active; 'I' for Inactive)
REMARK    1  A    between atoms: O_6  and  C_27
REMARK    2  A    between atoms: O_6  and  C_34
REMARK    3  A    between atoms: N_8  and  C_11
REMARK    4  A    between atoms: C_19  and  C_24
REMARK    5  A    between atoms: C_22  and  C_25
REMARK                            x       y       z     vdW  Elec       q    Type
REMARK                         _______ _______ _______ _____ _____    ______ ____
ROOT
ATOM      3  O   UNL     1       2.091   2.222   1.587  0.00  0.00    -0.273 OA
ATOM      4  O   UNL     1      -1.108   0.949  -2.331  0.00  0.00    -0.270 OA
ATOM      7  N   UNL     1       0.741   0.679  -0.953  0.00  0.00    -0.286 N 
ATOM      9  N   UNL     1      -0.173   1.903   1.581  0.00  0.00    -0.283 N 
ATOM     10  C   UNL     1       1.255   0.318   0.363  0.00  0.00    +0.164 C 
ATOM     11  C   UNL     1       3.628   0.405  -0.613  0.00  0.00    +0.077 C 
ATOM     12  C   UNL     1       2.666  -0.281   0.357  0.00  0.00    +0.054 C 
ATOM     13  C   UNL     1       2.995   0.460  -1.999  0.00  0.00    +0.041 C 
ATOM     14  C   UNL     1       1.675   1.212  -1.949  0.00  0.00    +0.111 C 
ATOM     15  C   UNL     1       1.116   1.573   1.206  0.00  0.00    +0.238 C 
ATOM     16  C   UNL     1      -0.627   0.749  -1.214  0.00  0.00    +0.249 C 
ATOM     17  C   UNL     1      -1.577   0.650  -0.073  0.00  0.00    +0.059 A 
ATOM     18  C   UNL     1      -1.378   1.294   1.162  0.00  0.00    +0.046 A 
ATOM     20  C   UNL     1      -2.816   0.047  -0.350  0.00  0.00    +0.023 A 
ATOM     21  C   UNL     1      -2.450   1.374   2.066  0.00  0.00    +0.024 A 
ATOM     22  C   UNL     1      -3.853   0.094   0.580  0.00  0.00    -0.014 A 
ATOM     23  C   UNL     1      -3.675   0.769   1.782  0.00  0.00    +0.010 A 
ATOM     36  H   UNL     1      -0.254   2.598   2.320  0.00  0.00    +0.155 HD
ENDROOT
BRANCH  22  25
ATOM      1 CL   UNL     1      -6.800  -4.124   0.861  0.00  0.00    -0.084 Cl
ATOM     25  C   UNL     1      -5.121  -0.537   0.284  0.00  0.00    +0.025 A 
ATOM     27  C   UNL     1      -6.134   0.163  -0.374  0.00  0.00    +0.128 A 
ATOM     28  C   UNL     1      -5.329  -1.863   0.666  0.00  0.00    +0.032 A 
ATOM     31  C   UNL     1      -7.350  -0.461  -0.650  0.00  0.00    +0.047 A 
ATOM     32  C   UNL     1      -6.545  -2.488   0.390  0.00  0.00    +0.042 A 
ATOM     33  C   UNL     1      -7.555  -1.787  -0.268  0.00  0.00    +0.023 A 
BRANCH  27   6
ATOM      6  O   UNL     1      -5.960   1.460  -0.758  0.00  0.00    -0.495 OA
ATOM     34  C   UNL     1      -5.422   1.683  -2.059  0.00  0.00    +0.277 C 
ENDBRANCH  27   6
ENDBRANCH  22  25
BRANCH  11   8
ATOM      5  O   UNL     1       5.843   0.914   1.058  0.00  0.00    -0.270 OA
ATOM      8  N   UNL     1       4.894  -0.289  -0.654  0.00  0.00    -0.308 N 
ATOM     19  C   UNL     1       5.942   0.025   0.210  0.00  0.00    +0.251 C 
ATOM     35  H   UNL     1       4.976  -1.062  -1.305  0.00  0.00    +0.149 HD
BRANCH  19  24
ATOM      2  S   UNL     1       8.460  -0.456   1.091  0.00  0.00    -0.092 S 
ATOM     24  C   UNL     1       7.155  -0.792   0.068  0.00  0.00    +0.074 A 
ATOM     26  C   UNL     1       7.366  -1.806  -0.801  0.00  0.00    +0.021 A 
ATOM     29  C   UNL     1       8.672  -2.350  -0.630  0.00  0.00    +0.008 A 
ATOM     30  C   UNL     1       9.373  -1.709   0.366  0.00  0.00    +0.046 A 
ENDBRANCH  19  24
ENDBRANCH  11   8
TORSDOF 4
