REMARK  Name = 26743264
REMARK  13 active torsions:
REMARK  status: ('A' for Active; 'I' for Inactive)
REMARK    1  A    between atoms: N_5  and  C_19
REMARK    2  A    between atoms: N_7  and  C_23
REMARK    3  A    between atoms: C_8  and  C_14
REMARK    4  A    between atoms: C_9  and  C_13
REMARK    5  A    between atoms: C_13  and  C_15
REMARK    6  A    between atoms: C_14  and  C_16
REMARK    7  A    between atoms: C_18  and  C_21
REMARK    8  A    between atoms: C_19  and  C_23
REMARK    9  A    between atoms: C_20  and  C_22
REMARK   10  A    between atoms: C_20  and  C_28
REMARK   11  A    between atoms: C_20  and  C_29
REMARK   12  A    between atoms: C_20  and  C_30
REMARK   13  A    between atoms: C_31  and  C_32
REMARK                            x       y       z     vdW  Elec       q    Type
REMARK                         _______ _______ _______ _____ _____    ______ ____
ROOT
ATOM      4  N   UNL     1       1.641  -1.506   2.436  0.00  0.00    -0.316 NA
ATOM      8  C   UNL     1       2.825   0.840   1.093  0.00  0.00    +0.004 C 
ATOM      9  C   UNL     1       1.325   0.477   0.975  0.00  0.00    +0.012 C 
ATOM     10  C   UNL     1       3.384   0.244   2.396  0.00  0.00    +0.019 C 
ATOM     11  C   UNL     1       1.089  -1.031   1.167  0.00  0.00    +0.085 C 
ATOM     12  C   UNL     1       3.076  -1.246   2.535  0.00  0.00    +0.081 C 
ATOM     33  H   UNL     1       1.473  -2.508   2.523  0.00  0.00    +0.122 HD
ENDROOT
BRANCH   9  13
ATOM     13  C   UNL     1       0.693   0.958  -0.332  0.00  0.00    +0.064 C 
BRANCH  13  15
ATOM      1  O   UNL     1      -2.709   2.007   0.202  0.00  0.00    -0.354 OA
ATOM      6  N   UNL     1      -1.339   2.235   0.196  0.00  0.00    -0.083 NA
ATOM     15  C   UNL     1      -0.797   1.082  -0.206  0.00  0.00    +0.085 A 
ATOM     17  C   UNL     1      -1.768   0.099  -0.466  0.00  0.00    +0.076 A 
ATOM     18  C   UNL     1      -2.953   0.731  -0.194  0.00  0.00    +0.167 A 
BRANCH  18  21
ATOM     21  C   UNL     1      -4.334   0.347  -0.238  0.00  0.00    +0.020 A 
ATOM     22  C   UNL     1      -7.020  -0.401  -0.321  0.00  0.00    -0.042 A 
ATOM     24  C   UNL     1      -4.686  -0.944  -0.632  0.00  0.00    +0.012 A 
ATOM     25  C   UNL     1      -5.324   1.264   0.115  0.00  0.00    +0.012 A 
ATOM     26  C   UNL     1      -6.029  -1.317  -0.674  0.00  0.00    +0.005 A 
ATOM     27  C   UNL     1      -6.667   0.890   0.073  0.00  0.00    +0.005 A 
BRANCH  22  20
ATOM     20  C   UNL     1      -8.456  -0.801  -0.366  0.00  0.00    -0.013 C 
ATOM     28  C   UNL     1      -8.739  -2.001   0.589  0.00  0.00    +0.015 C 
ATOM     29  C   UNL     1      -8.878  -1.234  -1.804  0.00  0.00    +0.015 C 
ATOM     30  C   UNL     1      -9.476   0.311   0.049  0.00  0.00    +0.015 C 
ENDBRANCH  22  20
ENDBRANCH  18  21
ENDBRANCH  13  15
ENDBRANCH   9  13
BRANCH   8  14
ATOM     14  C   UNL     1       3.668   0.406  -0.111  0.00  0.00    +0.099 C 
BRANCH  14  16
ATOM      2  O   UNL     1       5.284   2.073   0.570  0.00  0.00    -0.276 OA
ATOM      5  N   UNL     1       5.717   0.761  -1.299  0.00  0.00    -0.314 N 
ATOM     16  C   UNL     1       4.963   1.184  -0.214  0.00  0.00    +0.213 C 
ATOM     34  H   UNL     1       5.365   0.010  -1.885  0.00  0.00    +0.149 HD
BRANCH   5  19
ATOM     19  C   UNL     1       7.000   1.332  -1.638  0.00  0.00    +0.123 C 
BRANCH  19  23
ATOM     23  C   UNL     1       8.146   0.604  -0.955  0.00  0.00    +0.123 C 
BRANCH  23   7
ATOM      3  O   UNL     1       6.834  -1.645   0.329  0.00  0.00    -0.276 OA
ATOM      7  N   UNL     1       8.213  -0.781  -1.336  0.00  0.00    -0.314 N 
ATOM     31  C   UNL     1       7.548  -1.794  -0.659  0.00  0.00    +0.210 C 
ATOM     32  C   UNL     1       7.770  -3.146  -1.282  0.00  0.00    +0.109 C 
ATOM     35  H   UNL     1       8.766  -1.018  -2.155  0.00  0.00    +0.149 HD
ENDBRANCH  23   7
ENDBRANCH  19  23
ENDBRANCH   5  19
ENDBRANCH  14  16
ENDBRANCH   8  14
TORSDOF 9
