REMARK  Name = 11882867
REMARK  9 active torsions:
REMARK  status: ('A' for Active; 'I' for Inactive)
REMARK    1  A    between atoms: O_3  and  C_15
REMARK    2  A    between atoms: O_4  and  C_20
REMARK    3  A    between atoms: N_8  and  C_26
REMARK    4  A    between atoms: C_10  and  C_18
REMARK    5  A    between atoms: C_12  and  C_20
REMARK    6  A    between atoms: C_12  and  C_21
REMARK    7  A    between atoms: C_13  and  C_23
REMARK    8  A    between atoms: C_23  and  C_24
REMARK    9  A    between atoms: C_27  and  C_30
REMARK                            x       y       z     vdW  Elec       q    Type
REMARK                         _______ _______ _______ _____ _____    ______ ____
ROOT
ATOM      1  S   UNL     1      -0.493   2.813   0.321  0.00  0.00    -0.057 S 
ATOM      6  O   UNL     1       3.046  -0.141  -0.328  0.00  0.00    -0.270 OA
ATOM      7  N   UNL     1       0.135   0.346  -0.137  0.00  0.00    -0.229 NA
ATOM      9  N   UNL     1       1.956   1.910   0.076  0.00  0.00    -0.261 N 
ATOM     10  C   UNL     1      -3.599  -0.539   0.248  0.00  0.00    -0.019 C 
ATOM     11  C   UNL     1      -4.072   0.877  -0.306  0.00  0.00    +0.011 C 
ATOM     12  C   UNL     1      -5.621   1.175  -0.276  0.00  0.00    +0.021 C 
ATOM     13  C   UNL     1      -2.109  -0.798  -0.271  0.00  0.00    +0.054 C 
ATOM     14  C   UNL     1      -4.516  -1.650  -0.326  0.00  0.00    +0.010 C 
ATOM     15  C   UNL     1      -6.390  -0.053  -0.840  0.00  0.00    +0.123 C 
ATOM     16  C   UNL     1      -3.200   2.032   0.267  0.00  0.00    +0.049 C 
ATOM     17  C   UNL     1      -6.003  -1.365  -0.167  0.00  0.00    +0.032 C 
ATOM     18  C   UNL     1      -3.626  -0.621   1.794  0.00  0.00    +0.012 C 
ATOM     19  C   UNL     1      -1.244   0.418  -0.064  0.00  0.00    +0.058 A 
ATOM     21  C   UNL     1      -5.923   2.380  -1.212  0.00  0.00    +0.016 C 
ATOM     22  C   UNL     1      -1.754   1.681   0.157  0.00  0.00    +0.015 A 
ATOM     25  C   UNL     1       0.636   1.546   0.059  0.00  0.00    +0.165 A 
ATOM     27  C   UNL     1       3.063   1.066  -0.114  0.00  0.00    +0.250 C 
ATOM     42  H   UNL     1       2.097   2.907   0.200  0.00  0.00    +0.157 HD
ENDROOT
BRANCH  27  30
ATOM      2  F   UNL     1       8.042   3.588   0.032  0.00  0.00    -0.205 F 
ATOM     30  C   UNL     1       4.389   1.737  -0.074  0.00  0.00    +0.037 A 
ATOM     33  C   UNL     1       5.438   1.178  -0.773  0.00  0.00    +0.016 A 
ATOM     34  C   UNL     1       4.526   2.897   0.659  0.00  0.00    +0.016 A 
ATOM     36  C   UNL     1       6.682   1.809  -0.737  0.00  0.00    +0.039 A 
ATOM     37  C   UNL     1       5.770   3.528   0.695  0.00  0.00    +0.039 A 
ATOM     38  C   UNL     1       6.848   2.983  -0.003  0.00  0.00    +0.123 A 
ENDBRANCH  27  30
BRANCH  15   3
ATOM      3  O   UNL     1      -7.799   0.133  -0.708  0.00  0.00    -0.391 OA
ATOM     39  H   UNL     1      -8.085   0.762  -1.389  0.00  0.00    +0.210 HD
ENDBRANCH  15   3
BRANCH  12  20
ATOM     20  C   UNL     1      -6.169   1.579   1.111  0.00  0.00    +0.165 C 
BRANCH  20   4
ATOM      4  O   UNL     1      -7.551   1.822   0.974  0.00  0.00    -0.394 OA
ATOM     40  H   UNL     1      -7.670   2.752   0.717  0.00  0.00    +0.209 HD
ENDBRANCH  20   4
ENDBRANCH  12  20
BRANCH  13  23
ATOM     23  C   UNL     1      -1.447  -2.062   0.295  0.00  0.00    +0.106 C 
BRANCH  23  24
ATOM      5  O   UNL     1       0.155  -2.024  -1.503  0.00  0.00    -0.275 OA
ATOM      8  N   UNL     1       0.735  -2.977   0.565  0.00  0.00    -0.285 N 
ATOM     24  C   UNL     1      -0.103  -2.339  -0.345  0.00  0.00    +0.218 C 
ATOM     41  H   UNL     1       0.365  -3.178   1.491  0.00  0.00    +0.155 HD
BRANCH   8  26
ATOM     26  C   UNL     1       2.068  -3.405   0.357  0.00  0.00    +0.033 A 
ATOM     28  C   UNL     1       2.748  -4.028   1.390  0.00  0.00    +0.023 A 
ATOM     29  C   UNL     1       2.664  -3.191  -0.875  0.00  0.00    +0.023 A 
ATOM     31  C   UNL     1       4.062  -4.450   1.185  0.00  0.00    +0.002 A 
ATOM     32  C   UNL     1       3.978  -3.613  -1.079  0.00  0.00    +0.002 A 
ATOM     35  C   UNL     1       4.677  -4.242  -0.049  0.00  0.00    +0.000 A 
ENDBRANCH   8  26
ENDBRANCH  23  24
ENDBRANCH  13  23
TORSDOF 7
