REMARK  Name = 25390190
REMARK  10 active torsions:
REMARK  status: ('A' for Active; 'I' for Inactive)
REMARK    1  A    between atoms: O_3  and  C_9
REMARK    2  A    between atoms: O_4  and  C_10
REMARK    3  A    between atoms: N_7  and  C_14
REMARK    4  A    between atoms: N_8  and  C_17
REMARK    5  A    between atoms: C_11  and  C_13
REMARK    6  A    between atoms: C_12  and  C_14
REMARK    7  A    between atoms: C_13  and  C_15
REMARK    8  A    between atoms: C_16  and  C_18
REMARK    9  A    between atoms: C_17  and  C_19
REMARK   10  A    between atoms: C_26  and  C_30
REMARK                            x       y       z     vdW  Elec       q    Type
REMARK                         _______ _______ _______ _____ _____    ______ ____
ROOT
ATOM      2  O   UNL     1      -2.534  -0.420   0.499  0.00  0.00    -0.366 OA
ATOM      9  C   UNL     1      -4.691  -0.569  -0.439  0.00  0.00    +0.175 C 
ATOM     10  C   UNL     1      -4.508  -1.747   0.495  0.00  0.00    +0.176 C 
ATOM     11  C   UNL     1      -3.640   0.397   0.079  0.00  0.00    +0.158 C 
ATOM     12  C   UNL     1      -2.993  -1.781   0.670  0.00  0.00    +0.167 C 
ENDROOT
BRANCH   9   3
ATOM      3  O   UNL     1      -5.989  -0.015  -0.393  0.00  0.00    -0.387 OA
ATOM     31  H   UNL     1      -6.615  -0.722  -0.626  0.00  0.00    +0.210 HD
ENDBRANCH   9   3
BRANCH  10   4
ATOM      4  O   UNL     1      -5.094  -1.468   1.765  0.00  0.00    -0.387 OA
ATOM     32  H   UNL     1      -4.920  -2.233   2.340  0.00  0.00    +0.210 HD
ENDBRANCH  10   4
BRANCH  11  13
ATOM     13  C   UNL     1      -3.171   1.395  -0.965  0.00  0.00    +0.130 C 
BRANCH  13  15
ATOM      5  O   UNL     1      -2.988   3.614  -0.021  0.00  0.00    -0.276 OA
ATOM      8  N   UNL     1      -1.075   2.313  -0.236  0.00  0.00    -0.311 N 
ATOM     15  C   UNL     1      -2.432   2.572  -0.356  0.00  0.00    +0.216 C 
ATOM     34  H   UNL     1      -0.722   1.407  -0.533  0.00  0.00    +0.149 HD
BRANCH   8  17
ATOM     17  C   UNL     1      -0.135   3.265   0.312  0.00  0.00    +0.139 C 
BRANCH  17  19
ATOM      1  F   UNL     1       5.121   1.247   0.362  0.00  0.00    -0.205 F 
ATOM     19  C   UNL     1       1.266   2.727   0.325  0.00  0.00    -0.030 A 
ATOM     22  C   UNL     1       1.733   2.023   1.436  0.00  0.00    +0.008 A 
ATOM     23  C   UNL     1       2.102   2.930  -0.773  0.00  0.00    +0.008 A 
ATOM     27  C   UNL     1       3.035   1.524   1.448  0.00  0.00    +0.038 A 
ATOM     28  C   UNL     1       3.404   2.430  -0.760  0.00  0.00    +0.038 A 
ATOM     29  C   UNL     1       3.871   1.727   0.350  0.00  0.00    +0.123 A 
ENDBRANCH  17  19
ENDBRANCH   8  17
ENDBRANCH  13  15
ENDBRANCH  11  13
BRANCH  12  14
ATOM     14  C   UNL     1      -2.292  -2.643  -0.371  0.00  0.00    +0.138 C 
BRANCH  14   7
ATOM      6  O   UNL     1      -0.400  -0.814  -1.519  0.00  0.00    -0.270 OA
ATOM      7  N   UNL     1      -0.873  -2.643  -0.172  0.00  0.00    -0.309 N 
ATOM     16  C   UNL     1      -0.027  -1.714  -0.771  0.00  0.00    +0.244 C 
ATOM     33  H   UNL     1      -0.493  -3.396   0.392  0.00  0.00    +0.149 HD
BRANCH  16  18
ATOM     18  C   UNL     1       1.423  -1.865  -0.486  0.00  0.00    +0.037 A 
ATOM     20  C   UNL     1       2.367  -1.410  -1.406  0.00  0.00    +0.013 A 
ATOM     21  C   UNL     1       1.841  -2.462   0.704  0.00  0.00    +0.013 A 
ATOM     24  C   UNL     1       3.729  -1.553  -1.138  0.00  0.00    +0.004 A 
ATOM     25  C   UNL     1       3.202  -2.606   0.972  0.00  0.00    +0.004 A 
ATOM     26  C   UNL     1       4.146  -2.151   0.051  0.00  0.00    -0.050 A 
ATOM     30  C   UNL     1       5.602  -2.303   0.338  0.00  0.00    +0.044 C 
ENDBRANCH  16  18
ENDBRANCH  14   7
ENDBRANCH  12  14
TORSDOF 9
