REMARK  Name = 75366957
REMARK  11 active torsions:
REMARK  status: ('A' for Active; 'I' for Inactive)
REMARK    1  A    between atoms: O_2  and  C_11
REMARK    2  A    between atoms: O_5  and  C_21
REMARK    3  A    between atoms: O_5  and  C_24
REMARK    4  A    between atoms: N_6  and  C_15
REMARK    5  A    between atoms: N_8  and  C_20
REMARK    6  A    between atoms: C_9  and  C_15
REMARK    7  A    between atoms: C_10  and  C_14
REMARK    8  A    between atoms: C_14  and  C_16
REMARK    9  A    between atoms: C_19  and  C_21
REMARK   10  A    between atoms: C_20  and  C_22
REMARK   11  A    between atoms: C_20  and  C_23
REMARK                            x       y       z     vdW  Elec       q    Type
REMARK                         _______ _______ _______ _____ _____    ______ ____
ROOT
ATOM      1  O   UNL     1       2.048  -0.023   0.686  0.00  0.00    -0.369 OA
ATOM      9  C   UNL     1       2.402   1.293   0.240  0.00  0.00    +0.164 C 
ATOM     10  C   UNL     1       2.497  -1.091  -0.153  0.00  0.00    +0.125 C 
ATOM     11  C   UNL     1       3.917   1.425   0.036  0.00  0.00    +0.145 C 
ATOM     12  C   UNL     1       4.018  -1.067  -0.288  0.00  0.00    +0.034 C 
ATOM     13  C   UNL     1       4.492   0.288  -0.805  0.00  0.00    +0.036 C 
ENDROOT
BRANCH  11   2
ATOM      2  O   UNL     1       4.559   1.389   1.313  0.00  0.00    -0.389 OA
ATOM     25  H   UNL     1       5.511   1.521   1.168  0.00  0.00    +0.210 HD
ENDBRANCH  11   2
BRANCH  10  14
ATOM     14  C   UNL     1       2.028  -2.396   0.477  0.00  0.00    +0.090 C 
BRANCH  14  16
ATOM      3  O   UNL     1      -1.187  -3.388  -0.815  0.00  0.00    -0.357 OA
ATOM      7  N   UNL     1       0.200  -3.333  -0.878  0.00  0.00    -0.083 NA
ATOM     16  C   UNL     1       0.569  -2.652   0.211  0.00  0.00    +0.086 A 
ATOM     17  C   UNL     1      -0.532  -2.256   0.990  0.00  0.00    +0.073 A 
ATOM     19  C   UNL     1      -1.611  -2.743   0.301  0.00  0.00    +0.163 A 
BRANCH  19  21
ATOM     21  C   UNL     1      -3.061  -2.705   0.525  0.00  0.00    +0.236 C 
BRANCH  21   5
ATOM      5  O   UNL     1      -3.675  -1.762  -0.358  0.00  0.00    -0.375 OA
ATOM     24  C   UNL     1      -5.078  -1.710  -0.158  0.00  0.00    +0.194 C 
ENDBRANCH  21   5
ENDBRANCH  19  21
ENDBRANCH  14  16
ENDBRANCH  10  14
BRANCH   9  15
ATOM     15  C   UNL     1       1.597   1.690  -0.996  0.00  0.00    +0.140 C 
BRANCH  15   6
ATOM      4  O   UNL     1      -0.203   3.689   0.048  0.00  0.00    -0.253 OA
ATOM      6  N   UNL     1       0.193   1.547  -0.761  0.00  0.00    -0.297 N 
ATOM      8  N   UNL     1      -1.941   2.162  -0.122  0.00  0.00    -0.297 N 
ATOM     18  C   UNL     1      -0.616   2.569  -0.250  0.00  0.00    +0.300 C 
ATOM     26  H   UNL     1      -0.238   0.649  -0.961  0.00  0.00    +0.150 HD
ATOM     27  H   UNL     1      -2.198   1.240  -0.463  0.00  0.00    +0.150 HD
BRANCH   8  20
ATOM     20  C   UNL     1      -2.980   3.028   0.383  0.00  0.00    +0.068 C 
ATOM     22  C   UNL     1      -3.603   3.833  -0.751  0.00  0.00    +0.027 C 
ATOM     23  C   UNL     1      -4.033   2.215   1.125  0.00  0.00    +0.027 C 
ENDBRANCH   8  20
ENDBRANCH  15   6
ENDBRANCH   9  15
TORSDOF 8
