REMARK  Name = 45783538
REMARK  7 active torsions:
REMARK  status: ('A' for Active; 'I' for Inactive)
REMARK    1  A    between atoms: S_1  and  C_35
REMARK    2  A    between atoms: S_1  and  C_36
REMARK    3  A    between atoms: N_6  and  C_16
REMARK    4  A    between atoms: C_12  and  C_20
REMARK    5  A    between atoms: C_16  and  C_23
REMARK    6  A    between atoms: C_17  and  C_25
REMARK    7  A    between atoms: C_26  and  C_29
REMARK                            x       y       z     vdW  Elec       q    Type
REMARK                         _______ _______ _______ _____ _____    ______ ____
ROOT
ATOM      2  O   UNL     1      -3.272   1.589   1.334  0.00  0.00    -0.336 OA
ATOM      8  N   UNL     1      -2.003   1.621  -0.511  0.00  0.00    -0.190 NA
ATOM      9  N   UNL     1      -1.950   1.424   1.768  0.00  0.00    -0.056 NA
ATOM     20  C   UNL     1      -3.213   1.697  -0.019  0.00  0.00    +0.245 A 
ATOM     26  C   UNL     1      -1.262   1.453   0.622  0.00  0.00    +0.204 A 
ENDROOT
BRANCH  26  29
ATOM      7  N   UNL     1       4.269   0.932   0.349  0.00  0.00    -0.315 N 
ATOM     10  N   UNL     1       2.189   1.228  -0.743  0.00  0.00    -0.240 NA
ATOM     17  C   UNL     1       7.157   0.700   0.170  0.00  0.00    +0.078 C 
ATOM     18  C   UNL     1       6.356  -0.015   1.256  0.00  0.00    +0.031 C 
ATOM     19  C   UNL     1       6.409   1.923  -0.357  0.00  0.00    +0.031 C 
ATOM     21  C   UNL     1       4.902  -0.286   0.862  0.00  0.00    +0.107 C 
ATOM     22  C   UNL     1       4.965   1.613  -0.749  0.00  0.00    +0.107 C 
ATOM     24  C   UNL     1       2.876   1.063   0.410  0.00  0.00    +0.121 A 
ATOM     29  C   UNL     1       0.164   1.317   0.576  0.00  0.00    +0.041 A 
ATOM     30  C   UNL     1       2.288   1.017   1.664  0.00  0.00    +0.044 A 
ATOM     31  C   UNL     1       0.906   1.147   1.740  0.00  0.00    +0.016 A 
ATOM     34  C   UNL     1       0.847   1.350  -0.629  0.00  0.00    +0.124 A 
BRANCH  17  25
ATOM      3  O   UNL     1       7.143  -1.402  -0.972  0.00  0.00    -0.276 OA
ATOM     11  N   UNL     1       8.278   0.352  -1.935  0.00  0.00    -0.329 N 
ATOM     25  C   UNL     1       7.507  -0.229  -0.956  0.00  0.00    +0.214 C 
ATOM     37  H   UNL     1       8.573  -0.181  -2.746  0.00  0.00    +0.145 HD
ATOM     38  H   UNL     1       8.621   1.305  -1.875  0.00  0.00    +0.145 HD
ENDBRANCH  17  25
ENDBRANCH  26  29
BRANCH  20  12
ATOM      6  N   UNL     1      -5.492   0.801  -0.460  0.00  0.00    -0.287 NA
ATOM     12  C   UNL     1      -4.532   1.887  -0.738  0.00  0.00    +0.146 C 
ATOM     13  C   UNL     1      -5.263   3.174  -0.310  0.00  0.00    +0.030 C 
ATOM     14  C   UNL     1      -6.644   2.717   0.136  0.00  0.00    +0.017 C 
ATOM     15  C   UNL     1      -6.827   1.390  -0.572  0.00  0.00    +0.085 C 
BRANCH   6  16
ATOM     16  C   UNL     1      -5.326  -0.351  -1.336  0.00  0.00    +0.120 C 
BRANCH  16  23
ATOM     23  C   UNL     1      -4.187  -1.231  -0.896  0.00  0.00    -0.033 A 
ATOM     27  C   UNL     1      -3.124  -1.483  -1.765  0.00  0.00    +0.007 A 
ATOM     28  C   UNL     1      -4.192  -1.794   0.380  0.00  0.00    +0.007 A 
ATOM     32  C   UNL     1      -2.069  -2.298  -1.357  0.00  0.00    +0.027 A 
ATOM     33  C   UNL     1      -3.137  -2.609   0.788  0.00  0.00    +0.027 A 
ATOM     35  C   UNL     1      -2.075  -2.861  -0.081  0.00  0.00    +0.088 A 
BRANCH  35   1
ATOM      1  S   UNL     1      -0.751  -3.878   0.431  0.00  0.00    -0.006 S 
ATOM      4  O   UNL     1      -1.218  -4.765   1.488  0.00  0.00    -0.170 OA
ATOM      5  O   UNL     1      -0.131  -4.439  -0.761  0.00  0.00    -0.170 OA
ATOM     36  C   UNL     1       0.410  -2.754   1.174  0.00  0.00    +0.200 C 
ENDBRANCH  35   1
ENDBRANCH  16  23
ENDBRANCH   6  16
ENDBRANCH  20  12
TORSDOF 6
