REMARK  Name = 75536880
REMARK  4 active torsions:
REMARK  status: ('A' for Active; 'I' for Inactive)
REMARK    1  A    between atoms: O_2  and  C_7
REMARK    2  A    between atoms: O_2  and  C_14
REMARK    3  A    between atoms: C_12  and  C_13
REMARK    4  A    between atoms: C_16  and  C_17
REMARK                            x       y       z     vdW  Elec       q    Type
REMARK                         _______ _______ _______ _____ _____    ______ ____
ROOT
ATOM      1  O   UNL     1      -3.570  -0.795  -0.643  0.00  0.00    -0.376 OA
ATOM      3  O   UNL     1       0.707  -2.683   0.563  0.00  0.00    -0.268 OA
ATOM      5  N   UNL     1      -0.682  -0.795   0.576  0.00  0.00    -0.291 N 
ATOM      7  C   UNL     1      -2.243   1.145   0.013  0.00  0.00    +0.161 C 
ATOM      8  C   UNL     1      -0.836   0.648   0.358  0.00  0.00    +0.142 C 
ATOM      9  C   UNL     1      -1.868  -1.575   0.935  0.00  0.00    +0.136 C 
ATOM     10  C   UNL     1      -2.895   0.362  -1.125  0.00  0.00    +0.193 C 
ATOM     11  C   UNL     1      -2.716  -1.880  -0.293  0.00  0.00    +0.179 C 
ATOM     12  C   UNL     1       0.539  -1.472   0.421  0.00  0.00    +0.268 C 
ENDROOT
BRANCH  12  13
ATOM      4  O   UNL     1       3.440  -0.048  -1.099  0.00  0.00    -0.359 OA
ATOM      6  N   UNL     1       2.389  -0.957  -1.070  0.00  0.00    -0.073 NA
ATOM     13  C   UNL     1       1.731  -0.688   0.061  0.00  0.00    +0.168 A 
ATOM     15  C   UNL     1       2.314   0.369   0.780  0.00  0.00    +0.080 A 
ATOM     16  C   UNL     1       3.385   0.736   0.008  0.00  0.00    +0.135 A 
ATOM     17  C   UNL     1       4.429   1.759   0.139  0.00  0.00    +0.089 C 
ENDBRANCH  12  13
BRANCH   7   2
ATOM      2  O   UNL     1      -2.113   2.512  -0.377  0.00  0.00    -0.376 OA
ATOM     14  C   UNL     1      -2.012   3.363   0.754  0.00  0.00    +0.194 C 
ENDBRANCH   7   2
TORSDOF 2
