REMARK  Name = 11885206
REMARK  4 active torsions:
REMARK  status: ('A' for Active; 'I' for Inactive)
REMARK    1  A    between atoms: S_1  and  C_30
REMARK    2  A    between atoms: S_1  and  C_31
REMARK    3  A    between atoms: C_16  and  C_19
REMARK    4  A    between atoms: C_17  and  C_20
REMARK                            x       y       z     vdW  Elec       q    Type
REMARK                         _______ _______ _______ _____ _____    ______ ____
ROOT
ATOM      3  O   UNL     1      -1.181  -2.313   1.338  0.00  0.00    -0.267 OA
ATOM      4  O   UNL     1       2.971   0.390   2.568  0.00  0.00    -0.270 OA
ATOM      5  N   UNL     1       3.427  -0.641   0.518  0.00  0.00    -0.297 N 
ATOM      6  N   UNL     1       0.667  -2.061  -0.063  0.00  0.00    -0.311 N 
ATOM      7  C   UNL     1       2.955  -3.081   0.478  0.00  0.00    +0.027 C 
ATOM      8  C   UNL     1       2.660  -1.745  -1.569  0.00  0.00    +0.054 C 
ATOM      9  C   UNL     1       3.152  -3.089  -1.034  0.00  0.00    +0.018 C 
ATOM     10  C   UNL     1       3.757  -1.933   1.118  0.00  0.00    +0.113 C 
ATOM     11  C   UNL     1       1.454  -2.975   0.779  0.00  0.00    +0.130 C 
ATOM     12  C   UNL     1       3.497  -0.606  -0.952  0.00  0.00    +0.117 C 
ATOM     13  C   UNL     1       1.195  -1.531  -1.242  0.00  0.00    +0.027 A 
ATOM     14  C   UNL     1       0.420  -0.799  -2.059  0.00  0.00    +0.022 A 
ATOM     15  C   UNL     1      -0.668  -1.837   0.324  0.00  0.00    +0.259 A 
ATOM     16  C   UNL     1       3.030   0.417   1.340  0.00  0.00    +0.247 C 
ATOM     17  C   UNL     1      -1.498  -0.973  -0.588  0.00  0.00    +0.047 A 
ATOM     18  C   UNL     1      -0.945  -0.514  -1.720  0.00  0.00    +0.015 A 
ENDROOT
BRANCH  16  19
ATOM      2  F   UNL     1       1.470   5.201  -1.097  0.00  0.00    -0.205 F 
ATOM     19  C   UNL     1       2.621   1.672   0.700  0.00  0.00    +0.037 A 
ATOM     21  C   UNL     1       1.287   1.870   0.354  0.00  0.00    +0.016 A 
ATOM     22  C   UNL     1       3.568   2.659   0.442  0.00  0.00    +0.016 A 
ATOM     25  C   UNL     1       0.897   3.063  -0.254  0.00  0.00    +0.039 A 
ATOM     26  C   UNL     1       3.179   3.853  -0.166  0.00  0.00    +0.039 A 
ATOM     29  C   UNL     1       1.843   4.055  -0.513  0.00  0.00    +0.123 A 
ENDBRANCH  16  19
BRANCH  17  20
ATOM     20  C   UNL     1      -2.886  -0.618  -0.247  0.00  0.00    -0.013 A 
ATOM     23  C   UNL     1      -3.939  -1.427  -0.674  0.00  0.00    +0.010 A 
ATOM     24  C   UNL     1      -3.149   0.528   0.504  0.00  0.00    +0.010 A 
ATOM     27  C   UNL     1      -5.253  -1.091  -0.352  0.00  0.00    +0.015 A 
ATOM     28  C   UNL     1      -4.463   0.865   0.827  0.00  0.00    +0.015 A 
ATOM     30  C   UNL     1      -5.516   0.056   0.399  0.00  0.00    +0.008 A 
BRANCH  30   1
ATOM      1  S   UNL     1      -7.195   0.486   0.809  0.00  0.00    -0.129 S 
ATOM     31  C   UNL     1      -7.358   2.119   0.033  0.00  0.00    +0.090 C 
ENDBRANCH  30   1
ENDBRANCH  17  20
TORSDOF 3
