REMARK  Name = 7142828
REMARK  2 active torsions:
REMARK  status: ('A' for Active; 'I' for Inactive)
REMARK    1  A    between atoms: N_8  and  C_20
REMARK    2  A    between atoms: N_9  and  C_26
REMARK                            x       y       z     vdW  Elec       q    Type
REMARK                         _______ _______ _______ _____ _____    ______ ____
ROOT
ATOM      2  O   UNL     1      -0.307  -1.872  -2.123  0.00  0.00    -0.266 OA
ATOM      4  N   UNL     1      -4.261   0.270   0.134  0.00  0.00    -0.299 N 
ATOM      5  N   UNL     1      -1.863  -1.785  -0.383  0.00  0.00    -0.310 N 
ATOM      6  N   UNL     1      -4.148   2.451   1.024  0.00  0.00    -0.223 NA
ATOM      7  N   UNL     1      -4.401   2.102  -1.346  0.00  0.00    -0.223 NA
ATOM     10  C   UNL     1      -4.381  -2.050  -0.759  0.00  0.00    +0.027 C 
ATOM     11  C   UNL     1      -3.525  -1.657   1.506  0.00  0.00    +0.054 C 
ATOM     12  C   UNL     1      -4.405  -2.578   0.668  0.00  0.00    +0.018 C 
ATOM     13  C   UNL     1      -4.935  -0.614  -0.824  0.00  0.00    +0.113 C 
ATOM     14  C   UNL     1      -2.950  -2.145  -1.302  0.00  0.00    +0.130 C 
ATOM     15  C   UNL     1      -4.119  -0.234   1.508  0.00  0.00    +0.117 C 
ATOM     16  C   UNL     1      -2.100  -1.623   0.985  0.00  0.00    +0.027 A 
ATOM     17  C   UNL     1      -1.075  -1.411   1.828  0.00  0.00    +0.024 A 
ATOM     18  C   UNL     1      -0.566  -1.718  -0.929  0.00  0.00    +0.273 A 
ATOM     19  C   UNL     1      -4.271   1.652  -0.069  0.00  0.00    +0.218 A 
ATOM     20  C   UNL     1       0.546  -1.454   0.039  0.00  0.00    +0.100 A 
ATOM     21  C   UNL     1       0.273  -1.323   1.342  0.00  0.00    +0.030 A 
ATOM     22  C   UNL     1      -4.160   3.780   0.792  0.00  0.00    +0.116 A 
ATOM     23  C   UNL     1      -4.406   3.442  -1.506  0.00  0.00    +0.116 A 
ATOM     25  C   UNL     1      -4.288   4.338  -0.463  0.00  0.00    +0.039 A 
ENDROOT
BRANCH  20   8
ATOM      3  O   UNL     1       2.663   0.097   1.135  0.00  0.00    -0.252 OA
ATOM      8  N   UNL     1       1.815  -1.366  -0.452  0.00  0.00    -0.265 N 
ATOM      9  N   UNL     1       4.008  -0.709  -0.611  0.00  0.00    -0.269 N 
ATOM     24  C   UNL     1       2.825  -0.586   0.126  0.00  0.00    +0.308 C 
ATOM     32  H   UNL     1       1.962  -1.682  -1.407  0.00  0.00    +0.157 HD
ATOM     33  H   UNL     1       3.976  -1.321  -1.423  0.00  0.00    +0.156 HD
BRANCH   9  26
ATOM      1 CL   UNL     1       9.212   1.886   0.419  0.00  0.00    -0.084 Cl
ATOM     26  C   UNL     1       5.255  -0.088  -0.364  0.00  0.00    +0.035 A 
ATOM     27  C   UNL     1       6.318  -0.338  -1.216  0.00  0.00    +0.025 A 
ATOM     28  C   UNL     1       5.387   0.758   0.725  0.00  0.00    +0.025 A 
ATOM     29  C   UNL     1       7.547   0.275  -0.973  0.00  0.00    +0.022 A 
ATOM     30  C   UNL     1       6.616   1.371   0.968  0.00  0.00    +0.022 A 
ATOM     31  C   UNL     1       7.696   1.130   0.119  0.00  0.00    +0.041 A 
ENDBRANCH   9  26
ENDBRANCH  20   8
TORSDOF 2
