REMARK  Name = 51137116
REMARK  3 active torsions:
REMARK  status: ('A' for Active; 'I' for Inactive)
REMARK    1  A    between atoms: N_1  and  C_9
REMARK    2  A    between atoms: C_5  and  C_10
REMARK    3  A    between atoms: C_9  and  C_11
REMARK                            x       y       z     vdW  Elec       q    Type
REMARK                         _______ _______ _______ _____ _____    ______ ____
ROOT
ATOM      1  N   UNL     1      -0.915   0.241  -0.001  0.00  0.00    -0.297 NA
ATOM      5  C   UNL     1       1.224  -0.458   0.660  0.00  0.00    +0.070 C 
ATOM      6  C   UNL     1       0.332  -0.271  -0.575  0.00  0.00    +0.096 C 
ATOM      7  C   UNL     1       0.658   0.522   1.702  0.00  0.00    +0.028 C 
ATOM      8  C   UNL     1      -0.495   1.225   0.997  0.00  0.00    +0.085 C 
ENDROOT
BRANCH   5  10
ATOM      2  N   UNL     1       3.588  -1.296   0.567  0.00  0.00    -0.342 N 
ATOM      3  N   UNL     1       3.276   0.795  -0.119  0.00  0.00    -0.232 NA
ATOM     10  C   UNL     1       2.694  -0.283   0.357  0.00  0.00    +0.113 A 
ATOM     13  C   UNL     1       4.829  -0.841   0.203  0.00  0.00    +0.066 A 
ATOM     14  C   UNL     1       4.608   0.466  -0.221  0.00  0.00    +0.089 A 
ATOM     18  C   UNL     1       6.088  -1.443   0.209  0.00  0.00    +0.028 A 
ATOM     19  C   UNL     1       5.696   1.234  -0.670  0.00  0.00    +0.030 A 
ATOM     22  C   UNL     1       7.160  -0.664  -0.242  0.00  0.00    +0.002 A 
ATOM     23  C   UNL     1       6.970   0.650  -0.674  0.00  0.00    +0.002 A 
ATOM     25  H   UNL     1       3.376  -2.217   0.927  0.00  0.00    +0.167 HD
ENDBRANCH   5  10
BRANCH   1   9
ATOM      9  C   UNL     1      -1.795   0.814  -1.008  0.00  0.00    +0.121 C 
BRANCH   9  11
ATOM      4  N   UNL     1      -5.106   1.783   0.272  0.00  0.00    -0.360 N 
ATOM     11  C   UNL     1      -3.212   0.932  -0.513  0.00  0.00    -0.008 A 
ATOM     12  C   UNL     1      -4.155  -0.126  -0.383  0.00  0.00    +0.004 A 
ATOM     15  C   UNL     1      -3.826   2.093  -0.102  0.00  0.00    +0.088 A 
ATOM     16  C   UNL     1      -5.335   0.435   0.111  0.00  0.00    +0.047 A 
ATOM     17  C   UNL     1      -4.118  -1.511  -0.640  0.00  0.00    +0.010 A 
ATOM     20  C   UNL     1      -6.484  -0.323   0.363  0.00  0.00    +0.026 A 
ATOM     21  C   UNL     1      -5.261  -2.281  -0.393  0.00  0.00    +0.001 A 
ATOM     24  C   UNL     1      -6.424  -1.694   0.101  0.00  0.00    +0.002 A 
ATOM     26  H   UNL     1      -5.785   2.447   0.618  0.00  0.00    +0.165 HD
ENDBRANCH   9  11
ENDBRANCH   1   9
TORSDOF 3
