REMARK  Name = 11941842
REMARK  5 active torsions:
REMARK  status: ('A' for Active; 'I' for Inactive)
REMARK    1  A    between atoms: N_5  and  C_12
REMARK    2  A    between atoms: N_6  and  C_13
REMARK    3  A    between atoms: N_7  and  C_18
REMARK    4  A    between atoms: C_18  and  C_22
REMARK    5  A    between atoms: C_19  and  C_23
REMARK                            x       y       z     vdW  Elec       q    Type
REMARK                         _______ _______ _______ _____ _____    ______ ____
ROOT
ATOM      2  O   UNL     1      -0.296   3.045  -1.698  0.00  0.00    -0.370 OA
ATOM      3  O   UNL     1       0.875   2.421   1.126  0.00  0.00    -0.370 OA
ATOM     10  C   UNL     1       0.701   1.633  -0.063  0.00  0.00    +0.171 C 
ATOM     11  C   UNL     1      -0.608   2.061  -0.699  0.00  0.00    +0.171 C 
ATOM     12  C   UNL     1       1.747   1.996  -1.090  0.00  0.00    +0.130 C 
ATOM     13  C   UNL     1      -1.380   2.691   0.438  0.00  0.00    +0.131 C 
ATOM     14  C   UNL     1       1.129   3.195  -1.785  0.00  0.00    +0.185 C 
ATOM     15  C   UNL     1      -0.273   3.265   1.304  0.00  0.00    +0.185 C 
ENDROOT
BRANCH  12   5
ATOM      5  N   UNL     1       1.918   0.908  -2.028  0.00  0.00    -0.306 N 
ATOM      8  N   UNL     1       3.454  -0.195  -0.638  0.00  0.00    -0.214 NA
ATOM      9  N   UNL     1       2.824  -1.126  -2.769  0.00  0.00    -0.223 NA
ATOM     16  C   UNL     1       2.757  -0.170  -1.805  0.00  0.00    +0.216 A 
ATOM     19  C   UNL     1       4.262  -1.260  -0.454  0.00  0.00    +0.083 A 
ATOM     20  C   UNL     1       3.651  -2.162  -2.520  0.00  0.00    +0.116 A 
ATOM     21  C   UNL     1       4.401  -2.284  -1.368  0.00  0.00    +0.049 A 
ATOM     32  H   UNL     1       1.364   0.890  -2.877  0.00  0.00    +0.149 HD
BRANCH  19  23
ATOM      1  S   UNL     1       4.289  -0.499   2.159  0.00  0.00    -0.095 S 
ATOM     23  C   UNL     1       4.986  -1.258   0.789  0.00  0.00    +0.038 A 
ATOM     26  C   UNL     1       6.224  -1.798   1.079  0.00  0.00    +0.017 A 
ATOM     29  C   UNL     1       6.599  -1.586   2.437  0.00  0.00    +0.008 A 
ATOM     31  C   UNL     1       5.638  -0.892   3.138  0.00  0.00    +0.046 A 
ENDBRANCH  19  23
ENDBRANCH  12   5
BRANCH  13   6
ATOM      4  O   UNL     1      -4.149   1.999   0.014  0.00  0.00    -0.253 OA
ATOM      6  N   UNL     1      -2.149   1.705   1.157  0.00  0.00    -0.292 N 
ATOM      7  N   UNL     1      -3.985   0.440   1.726  0.00  0.00    -0.295 N 
ATOM     17  C   UNL     1      -3.489   1.434   0.885  0.00  0.00    +0.300 C 
ATOM     33  H   UNL     1      -1.677   1.135   1.852  0.00  0.00    +0.151 HD
ATOM     34  H   UNL     1      -3.359   0.014   2.402  0.00  0.00    +0.151 HD
BRANCH   7  18
ATOM     18  C   UNL     1      -5.348  -0.033   1.658  0.00  0.00    +0.141 C 
BRANCH  18  22
ATOM     22  C   UNL     1      -5.495  -1.188   0.710  0.00  0.00    -0.030 A 
ATOM     24  C   UNL     1      -5.784  -0.948  -0.628  0.00  0.00    +0.005 A 
ATOM     25  C   UNL     1      -5.339  -2.487   1.180  0.00  0.00    +0.005 A 
ATOM     27  C   UNL     1      -5.920  -2.021  -1.509  0.00  0.00    +0.000 A 
ATOM     28  C   UNL     1      -5.475  -3.561   0.299  0.00  0.00    +0.000 A 
ATOM     30  C   UNL     1      -5.766  -3.327  -1.045  0.00  0.00    +0.000 A 
ENDBRANCH  18  22
ENDBRANCH   7  18
ENDBRANCH  13   6
TORSDOF 5
