REMARK  Name = 11912407
REMARK  10 active torsions:
REMARK  status: ('A' for Active; 'I' for Inactive)
REMARK    1  A    between atoms: O_3  and  C_30
REMARK    2  A    between atoms: O_3  and  C_31
REMARK    3  A    between atoms: N_6  and  C_18
REMARK    4  A    between atoms: N_7  and  C_19
REMARK    5  A    between atoms: C_8  and  C_14
REMARK    6  A    between atoms: C_9  and  C_13
REMARK    7  A    between atoms: C_13  and  C_15
REMARK    8  A    between atoms: C_14  and  C_17
REMARK    9  A    between atoms: C_24  and  C_30
REMARK   10  A    between atoms: C_31  and  C_32
REMARK                            x       y       z     vdW  Elec       q    Type
REMARK                         _______ _______ _______ _____ _____    ______ ____
ROOT
ATOM      1  O   UNL     1       2.600  -1.449  -0.761  0.00  0.00    -0.252 OA
ATOM      5  N   UNL     1       0.427  -0.691  -0.976  0.00  0.00    -0.285 N 
ATOM      6  N   UNL     1       2.206   0.837  -0.720  0.00  0.00    -0.269 N 
ATOM      8  C   UNL     1      -2.247  -1.202   0.003  0.00  0.00    +0.004 C 
ATOM      9  C   UNL     1      -1.645   0.228   0.027  0.00  0.00    +0.010 C 
ATOM     10  C   UNL     1      -1.153  -2.284   0.027  0.00  0.00    +0.023 C 
ATOM     11  C   UNL     1      -0.594   0.361  -1.088  0.00  0.00    +0.113 C 
ATOM     12  C   UNL     1      -0.109  -2.050  -1.064  0.00  0.00    +0.109 C 
ATOM     16  C   UNL     1       1.817  -0.498  -0.824  0.00  0.00    +0.306 C 
ATOM     33  H   UNL     1       1.516   1.567  -0.810  0.00  0.00    +0.156 HD
ENDROOT
BRANCH   6  18
ATOM     18  C   UNL     1       3.506   1.335  -0.458  0.00  0.00    +0.036 A 
ATOM     20  C   UNL     1       4.582   0.456  -0.377  0.00  0.00    +0.038 A 
ATOM     21  C   UNL     1       3.700   2.703  -0.285  0.00  0.00    +0.023 A 
ATOM     24  C   UNL     1       5.862   0.947  -0.120  0.00  0.00    +0.061 A 
ATOM     25  C   UNL     1       4.980   3.194  -0.028  0.00  0.00    +0.003 A 
ATOM     28  C   UNL     1       6.061   2.317   0.054  0.00  0.00    +0.015 A 
BRANCH  24  30
ATOM      4  O   UNL     1       8.154   0.325  -0.334  0.00  0.00    -0.245 OA
ATOM     30  C   UNL     1       6.989   0.032  -0.033  0.00  0.00    +0.339 C 
BRANCH  30   3
ATOM      3  O   UNL     1       6.604  -1.198   0.426  0.00  0.00    -0.461 OA
BRANCH   3  31
ATOM     31  C   UNL     1       7.629  -2.189   0.557  0.00  0.00    +0.229 C 
ATOM     32  C   UNL     1       7.012  -3.471   1.074  0.00  0.00    +0.048 C 
ENDBRANCH   3  31
ENDBRANCH  30   3
ENDBRANCH  24  30
ENDBRANCH   6  18
BRANCH   9  13
ATOM     13  C   UNL     1      -1.046   0.632   1.379  0.00  0.00    +0.002 C 
ATOM     15  C   UNL     1      -0.593   2.077   1.368  0.00  0.00    +0.004 C 
ENDBRANCH   9  13
BRANCH   8  14
ATOM     14  C   UNL     1      -3.267  -1.441   1.116  0.00  0.00    +0.100 C 
BRANCH  14  17
ATOM      2  O   UNL     1      -4.391   0.611   1.687  0.00  0.00    -0.275 OA
ATOM      7  N   UNL     1      -5.436  -0.933   0.259  0.00  0.00    -0.285 N 
ATOM     17  C   UNL     1      -4.415  -0.450   1.072  0.00  0.00    +0.217 C 
ATOM     34  H   UNL     1      -5.296  -1.836  -0.189  0.00  0.00    +0.155 HD
BRANCH   7  19
ATOM     19  C   UNL     1      -6.670  -0.308  -0.039  0.00  0.00    +0.033 A 
ATOM     22  C   UNL     1      -7.569  -0.949  -0.876  0.00  0.00    +0.023 A 
ATOM     23  C   UNL     1      -6.954   0.930   0.512  0.00  0.00    +0.023 A 
ATOM     26  C   UNL     1      -8.785  -0.333  -1.171  0.00  0.00    +0.002 A 
ATOM     27  C   UNL     1      -8.170   1.546   0.217  0.00  0.00    +0.002 A 
ATOM     29  C   UNL     1      -9.086   0.914  -0.624  0.00  0.00    +0.000 A 
ENDBRANCH   7  19
ENDBRANCH  14  17
ENDBRANCH   8  14
TORSDOF 8
