REMARK  Name = 11941658
REMARK  6 active torsions:
REMARK  status: ('A' for Active; 'I' for Inactive)
REMARK    1  A    between atoms: O_4  and  C_32
REMARK    2  A    between atoms: O_4  and  C_33
REMARK    3  A    between atoms: N_5  and  C_12
REMARK    4  A    between atoms: N_6  and  C_13
REMARK    5  A    between atoms: N_7  and  C_16
REMARK    6  A    between atoms: C_24  and  C_27
REMARK                            x       y       z     vdW  Elec       q    Type
REMARK                         _______ _______ _______ _____ _____    ______ ____
ROOT
ATOM      1  O   UNL     1      -0.434   0.948   1.819  0.00  0.00    -0.370 OA
ATOM      2  O   UNL     1      -1.087   3.899   1.045  0.00  0.00    -0.370 OA
ATOM     10  C   UNL     1      -1.392   2.632   0.439  0.00  0.00    +0.171 C 
ATOM     11  C   UNL     1      -0.188   1.734   0.640  0.00  0.00    +0.171 C 
ATOM     12  C   UNL     1      -2.499   1.939   1.200  0.00  0.00    +0.131 C 
ATOM     13  C   UNL     1       0.954   2.694   0.880  0.00  0.00    +0.130 C 
ATOM     14  C   UNL     1      -1.742   1.254   2.324  0.00  0.00    +0.185 C 
ATOM     15  C   UNL     1       0.262   3.876   1.534  0.00  0.00    +0.185 C 
ENDROOT
BRANCH  13   6
ATOM      6  N   UNL     1       1.539   3.092  -0.382  0.00  0.00    -0.306 N 
ATOM      8  N   UNL     1       2.920   1.227  -0.438  0.00  0.00    -0.214 NA
ATOM      9  N   UNL     1       2.959   2.864  -2.205  0.00  0.00    -0.223 NA
ATOM     23  C   UNL     1       2.515   2.363  -1.036  0.00  0.00    +0.216 A 
ATOM     24  C   UNL     1       3.873   0.541  -1.103  0.00  0.00    +0.076 A 
ATOM     25  C   UNL     1       3.910   2.128  -2.816  0.00  0.00    +0.116 A 
ATOM     26  C   UNL     1       4.410   0.947  -2.308  0.00  0.00    +0.048 A 
ATOM     35  H   UNL     1       1.192   3.920  -0.852  0.00  0.00    +0.149 HD
BRANCH  24  27
ATOM     27  C   UNL     1       4.309  -0.678  -0.465  0.00  0.00    +0.001 A 
ATOM     28  C   UNL     1       5.647  -0.833  -0.101  0.00  0.00    +0.013 A 
ATOM     29  C   UNL     1       3.395  -1.701  -0.213  0.00  0.00    +0.013 A 
ATOM     30  C   UNL     1       6.071  -2.011   0.514  0.00  0.00    +0.046 A 
ATOM     31  C   UNL     1       3.818  -2.879   0.403  0.00  0.00    +0.046 A 
ATOM     32  C   UNL     1       5.156  -3.034   0.766  0.00  0.00    +0.120 A 
BRANCH  32   4
ATOM      4  O   UNL     1       5.569  -4.182   1.369  0.00  0.00    -0.495 OA
ATOM     33  C   UNL     1       4.583  -5.187   1.597  0.00  0.00    +0.277 C 
ENDBRANCH  32   4
ENDBRANCH  24  27
ENDBRANCH  13   6
BRANCH  12   5
ATOM      3  O   UNL     1      -5.198   0.999   1.518  0.00  0.00    -0.253 OA
ATOM      5  N   UNL     1      -3.183   0.978   0.369  0.00  0.00    -0.292 N 
ATOM      7  N   UNL     1      -4.916  -0.354  -0.347  0.00  0.00    -0.297 N 
ATOM     19  C   UNL     1      -4.498   0.579   0.598  0.00  0.00    +0.300 C 
ATOM     34  H   UNL     1      -2.665   0.523  -0.378  0.00  0.00    +0.151 HD
ATOM     36  H   UNL     1      -4.233  -0.686  -1.021  0.00  0.00    +0.151 HD
BRANCH   7  16
ATOM     16  C   UNL     1      -6.238  -0.940  -0.350  0.00  0.00    +0.074 C 
ATOM     17  C   UNL     1      -6.287  -2.194   0.528  0.00  0.00    +0.022 C 
ATOM     18  C   UNL     1      -6.703  -1.243  -1.778  0.00  0.00    +0.022 C 
ATOM     20  C   UNL     1      -5.541  -3.374  -0.095  0.00  0.00    +0.002 C 
ATOM     21  C   UNL     1      -5.956  -2.424  -2.398  0.00  0.00    +0.002 C 
ATOM     22  C   UNL     1      -6.028  -3.664  -1.511  0.00  0.00    +0.000 C 
ENDBRANCH   7  16
ENDBRANCH  12   5
TORSDOF 5
