REMARK  Name = 25389737
REMARK  9 active torsions:
REMARK  status: ('A' for Active; 'I' for Inactive)
REMARK    1  A    between atoms: O_2  and  C_21
REMARK    2  A    between atoms: O_2  and  C_33
REMARK    3  A    between atoms: N_6  and  C_12
REMARK    4  A    between atoms: N_6  and  C_22
REMARK    5  A    between atoms: N_8  and  C_27
REMARK    6  A    between atoms: C_10  and  C_18
REMARK    7  A    between atoms: C_14  and  C_21
REMARK    8  A    between atoms: C_22  and  C_27
REMARK    9  A    between atoms: C_34  and  C_35
REMARK                            x       y       z     vdW  Elec       q    Type
REMARK                         _______ _______ _______ _____ _____    ______ ____
ROOT
ATOM      5  N   UNL     1      -0.499  -0.598   0.547  0.00  0.00    -0.274 NA
ATOM      7  N   UNL     1      -3.013   2.191   0.471  0.00  0.00    -0.356 N 
ATOM      9  C   UNL     1      -0.834   0.849   0.372  0.00  0.00    +0.106 C 
ATOM     10  C   UNL     1       0.967  -0.833   0.561  0.00  0.00    +0.093 C 
ATOM     11  C   UNL     1      -0.197   1.691   1.491  0.00  0.00    +0.044 C 
ATOM     12  C   UNL     1       1.322   1.516   1.549  0.00  0.00    +0.057 C 
ATOM     13  C   UNL     1       1.654   0.028   1.652  0.00  0.00    +0.042 C 
ATOM     14  C   UNL     1      -1.265  -1.485  -0.371  0.00  0.00    +0.172 C 
ATOM     15  C   UNL     1      -2.324   1.018   0.335  0.00  0.00    +0.038 A 
ATOM     16  C   UNL     1      -2.796  -1.390  -0.148  0.00  0.00    +0.068 C 
ATOM     17  C   UNL     1      -3.233   0.014   0.080  0.00  0.00    -0.016 A 
ATOM     19  C   UNL     1      -4.532   0.590   0.097  0.00  0.00    +0.003 A 
ATOM     20  C   UNL     1      -4.366   1.956   0.345  0.00  0.00    +0.047 A 
ATOM     25  C   UNL     1      -5.838   0.088  -0.079  0.00  0.00    +0.010 A 
ATOM     26  C   UNL     1      -5.444   2.845   0.426  0.00  0.00    +0.026 A 
ATOM     28  C   UNL     1      -6.924   0.966   0.001  0.00  0.00    +0.001 A 
ATOM     31  C   UNL     1      -6.728   2.323   0.250  0.00  0.00    +0.002 A 
ATOM     37  H   UNL     1      -2.600   3.098   0.641  0.00  0.00    +0.166 HD
ENDROOT
BRANCH  10  18
ATOM      1  F   UNL     1       2.506  -2.370  -1.272  0.00  0.00    -0.205 F 
ATOM     18  C   UNL     1       1.363  -2.287   0.807  0.00  0.00    +0.005 A 
ATOM     23  C   UNL     1       2.120  -2.976  -0.140  0.00  0.00    +0.128 A 
ATOM     24  C   UNL     1       0.967  -2.926   1.982  0.00  0.00    +0.008 A 
ATOM     29  C   UNL     1       2.480  -4.304   0.087  0.00  0.00    +0.038 A 
ATOM     30  C   UNL     1       1.327  -4.254   2.209  0.00  0.00    +0.000 A 
ATOM     32  C   UNL     1       2.084  -4.944   1.262  0.00  0.00    +0.003 A 
ENDBRANCH  10  18
BRANCH  14  21
ATOM      3  O   UNL     1      -0.110  -0.337  -2.149  0.00  0.00    -0.249 OA
ATOM     21  C   UNL     1      -0.912  -1.194  -1.802  0.00  0.00    +0.325 C 
BRANCH  21   2
ATOM      2  O   UNL     1      -1.617  -2.022  -2.623  0.00  0.00    -0.467 OA
ATOM     33  C   UNL     1      -1.375  -1.852  -4.024  0.00  0.00    +0.280 C 
ENDBRANCH  21   2
ENDBRANCH  14  21
BRANCH  12   6
ATOM      6  N   UNL     1       1.958   2.105   0.369  0.00  0.00    -0.312 NA
ATOM     36  H   UNL     1       1.488   2.977   0.126  0.00  0.00    +0.122 HD
BRANCH   6  22
ATOM     22  C   UNL     1       3.361   2.384   0.627  0.00  0.00    +0.100 C 
BRANCH  22  27
ATOM     27  C   UNL     1       4.005   3.031  -0.591  0.00  0.00    +0.119 C 
BRANCH  27   8
ATOM      4  O   UNL     1       6.306   1.330  -1.077  0.00  0.00    -0.276 OA
ATOM      8  N   UNL     1       5.387   3.341  -0.346  0.00  0.00    -0.314 N 
ATOM     34  C   UNL     1       6.427   2.460  -0.612  0.00  0.00    +0.210 C 
ATOM     35  C   UNL     1       7.775   3.046  -0.286  0.00  0.00    +0.109 C 
ATOM     38  H   UNL     1       5.603   4.255   0.043  0.00  0.00    +0.149 HD
ENDBRANCH  27   8
ENDBRANCH  22  27
ENDBRANCH   6  22
ENDBRANCH  12   6
TORSDOF 7
