REMARK  Name = 45361383
REMARK  13 active torsions:
REMARK  status: ('A' for Active; 'I' for Inactive)
REMARK    1  A    between atoms: O_1  and  C_11
REMARK    2  A    between atoms: O_4  and  C_28
REMARK    3  A    between atoms: O_4  and  C_34
REMARK    4  A    between atoms: O_5  and  C_35
REMARK    5  A    between atoms: O_5  and  C_36
REMARK    6  A    between atoms: N_6  and  C_15
REMARK    7  A    between atoms: C_8  and  C_18
REMARK    8  A    between atoms: C_10  and  C_20
REMARK    9  A    between atoms: C_13  and  C_19
REMARK   10  A    between atoms: C_19  and  C_21
REMARK   11  A    between atoms: C_19  and  C_22
REMARK   12  A    between atoms: C_23  and  C_29
REMARK   13  A    between atoms: C_24  and  C_28
REMARK                            x       y       z     vdW  Elec       q    Type
REMARK                         _______ _______ _______ _____ _____    ______ ____
ROOT
ATOM      8  C   UNL     1       0.283  -1.791   0.510  0.00  0.00    -0.027 C 
ATOM      9  C   UNL     1       0.161  -0.272   0.155  0.00  0.00    +0.028 C 
ATOM     10  C   UNL     1      -1.287   0.068  -0.352  0.00  0.00    +0.012 C 
ATOM     11  C   UNL     1       1.319   0.185  -0.778  0.00  0.00    +0.122 C 
ATOM     12  C   UNL     1       1.682  -2.069   1.111  0.00  0.00    +0.007 C 
ATOM     13  C   UNL     1       2.713  -0.189  -0.221  0.00  0.00    +0.029 C 
ATOM     14  C   UNL     1      -0.769  -2.144   1.586  0.00  0.00    +0.009 C 
ATOM     15  C   UNL     1      -2.342  -0.360   0.706  0.00  0.00    +0.076 C 
ATOM     16  C   UNL     1       2.819  -1.659   0.184  0.00  0.00    +0.007 C 
ATOM     17  C   UNL     1      -2.193  -1.811   1.161  0.00  0.00    +0.023 C 
ATOM     18  C   UNL     1       0.080  -2.708  -0.723  0.00  0.00    +0.011 C 
ATOM     20  C   UNL     1      -1.487   1.555  -0.693  0.00  0.00    +0.010 C 
ENDROOT
BRANCH  15   6
ATOM      3  O   UNL     1      -4.645   0.317   2.281  0.00  0.00    -0.270 OA
ATOM      6  N   UNL     1      -3.694  -0.168   0.224  0.00  0.00    -0.308 N 
ATOM     23  C   UNL     1      -4.742   0.159   1.067  0.00  0.00    +0.244 C 
ATOM     37  H   UNL     1      -3.869  -0.395  -0.750  0.00  0.00    +0.149 HD
BRANCH  23  29
ATOM     29  C   UNL     1      -6.072   0.295   0.421  0.00  0.00    +0.037 A 
ATOM     30  C   UNL     1      -7.233   0.059   1.158  0.00  0.00    +0.016 A 
ATOM     31  C   UNL     1      -6.161   0.658  -0.923  0.00  0.00    +0.016 A 
ATOM     32  C   UNL     1      -8.482   0.185   0.550  0.00  0.00    +0.046 A 
ATOM     33  C   UNL     1      -7.411   0.784  -1.530  0.00  0.00    +0.046 A 
ATOM     35  C   UNL     1      -8.571   0.547  -0.794  0.00  0.00    +0.120 A 
BRANCH  35   5
ATOM      5  O   UNL     1      -9.790   0.671  -1.387  0.00  0.00    -0.495 OA
ATOM     36  C   UNL     1     -10.935   0.415  -0.575  0.00  0.00    +0.277 C 
ENDBRANCH  35   5
ENDBRANCH  23  29
ENDBRANCH  15   6
BRANCH  11   1
ATOM      1  O   UNL     1       1.298   1.607  -0.904  0.00  0.00    -0.391 OA
ATOM     38  H   UNL     1       1.414   1.991  -0.018  0.00  0.00    +0.210 HD
ENDBRANCH  11   1
BRANCH  13  19
ATOM     19  C   UNL     1       3.832   0.151  -1.212  0.00  0.00    +0.078 C 
ATOM     22  C   UNL     1       3.667  -0.619  -2.510  0.00  0.00    +0.017 C 
BRANCH  19  21
ATOM      2  O   UNL     1       5.666  -1.293  -0.747  0.00  0.00    -0.275 OA
ATOM      7  N   UNL     1       5.730   0.826   0.180  0.00  0.00    -0.296 N 
ATOM     21  C   UNL     1       5.158  -0.184  -0.577  0.00  0.00    +0.219 C 
ATOM     24  C   UNL     1       6.965   0.637   0.943  0.00  0.00    +0.102 C 
ATOM     25  C   UNL     1       5.165   2.153   0.408  0.00  0.00    +0.108 C 
ATOM     26  C   UNL     1       6.967   1.808   1.929  0.00  0.00    +0.026 C 
ATOM     27  C   UNL     1       6.243   2.912   1.167  0.00  0.00    +0.021 C 
BRANCH  24  28
ATOM     28  C   UNL     1       8.192   0.649   0.032  0.00  0.00    +0.181 C 
BRANCH  28   4
ATOM      4  O   UNL     1       8.373  -0.653  -0.493  0.00  0.00    -0.381 OA
ATOM     34  C   UNL     1       9.503  -0.721  -1.356  0.00  0.00    +0.194 C 
ENDBRANCH  28   4
ENDBRANCH  24  28
ENDBRANCH  19  21
ENDBRANCH  13  19
TORSDOF 8
