REMARK  Name = 45361630
REMARK  10 active torsions:
REMARK  status: ('A' for Active; 'I' for Inactive)
REMARK    1  A    between atoms: O_2  and  C_12
REMARK    2  A    between atoms: N_5  and  C_16
REMARK    3  A    between atoms: N_6  and  C_26
REMARK    4  A    between atoms: C_9  and  C_19
REMARK    5  A    between atoms: C_11  and  C_21
REMARK    6  A    between atoms: C_15  and  C_20
REMARK    7  A    between atoms: C_20  and  C_22
REMARK    8  A    between atoms: C_20  and  C_23
REMARK    9  A    between atoms: C_24  and  C_25
REMARK   10  A    between atoms: C_26  and  C_29
REMARK                            x       y       z     vdW  Elec       q    Type
REMARK                         _______ _______ _______ _____ _____    ______ ____
ROOT
ATOM      9  C   UNL     1       0.702  -1.079  -1.768  0.00  0.00    -0.027 C 
ATOM     10  C   UNL     1       0.405  -1.716  -0.370  0.00  0.00    +0.028 C 
ATOM     11  C   UNL     1      -0.855  -1.050   0.291  0.00  0.00    +0.012 C 
ATOM     12  C   UNL     1       1.683  -1.752   0.516  0.00  0.00    +0.122 C 
ATOM     13  C   UNL     1       1.876  -1.832  -2.439  0.00  0.00    +0.007 C 
ATOM     14  C   UNL     1      -0.541  -1.245  -2.672  0.00  0.00    +0.009 C 
ATOM     15  C   UNL     1       2.884  -2.414  -0.200  0.00  0.00    +0.029 C 
ATOM     16  C   UNL     1      -2.081  -1.157  -0.659  0.00  0.00    +0.076 C 
ATOM     17  C   UNL     1       3.141  -1.836  -1.591  0.00  0.00    +0.007 C 
ATOM     18  C   UNL     1      -1.802  -0.641  -2.071  0.00  0.00    +0.023 C 
ATOM     19  C   UNL     1       1.065   0.424  -1.672  0.00  0.00    +0.011 C 
ATOM     21  C   UNL     1      -1.222  -1.649   1.659  0.00  0.00    +0.010 C 
ENDROOT
BRANCH  16   5
ATOM      4  O   UNL     1      -4.840  -1.860  -1.028  0.00  0.00    -0.270 OA
ATOM      5  N   UNL     1      -3.231  -0.452  -0.133  0.00  0.00    -0.308 N 
ATOM     24  C   UNL     1      -4.529  -0.872  -0.368  0.00  0.00    +0.247 C 
ATOM     36  H   UNL     1      -3.056   0.430   0.338  0.00  0.00    +0.149 HD
BRANCH  24  25
ATOM      7  N   UNL     1      -7.857   0.805   0.179  0.00  0.00    -0.243 NA
ATOM      8  N   UNL     1      -6.339   1.521   1.909  0.00  0.00    -0.243 NA
ATOM     25  C   UNL     1      -5.598  -0.025   0.220  0.00  0.00    +0.073 A 
ATOM     27  C   UNL     1      -6.862   0.047  -0.328  0.00  0.00    +0.127 A 
ATOM     28  C   UNL     1      -5.392   0.741   1.349  0.00  0.00    +0.127 A 
ATOM     32  C   UNL     1      -7.531   1.506   1.282  0.00  0.00    +0.221 A 
ENDBRANCH  24  25
ENDBRANCH  16   5
BRANCH  12   2
ATOM      2  O   UNL     1       1.429  -2.528   1.688  0.00  0.00    -0.391 OA
ATOM     37  H   UNL     1       1.173  -3.423   1.408  0.00  0.00    +0.210 HD
ENDBRANCH  12   2
BRANCH  15  20
ATOM     20  C   UNL     1       4.166  -2.323   0.637  0.00  0.00    +0.077 C 
ATOM     22  C   UNL     1       4.175  -3.412   1.704  0.00  0.00    +0.017 C 
BRANCH  20  23
ATOM      3  O   UNL     1       3.839  -0.665   2.372  0.00  0.00    -0.276 OA
ATOM      6  N   UNL     1       4.939  -0.035   0.430  0.00  0.00    -0.311 N 
ATOM     23  C   UNL     1       4.284  -0.935   1.259  0.00  0.00    +0.216 C 
ATOM     38  H   UNL     1       5.308  -0.349  -0.463  0.00  0.00    +0.149 HD
BRANCH   6  26
ATOM     26  C   UNL     1       5.170   1.342   0.799  0.00  0.00    +0.139 C 
BRANCH  26  29
ATOM      1  F   UNL     1       0.944   4.694  -0.814  0.00  0.00    -0.205 F 
ATOM     29  C   UNL     1       4.043   2.236   0.369  0.00  0.00    -0.030 A 
ATOM     30  C   UNL     1       4.074   2.841  -0.887  0.00  0.00    +0.008 A 
ATOM     31  C   UNL     1       2.965   2.461   1.226  0.00  0.00    +0.008 A 
ATOM     33  C   UNL     1       3.027   3.672  -1.286  0.00  0.00    +0.038 A 
ATOM     34  C   UNL     1       1.919   3.291   0.826  0.00  0.00    +0.038 A 
ATOM     35  C   UNL     1       1.949   3.897  -0.430  0.00  0.00    +0.123 A 
ENDBRANCH  26  29
ENDBRANCH   6  26
ENDBRANCH  20  23
ENDBRANCH  15  20
TORSDOF 7
