REMARK  Name = 45361399
REMARK  10 active torsions:
REMARK  status: ('A' for Active; 'I' for Inactive)
REMARK    1  A    between atoms: O_2  and  C_10
REMARK    2  A    between atoms: N_5  and  C_14
REMARK    3  A    between atoms: N_6  and  C_24
REMARK    4  A    between atoms: C_7  and  C_17
REMARK    5  A    between atoms: C_9  and  C_19
REMARK    6  A    between atoms: C_13  and  C_18
REMARK    7  A    between atoms: C_18  and  C_20
REMARK    8  A    between atoms: C_18  and  C_21
REMARK    9  A    between atoms: C_22  and  C_23
REMARK   10  A    between atoms: C_24  and  C_27
REMARK                            x       y       z     vdW  Elec       q    Type
REMARK                         _______ _______ _______ _____ _____    ______ ____
ROOT
ATOM      7  C   UNL     1       0.705  -1.083  -1.767  0.00  0.00    -0.027 C 
ATOM      8  C   UNL     1       0.407  -1.717  -0.367  0.00  0.00    +0.028 C 
ATOM      9  C   UNL     1      -0.854  -1.051   0.292  0.00  0.00    +0.012 C 
ATOM     10  C   UNL     1       1.685  -1.751   0.519  0.00  0.00    +0.122 C 
ATOM     11  C   UNL     1       1.879  -1.836  -2.435  0.00  0.00    +0.007 C 
ATOM     12  C   UNL     1      -0.538  -1.252  -2.671  0.00  0.00    +0.009 C 
ATOM     13  C   UNL     1       2.887  -2.413  -0.194  0.00  0.00    +0.029 C 
ATOM     14  C   UNL     1      -2.079  -1.160  -0.659  0.00  0.00    +0.076 C 
ATOM     15  C   UNL     1       3.144  -1.837  -1.587  0.00  0.00    +0.007 C 
ATOM     16  C   UNL     1      -1.800  -0.648  -2.071  0.00  0.00    +0.023 C 
ATOM     17  C   UNL     1       1.067   0.421  -1.673  0.00  0.00    +0.011 C 
ATOM     19  C   UNL     1      -1.221  -1.647   1.661  0.00  0.00    +0.010 C 
ENDROOT
BRANCH  14   5
ATOM      4  O   UNL     1      -4.838  -1.866  -1.028  0.00  0.00    -0.270 OA
ATOM      5  N   UNL     1      -3.229  -0.455  -0.134  0.00  0.00    -0.308 N 
ATOM     22  C   UNL     1      -4.527  -0.877  -0.369  0.00  0.00    +0.244 C 
ATOM     36  H   UNL     1      -3.053   0.434   0.322  0.00  0.00    +0.149 HD
BRANCH  22  23
ATOM     23  C   UNL     1      -5.597  -0.029   0.217  0.00  0.00    +0.037 A 
ATOM     25  C   UNL     1      -6.860   0.006  -0.374  0.00  0.00    +0.013 A 
ATOM     26  C   UNL     1      -5.339   0.730   1.358  0.00  0.00    +0.013 A 
ATOM     28  C   UNL     1      -7.865   0.801   0.177  0.00  0.00    +0.001 A 
ATOM     29  C   UNL     1      -6.344   1.524   1.909  0.00  0.00    +0.001 A 
ATOM     30  C   UNL     1      -7.607   1.560   1.319  0.00  0.00    +0.000 A 
ENDBRANCH  22  23
ENDBRANCH  14   5
BRANCH  10   2
ATOM      2  O   UNL     1       1.431  -2.524   1.693  0.00  0.00    -0.391 OA
ATOM     37  H   UNL     1       1.176  -3.420   1.415  0.00  0.00    +0.210 HD
ENDBRANCH  10   2
BRANCH  13  18
ATOM     18  C   UNL     1       4.168  -2.319   0.643  0.00  0.00    +0.077 C 
ATOM     20  C   UNL     1       4.177  -3.406   1.712  0.00  0.00    +0.017 C 
BRANCH  18  21
ATOM      3  O   UNL     1       3.839  -0.658   2.374  0.00  0.00    -0.276 OA
ATOM      6  N   UNL     1       4.940  -0.031   0.431  0.00  0.00    -0.311 N 
ATOM     21  C   UNL     1       4.285  -0.929   1.262  0.00  0.00    +0.216 C 
ATOM     38  H   UNL     1       5.309  -0.347  -0.460  0.00  0.00    +0.149 HD
BRANCH   6  24
ATOM     24  C   UNL     1       5.170   1.347   0.798  0.00  0.00    +0.139 C 
BRANCH  24  27
ATOM      1  F   UNL     1       0.941   4.692  -0.823  0.00  0.00    -0.205 F 
ATOM     27  C   UNL     1       4.042   2.239   0.366  0.00  0.00    -0.030 A 
ATOM     31  C   UNL     1       4.073   2.842  -0.892  0.00  0.00    +0.008 A 
ATOM     32  C   UNL     1       2.964   2.465   1.222  0.00  0.00    +0.008 A 
ATOM     33  C   UNL     1       3.026   3.671  -1.293  0.00  0.00    +0.038 A 
ATOM     34  C   UNL     1       1.917   3.294   0.820  0.00  0.00    +0.038 A 
ATOM     35  C   UNL     1       1.948   3.897  -0.437  0.00  0.00    +0.123 A 
ENDBRANCH  24  27
ENDBRANCH   6  24
ENDBRANCH  18  21
ENDBRANCH  13  18
TORSDOF 7
