REMARK  Name = 11886184
REMARK  5 active torsions:
REMARK  status: ('A' for Active; 'I' for Inactive)
REMARK    1  A    between atoms: O_3  and  C_24
REMARK    2  A    between atoms: O_3  and  C_25
REMARK    3  A    between atoms: N_5  and  C_13
REMARK    4  A    between atoms: N_6  and  C_14
REMARK    5  A    between atoms: N_7  and  C_17
REMARK                            x       y       z     vdW  Elec       q    Type
REMARK                         _______ _______ _______ _____ _____    ______ ____
ROOT
ATOM      1  O   UNL     1      -0.329   0.565   1.698  0.00  0.00    -0.370 OA
ATOM      2  O   UNL     1      -0.006   2.971  -0.301  0.00  0.00    -0.370 OA
ATOM     11  C   UNL     1      -0.699   1.714  -0.352  0.00  0.00    +0.171 C 
ATOM     12  C   UNL     1       0.164   0.684   0.351  0.00  0.00    +0.176 C 
ATOM     13  C   UNL     1      -1.960   1.776   0.480  0.00  0.00    +0.131 C 
ATOM     14  C   UNL     1       1.554   1.290   0.363  0.00  0.00    +0.171 C 
ATOM     15  C   UNL     1      -1.447   1.447   1.869  0.00  0.00    +0.185 C 
ATOM     16  C   UNL     1       1.276   2.788   0.315  0.00  0.00    +0.190 C 
ENDROOT
BRANCH  13   5
ATOM      4  O   UNL     1      -4.813   1.911   0.810  0.00  0.00    -0.253 OA
ATOM      5  N   UNL     1      -2.927   0.802   0.036  0.00  0.00    -0.292 N 
ATOM      7  N   UNL     1      -5.007  -0.127  -0.285  0.00  0.00    -0.297 N 
ATOM     20  C   UNL     1      -4.298   0.951   0.239  0.00  0.00    +0.300 C 
ATOM     31  H   UNL     1      -2.594  -0.059  -0.386  0.00  0.00    +0.151 HD
ATOM     32  H   UNL     1      -4.477  -0.902  -0.671  0.00  0.00    +0.151 HD
BRANCH   7  17
ATOM     17  C   UNL     1      -6.447  -0.236  -0.215  0.00  0.00    +0.074 C 
ATOM     18  C   UNL     1      -7.004  -0.974  -1.438  0.00  0.00    +0.022 C 
ATOM     19  C   UNL     1      -6.886  -0.912   1.089  0.00  0.00    +0.022 C 
ATOM     21  C   UNL     1      -6.685  -2.469  -1.414  0.00  0.00    +0.002 C 
ATOM     22  C   UNL     1      -6.568  -2.407   1.108  0.00  0.00    +0.002 C 
ATOM     23  C   UNL     1      -7.142  -3.121  -0.112  0.00  0.00    +0.000 C 
ENDBRANCH   7  17
ENDBRANCH  13   5
BRANCH  14   6
ATOM      6  N   UNL     1       2.399   0.781  -0.721  0.00  0.00    -0.187 N 
ATOM      8  N   UNL     1       2.027   0.910  -1.998  0.00  0.00    -0.041 NA
ATOM      9  N   UNL     1       3.993  -0.132  -1.858  0.00  0.00    -0.071 NA
ATOM     10  N   UNL     1       3.009   0.348  -2.692  0.00  0.00    -0.020 NA
ATOM     24  C   UNL     1       3.593   0.149  -0.639  0.00  0.00    +0.342 A 
BRANCH  24   3
ATOM      3  O   UNL     1       4.228  -0.130   0.484  0.00  0.00    -0.423 OA
BRANCH   3  25
ATOM     25  C   UNL     1       5.452  -0.784   0.508  0.00  0.00    +0.132 A 
ATOM     26  C   UNL     1       6.613  -0.036   0.461  0.00  0.00    +0.046 A 
ATOM     27  C   UNL     1       5.474  -2.163   0.576  0.00  0.00    +0.046 A 
ATOM     28  C   UNL     1       7.843  -0.693   0.484  0.00  0.00    +0.004 A 
ATOM     29  C   UNL     1       6.704  -2.821   0.600  0.00  0.00    +0.004 A 
ATOM     30  C   UNL     1       7.889  -2.085   0.554  0.00  0.00    +0.000 A 
ENDBRANCH   3  25
ENDBRANCH  24   3
ENDBRANCH  14   6
TORSDOF 5
