REMARK  Name = 7164880
REMARK  12 active torsions:
REMARK  status: ('A' for Active; 'I' for Inactive)
REMARK    1  A    between atoms: S_1  and  N_10
REMARK    2  A    between atoms: S_1  and  C_19
REMARK    3  A    between atoms: O_7  and  C_25
REMARK    4  A    between atoms: O_7  and  C_38
REMARK    5  A    between atoms: O_9  and  C_37
REMARK    6  A    between atoms: O_9  and  C_39
REMARK    7  A    between atoms: N_12  and  C_20
REMARK    8  A    between atoms: C_13  and  C_17
REMARK    9  A    between atoms: C_18  and  C_21
REMARK   10  A    between atoms: C_20  and  C_22
REMARK   11  A    between atoms: C_20  and  C_25
REMARK   12  A    between atoms: C_22  and  C_26
REMARK                            x       y       z     vdW  Elec       q    Type
REMARK                         _______ _______ _______ _____ _____    ______ ____
ROOT
ATOM      6  O   UNL     1      -0.655   0.247   3.850  0.00  0.00    -0.269 OA
ATOM     10  N   UNL     1      -3.285  -1.069  -0.186  0.00  0.00    -0.173 NA
ATOM     11  N   UNL     1      -1.289  -0.183   1.658  0.00  0.00    -0.283 N 
ATOM     13  C   UNL     1      -1.006  -0.161   0.212  0.00  0.00    +0.178 C 
ATOM     14  C   UNL     1      -2.272  -0.071  -0.639  0.00  0.00    +0.141 C 
ATOM     15  C   UNL     1      -3.628  -0.882   1.251  0.00  0.00    +0.128 C 
ATOM     16  C   UNL     1      -2.373  -1.073   2.090  0.00  0.00    +0.126 C 
ATOM     18  C   UNL     1      -0.484   0.430   2.643  0.00  0.00    +0.254 C 
ENDROOT
BRANCH  18  21
ATOM      2  S   UNL     1       2.204   0.933   2.589  0.00  0.00    -0.092 S 
ATOM     21  C   UNL     1       0.584   1.307   2.181  0.00  0.00    +0.074 A 
ATOM     27  C   UNL     1       0.493   2.454   1.424  0.00  0.00    +0.021 A 
ATOM     31  C   UNL     1       1.771   3.034   1.176  0.00  0.00    +0.008 A 
ATOM     34  C   UNL     1       2.789   2.308   1.753  0.00  0.00    +0.046 A 
ENDBRANCH  18  21
BRANCH  13  17
ATOM      5  O   UNL     1      -0.681  -2.525   0.092  0.00  0.00    -0.274 OA
ATOM     12  N   UNL     1       1.054  -1.115  -0.557  0.00  0.00    -0.301 N 
ATOM     17  C   UNL     1      -0.217  -1.403  -0.090  0.00  0.00    +0.236 C 
ATOM     40  H   UNL     1       1.365  -0.150  -0.556  0.00  0.00    +0.150 HD
BRANCH  12  20
ATOM     20  C   UNL     1       2.019  -2.135  -0.898  0.00  0.00    +0.186 C 
BRANCH  20  25
ATOM      8  O   UNL     1       2.695  -2.101   1.422  0.00  0.00    -0.249 OA
ATOM     25  C   UNL     1       2.811  -2.612   0.312  0.00  0.00    +0.328 C 
BRANCH  25   7
ATOM      7  O   UNL     1       3.651  -3.639   0.004  0.00  0.00    -0.467 OA
ATOM     38  C   UNL     1       4.447  -4.135   1.085  0.00  0.00    +0.280 C 
ENDBRANCH  25   7
ENDBRANCH  20  25
BRANCH  20  22
ATOM     22  C   UNL     1       2.937  -1.674  -2.040  0.00  0.00    +0.069 C 
BRANCH  22  26
ATOM     26  C   UNL     1       3.812  -0.486  -1.708  0.00  0.00    -0.045 A 
ATOM     32  C   UNL     1       3.353   0.808  -1.948  0.00  0.00    +0.007 A 
ATOM     33  C   UNL     1       5.080  -0.686  -1.161  0.00  0.00    +0.007 A 
ATOM     35  C   UNL     1       4.160   1.903  -1.640  0.00  0.00    +0.046 A 
ATOM     36  C   UNL     1       5.888   0.409  -0.854  0.00  0.00    +0.046 A 
ATOM     37  C   UNL     1       5.428   1.704  -1.094  0.00  0.00    +0.120 A 
BRANCH  37   9
ATOM      9  O   UNL     1       6.215   2.772  -0.794  0.00  0.00    -0.495 OA
ATOM     39  C   UNL     1       5.682   4.068  -1.064  0.00  0.00    +0.277 C 
ENDBRANCH  37   9
ENDBRANCH  22  26
ENDBRANCH  20  22
ENDBRANCH  12  20
ENDBRANCH  13  17
BRANCH  10   1
ATOM      1  S   UNL     1      -4.619  -1.292  -1.238  0.00  0.00    +0.061 S 
ATOM      3  O   UNL     1      -5.444  -2.368  -0.733  0.00  0.00    -0.153 OA
ATOM      4  O   UNL     1      -4.143  -1.294  -2.605  0.00  0.00    -0.153 OA
BRANCH   1  19
ATOM     19  C   UNL     1      -5.482   0.224  -0.965  0.00  0.00    +0.105 A 
ATOM     23  C   UNL     1      -6.444   0.307   0.041  0.00  0.00    +0.028 A 
ATOM     24  C   UNL     1      -5.201   1.338  -1.755  0.00  0.00    +0.028 A 
ATOM     28  C   UNL     1      -7.125   1.505   0.258  0.00  0.00    +0.002 A 
ATOM     29  C   UNL     1      -5.882   2.536  -1.539  0.00  0.00    +0.002 A 
ATOM     30  C   UNL     1      -6.844   2.619  -0.533  0.00  0.00    +0.000 A 
ENDBRANCH   1  19
ENDBRANCH  10   1
TORSDOF 10
