REMARK  Name = 7664141
REMARK  5 active torsions:
REMARK  status: ('A' for Active; 'I' for Inactive)
REMARK    1  A    between atoms: N_8  and  C_22
REMARK    2  A    between atoms: N_9  and  C_20
REMARK    3  A    between atoms: C_23  and  C_26
REMARK    4  A    between atoms: C_29  and  C_31
REMARK    5  A    between atoms: C_31  and  C_34
REMARK                            x       y       z     vdW  Elec       q    Type
REMARK                         _______ _______ _______ _____ _____    ______ ____
ROOT
ATOM      1  O   UNL     1       0.003   2.684   1.895  0.00  0.00    -0.266 OA
ATOM      2  O   UNL     1      -3.106  -1.513   1.797  0.00  0.00    -0.252 OA
ATOM      6  N   UNL     1      -3.818  -0.049   0.153  0.00  0.00    -0.284 N 
ATOM      7  N   UNL     1      -1.701   2.331   0.336  0.00  0.00    -0.310 N 
ATOM      8  N   UNL     1      -2.495  -1.923  -0.401  0.00  0.00    -0.269 N 
ATOM     10  C   UNL     1      -4.178   2.283   0.978  0.00  0.00    +0.027 C 
ATOM     11  C   UNL     1      -3.518   1.907  -1.359  0.00  0.00    +0.054 C 
ATOM     12  C   UNL     1      -4.417   2.744  -0.454  0.00  0.00    +0.018 C 
ATOM     13  C   UNL     1      -4.524   0.791   1.124  0.00  0.00    +0.114 C 
ATOM     14  C   UNL     1      -2.723   2.578   1.361  0.00  0.00    +0.130 C 
ATOM     15  C   UNL     1      -3.901   0.416  -1.243  0.00  0.00    +0.119 C 
ATOM     16  C   UNL     1      -2.055   2.087  -0.995  0.00  0.00    +0.027 A 
ATOM     17  C   UNL     1      -1.104   1.979  -1.938  0.00  0.00    +0.024 A 
ATOM     18  C   UNL     1      -0.356   2.454   0.739  0.00  0.00    +0.273 A 
ATOM     19  C   UNL     1      -3.125  -1.194   0.606  0.00  0.00    +0.306 C 
ATOM     20  C   UNL     1       0.673   2.301  -0.337  0.00  0.00    +0.099 A 
ATOM     21  C   UNL     1       0.287   2.088  -1.599  0.00  0.00    +0.030 A 
ATOM     35  H   UNL     1      -2.885  -1.888  -1.336  0.00  0.00    +0.156 HD
ENDROOT
BRANCH   8  22
ATOM     22  C   UNL     1      -1.371  -2.775  -0.267  0.00  0.00    +0.035 A 
ATOM     24  C   UNL     1      -0.721  -2.874   0.960  0.00  0.00    +0.024 A 
ATOM     25  C   UNL     1      -0.924  -3.509  -1.361  0.00  0.00    +0.024 A 
ATOM     27  C   UNL     1       0.385  -3.714   1.093  0.00  0.00    +0.013 A 
ATOM     28  C   UNL     1       0.181  -4.349  -1.229  0.00  0.00    +0.013 A 
ATOM     29  C   UNL     1       0.836  -4.452  -0.001  0.00  0.00    +0.017 A 
BRANCH  29  31
ATOM      5  O   UNL     1       2.415  -5.999  -0.823  0.00  0.00    -0.292 OA
ATOM     31  C   UNL     1       1.989  -5.327   0.137  0.00  0.00    +0.160 C 
ATOM     34  C   UNL     1       2.710  -5.442   1.476  0.00  0.00    +0.091 C 
ENDBRANCH  29  31
ENDBRANCH   8  22
BRANCH  20   9
ATOM      3  O   UNL     1       2.868   1.036  -1.652  0.00  0.00    -0.266 OA
ATOM      9  N   UNL     1       1.987   2.398   0.015  0.00  0.00    -0.275 N 
ATOM     23  C   UNL     1       3.012   1.756  -0.667  0.00  0.00    +0.284 C 
ATOM     36  H   UNL     1       2.196   2.807   0.923  0.00  0.00    +0.155 HD
BRANCH  23  26
ATOM      4  O   UNL     1       4.461   2.803   0.909  0.00  0.00    -0.458 OA
ATOM     26  C   UNL     1       4.383   1.998  -0.148  0.00  0.00    +0.189 A 
ATOM     30  C   UNL     1       5.552   1.528  -0.586  0.00  0.00    +0.054 A 
ATOM     32  C   UNL     1       6.504   2.096   0.294  0.00  0.00    +0.042 A 
ATOM     33  C   UNL     1       5.790   2.863   1.185  0.00  0.00    +0.196 A 
ENDBRANCH  23  26
ENDBRANCH  20   9
TORSDOF 4
