REMARK  Name = 40777708
REMARK  14 active torsions:
REMARK  status: ('A' for Active; 'I' for Inactive)
REMARK    1  A    between atoms: O_2  and  C_31
REMARK    2  A    between atoms: N_4  and  C_9
REMARK    3  A    between atoms: N_5  and  C_16
REMARK    4  A    between atoms: C_7  and  C_10
REMARK    5  A    between atoms: C_13  and  C_17
REMARK    6  A    between atoms: C_14  and  C_18
REMARK    7  A    between atoms: C_15  and  C_20
REMARK    8  A    between atoms: C_15  and  C_26
REMARK    9  A    between atoms: C_15  and  C_27
REMARK   10  A    between atoms: C_15  and  C_28
REMARK   11  A    between atoms: C_19  and  C_23
REMARK   12  A    between atoms: C_23  and  C_29
REMARK   13  A    between atoms: C_29  and  C_30
REMARK   14  A    between atoms: C_30  and  C_31
REMARK                            x       y       z     vdW  Elec       q    Type
REMARK                         _______ _______ _______ _____ _____    ______ ____
ROOT
ATOM      5  N   UNL     1      -2.685  -0.749   0.110  0.00  0.00    -0.236 N 
ATOM      6  N   UNL     1      -2.478  -1.885   0.798  0.00  0.00    -0.171 NA
ATOM     10  C   UNL     1      -0.570  -1.171  -0.235  0.00  0.00    +0.003 A 
ATOM     13  C   UNL     1      -1.573  -0.281  -0.528  0.00  0.00    +0.046 A 
ATOM     14  C   UNL     1      -1.184  -2.138   0.584  0.00  0.00    +0.064 A 
ATOM     17  C   UNL     1      -1.565   0.950  -1.345  0.00  0.00    +0.066 C 
ATOM     18  C   UNL     1      -0.569  -3.332   1.190  0.00  0.00    +0.068 C 
ENDROOT
BRANCH   5  16
ATOM     16  C   UNL     1      -3.953  -0.168   0.100  0.00  0.00    +0.066 A 
ATOM     20  C   UNL     1      -6.486   1.002   0.085  0.00  0.00    -0.042 A 
ATOM     21  C   UNL     1      -4.374   0.569  -1.007  0.00  0.00    +0.028 A 
ATOM     22  C   UNL     1      -4.798  -0.319   1.199  0.00  0.00    +0.028 A 
ATOM     24  C   UNL     1      -5.641   1.154  -1.015  0.00  0.00    +0.006 A 
ATOM     25  C   UNL     1      -6.064   0.266   1.192  0.00  0.00    +0.006 A 
BRANCH  20  15
ATOM     15  C   UNL     1      -7.839   1.628   0.076  0.00  0.00    -0.013 C 
ATOM     26  C   UNL     1      -8.705   1.088  -1.104  0.00  0.00    +0.015 C 
ATOM     27  C   UNL     1      -7.745   3.177  -0.080  0.00  0.00    +0.015 C 
ATOM     28  C   UNL     1      -8.696   1.391   1.364  0.00  0.00    +0.015 C 
ENDBRANCH  20  15
ENDBRANCH   5  16
BRANCH  10   7
ATOM      7  C   UNL     1       0.870  -1.123  -0.693  0.00  0.00    +0.047 C 
ATOM      8  C   UNL     1       1.880  -1.084   0.473  0.00  0.00    +0.039 C 
ATOM      9  C   UNL     1       3.103  -1.877  -0.005  0.00  0.00    +0.097 C 
ATOM     11  C   UNL     1       1.322  -2.325  -1.471  0.00  0.00    -0.021 C 
ATOM     12  C   UNL     1       2.540  -2.729  -1.095  0.00  0.00    -0.009 C 
BRANCH   9   4
ATOM      1  O   UNL     1       5.352  -0.803   1.413  0.00  0.00    -0.276 OA
ATOM      4  N   UNL     1       4.134  -1.034  -0.549  0.00  0.00    -0.309 N 
ATOM     19  C   UNL     1       5.187  -0.562   0.220  0.00  0.00    +0.213 C 
ATOM     32  H   UNL     1       4.065  -0.742  -1.520  0.00  0.00    +0.149 HD
BRANCH  19  23
ATOM     23  C   UNL     1       6.117   0.327  -0.589  0.00  0.00    +0.096 C 
BRANCH  23  29
ATOM     29  C   UNL     1       7.296   0.874   0.214  0.00  0.00    +0.020 C 
BRANCH  29  30
ATOM     30  C   UNL     1       8.217   1.756  -0.631  0.00  0.00    +0.121 C 
BRANCH  30  31
ATOM      3  O   UNL     1      10.565   2.102  -0.084  0.00  0.00    -0.251 OA
ATOM     31  C   UNL     1       9.383   2.286   0.172  0.00  0.00    +0.305 C 
BRANCH  31   2
ATOM      2  O   UNL     1       8.959   3.012   1.240  0.00  0.00    -0.481 OA
ATOM     33  H   UNL     1       9.710   3.360   1.766  0.00  0.00    +0.295 HD
ENDBRANCH  31   2
ENDBRANCH  30  31
ENDBRANCH  29  30
ENDBRANCH  23  29
ENDBRANCH  19  23
ENDBRANCH   9   4
ENDBRANCH  10   7
TORSDOF 9
