REMARK  Name = 56775668
REMARK  11 active torsions:
REMARK  status: ('A' for Active; 'I' for Inactive)
REMARK    1  A    between atoms: N_3  and  C_5
REMARK    2  A    between atoms: N_3  and  C_9
REMARK    3  A    between atoms: N_3  and  C_10
REMARK    4  A    between atoms: C_5  and  C_8
REMARK    5  A    between atoms: C_8  and  C_11
REMARK    6  A    between atoms: C_9  and  C_12
REMARK    7  A    between atoms: C_10  and  C_13
REMARK    8  A    between atoms: C_15  and  C_16
REMARK    9  A    between atoms: C_16  and  C_17
REMARK   10  A    between atoms: C_17  and  C_18
REMARK   11  A    between atoms: C_17  and  C_19
REMARK                            x       y       z     vdW  Elec       q    Type
REMARK                         _______ _______ _______ _____ _____    ______ ____
ROOT
ATOM      8  C   UNL     1       1.124  -0.771   0.779  0.00  0.00    +0.085 C 
ENDROOT
BRANCH   8  11
ATOM      2  O   UNL     1      -2.054  -1.848  -0.444  0.00  0.00    -0.359 OA
ATOM      4  N   UNL     1      -0.666  -1.916  -0.401  0.00  0.00    -0.083 NA
ATOM     11  C   UNL     1      -0.302  -0.980   0.479  0.00  0.00    +0.086 A 
ATOM     14  C   UNL     1      -1.405  -0.295   1.019  0.00  0.00    +0.071 A 
ATOM     15  C   UNL     1      -2.482  -0.879   0.406  0.00  0.00    +0.138 A 
BRANCH  15  16
ATOM     16  C   UNL     1      -3.973  -0.666   0.488  0.00  0.00    +0.080 C 
BRANCH  16  17
ATOM     17  C   UNL     1      -4.414   0.779   0.182  0.00  0.00    -0.010 C 
ATOM     18  C   UNL     1      -5.931   0.903   0.342  0.00  0.00    +0.007 C 
ATOM     19  C   UNL     1      -4.007   1.218  -1.227  0.00  0.00    +0.007 C 
ENDBRANCH  16  17
ENDBRANCH  15  16
ENDBRANCH   8  11
BRANCH   8   5
ATOM      1  O   UNL     1       0.926   1.640  -1.582  0.00  0.00    -0.376 OA
ATOM      5  C   UNL     1       1.743   0.268  -0.165  0.00  0.00    +0.074 C 
ATOM      6  C   UNL     1       1.345   0.257  -1.637  0.00  0.00    +0.184 C 
ATOM      7  C   UNL     1       1.193   1.690  -0.162  0.00  0.00    +0.184 C 
BRANCH   5   3
ATOM      3  N   UNL     1       3.195   0.326  -0.072  0.00  0.00    -0.293 NA
BRANCH   3   9
ATOM      9  C   UNL     1       3.601   0.361   1.338  0.00  0.00    +0.082 C 
ATOM     12  C   UNL     1       3.025   1.577   2.045  0.00  0.00    +0.020 C 
ENDBRANCH   3   9
BRANCH   3  10
ATOM     10  C   UNL     1       3.782  -0.846  -0.734  0.00  0.00    +0.082 C 
ATOM     13  C   UNL     1       5.299  -0.818  -0.656  0.00  0.00    +0.020 C 
ENDBRANCH   3  10
ENDBRANCH   5   3
ENDBRANCH   8   5
TORSDOF 7
