REMARK  Name = 45783880
REMARK  12 active torsions:
REMARK  status: ('A' for Active; 'I' for Inactive)
REMARK    1  A    between atoms: O_2  and  C_25
REMARK    2  A    between atoms: N_3  and  C_12
REMARK    3  A    between atoms: N_4  and  C_24
REMARK    4  A    between atoms: C_7  and  C_11
REMARK    5  A    between atoms: C_8  and  C_12
REMARK    6  A    between atoms: C_10  and  C_15
REMARK    7  A    between atoms: C_11  and  C_18
REMARK    8  A    between atoms: C_11  and  C_19
REMARK    9  A    between atoms: C_14  and  C_22
REMARK   10  A    between atoms: C_15  and  C_23
REMARK   11  A    between atoms: C_24  and  C_25
REMARK   12  A    between atoms: C_26  and  C_27
REMARK                            x       y       z     vdW  Elec       q    Type
REMARK                         _______ _______ _______ _____ _____    ______ ____
ROOT
ATOM      7  C   UNL     1       0.469  -1.699  -0.589  0.00  0.00    +0.000 C 
ATOM      8  C   UNL     1       0.274  -1.380   0.911  0.00  0.00    +0.029 C 
ATOM      9  C   UNL     1       1.706  -0.974  -1.137  0.00  0.00    +0.012 C 
ATOM     10  C   UNL     1       3.002  -1.309  -0.367  0.00  0.00    +0.024 C 
ATOM     13  C   UNL     1       1.565  -1.435   1.688  0.00  0.00    -0.023 C 
ATOM     14  C   UNL     1       2.792  -1.416   1.135  0.00  0.00    -0.073 C 
ATOM     22  C   UNL     1       4.014  -1.563   1.999  0.00  0.00    +0.039 C 
ENDROOT
BRANCH   7  11
ATOM     11  C   UNL     1       0.560  -3.212  -0.832  0.00  0.00    -0.013 C 
ATOM     18  C   UNL     1      -0.819  -3.853  -0.717  0.00  0.00    +0.007 C 
ATOM     19  C   UNL     1       1.175  -3.495  -2.199  0.00  0.00    +0.007 C 
ENDBRANCH   7  11
BRANCH   8  12
ATOM     12  C   UNL     1      -0.381  -0.011   1.118  0.00  0.00    +0.092 C 
BRANCH  12   3
ATOM      3  N   UNL     1      -1.650   0.069   0.397  0.00  0.00    -0.299 NA
ATOM      4  N   UNL     1      -4.415   0.872   0.133  0.00  0.00    -0.298 NA
ATOM     16  C   UNL     1      -2.716  -0.613   1.141  0.00  0.00    +0.100 C 
ATOM     17  C   UNL     1      -2.017   1.467   0.140  0.00  0.00    +0.100 C 
ATOM     20  C   UNL     1      -4.049  -0.527   0.389  0.00  0.00    +0.100 C 
ATOM     21  C   UNL     1      -3.349   1.552  -0.613  0.00  0.00    +0.100 C 
BRANCH   4  24
ATOM     24  C   UNL     1      -5.685   0.952  -0.586  0.00  0.00    +0.112 C 
BRANCH  24  25
ATOM     25  C   UNL     1      -6.855   0.822   0.375  0.00  0.00    +0.171 C 
BRANCH  25   2
ATOM      2  O   UNL     1      -8.066   0.923  -0.363  0.00  0.00    -0.394 OA
ATOM     28  H   UNL     1      -8.796   0.845   0.274  0.00  0.00    +0.209 HD
ENDBRANCH  25   2
ENDBRANCH  24  25
ENDBRANCH   4  24
ENDBRANCH  12   3
ENDBRANCH   8  12
BRANCH  10  15
ATOM     15  C   UNL     1       4.076  -0.282  -0.747  0.00  0.00    +0.105 C 
BRANCH  15  23
ATOM      1  O   UNL     1       3.612   2.068  -1.212  0.00  0.00    -0.425 OA
ATOM      5  N   UNL     1       3.476   1.518   0.952  0.00  0.00    -0.112 NA
ATOM      6  N   UNL     1       3.194   2.867   0.835  0.00  0.00    -0.113 NA
ATOM     23  C   UNL     1       3.714   1.094  -0.267  0.00  0.00    +0.218 A 
ATOM     26  C   UNL     1       3.285   3.143  -0.444  0.00  0.00    +0.214 A 
ATOM     27  C   UNL     1       3.089   4.420  -1.142  0.00  0.00    +0.111 C 
ENDBRANCH  15  23
ENDBRANCH  10  15
TORSDOF 8
