REMARK  Name = 51137368
REMARK  5 active torsions:
REMARK  status: ('A' for Active; 'I' for Inactive)
REMARK    1  A    between atoms: N_2  and  C_7
REMARK    2  A    between atoms: N_3  and  C_17
REMARK    3  A    between atoms: C_9  and  C_16
REMARK    4  A    between atoms: C_18  and  C_19
REMARK    5  A    between atoms: C_19  and  C_20
REMARK                            x       y       z     vdW  Elec       q    Type
REMARK                         _______ _______ _______ _____ _____    ______ ____
ROOT
ATOM      1  O   UNL     1       0.963  -1.409  -0.327  0.00  0.00    -0.424 OA
ATOM      4  N   UNL     1       1.003  -3.544   0.339  0.00  0.00    -0.112 NA
ATOM      5  N   UNL     1       2.126  -3.317  -0.435  0.00  0.00    -0.112 NA
ATOM     16  C   UNL     1       0.354  -2.404   0.375  0.00  0.00    +0.222 A 
ATOM     18  C   UNL     1       2.061  -2.058  -0.802  0.00  0.00    +0.222 A 
ENDROOT
BRANCH  16   9
ATOM      2  N   UNL     1      -2.823  -0.662   0.924  0.00  0.00    -0.299 NA
ATOM      8  C   UNL     1      -2.033  -1.581   0.102  0.00  0.00    +0.097 C 
ATOM      9  C   UNL     1      -0.941  -2.054   1.071  0.00  0.00    +0.092 C 
ATOM     10  C   UNL     1      -1.836   0.125   1.664  0.00  0.00    +0.085 C 
ATOM     11  C   UNL     1      -0.830  -0.926   2.113  0.00  0.00    +0.029 C 
BRANCH   2   7
ATOM      3  N   UNL     1      -6.425   1.082  -0.505  0.00  0.00    -0.305 NA
ATOM      7  C   UNL     1      -3.716   0.173   0.125  0.00  0.00    +0.059 C 
ATOM     12  C   UNL     1      -4.482   1.144   1.027  0.00  0.00    +0.034 C 
ATOM     13  C   UNL     1      -4.701  -0.685  -0.674  0.00  0.00    +0.034 C 
ATOM     14  C   UNL     1      -5.495   1.960   0.220  0.00  0.00    +0.085 C 
ATOM     15  C   UNL     1      -5.707   0.190  -1.425  0.00  0.00    +0.085 C 
ATOM     17  C   UNL     1      -7.417   1.875  -1.230  0.00  0.00    +0.104 C 
ENDBRANCH   2   7
ENDBRANCH  16   9
BRANCH  18  19
ATOM     19  C   UNL     1       2.987  -1.277  -1.630  0.00  0.00    +0.135 C 
BRANCH  19  20
ATOM      6  N   UNL     1       5.657   0.432   0.277  0.00  0.00    -0.360 N 
ATOM     20  C   UNL     1       3.909  -0.345  -0.850  0.00  0.00    -0.013 A 
ATOM     21  C   UNL     1       3.645   1.008  -0.496  0.00  0.00    +0.003 A 
ATOM     22  C   UNL     1       5.153  -0.670  -0.361  0.00  0.00    +0.087 A 
ATOM     23  C   UNL     1       4.757   1.471   0.210  0.00  0.00    +0.047 A 
ATOM     24  C   UNL     1       2.563   1.885  -0.710  0.00  0.00    +0.010 A 
ATOM     25  C   UNL     1       4.841   2.773   0.716  0.00  0.00    +0.026 A 
ATOM     26  C   UNL     1       2.633   3.190  -0.210  0.00  0.00    +0.001 A 
ATOM     27  C   UNL     1       3.756   3.626   0.492  0.00  0.00    +0.002 A 
ATOM     28  H   UNL     1       6.558   0.476   0.732  0.00  0.00    +0.165 HD
ENDBRANCH  19  20
ENDBRANCH  18  19
TORSDOF 4
