REMARK  Name = 75536769
REMARK  7 active torsions:
REMARK  status: ('A' for Active; 'I' for Inactive)
REMARK    1  A    between atoms: O_2  and  C_9
REMARK    2  A    between atoms: N_4  and  C_8
REMARK    3  A    between atoms: N_4  and  C_13
REMARK    4  A    between atoms: N_5  and  C_12
REMARK    5  A    between atoms: N_6  and  C_18
REMARK    6  A    between atoms: C_10  and  C_12
REMARK    7  A    between atoms: C_13  and  C_14
REMARK                            x       y       z     vdW  Elec       q    Type
REMARK                         _______ _______ _______ _____ _____    ______ ____
ROOT
ATOM      1  O   UNL     1      -0.175  -1.252   0.021  0.00  0.00    -0.371 OA
ATOM      8  C   UNL     1      -2.122   0.093  -0.189  0.00  0.00    +0.111 C 
ATOM      9  C   UNL     1      -1.208   0.706   0.855  0.00  0.00    +0.164 C 
ATOM     10  C   UNL     1       0.127   0.075   0.482  0.00  0.00    +0.165 C 
ATOM     11  C   UNL     1      -1.583  -1.327  -0.265  0.00  0.00    +0.181 C 
ENDROOT
BRANCH   9   2
ATOM      2  O   UNL     1      -1.163   2.118   0.779  0.00  0.00    -0.388 OA
ATOM     27  H   UNL     1      -0.892   2.368  -0.120  0.00  0.00    +0.210 HD
ENDBRANCH   9   2
BRANCH   8   4
ATOM      4  N   UNL     1      -3.531   0.145   0.166  0.00  0.00    -0.303 NA
ATOM     26  H   UNL     1      -3.753   1.078   0.515  0.00  0.00    +0.123 HD
BRANCH   4  13
ATOM     13  C   UNL     1      -4.375  -0.139  -0.989  0.00  0.00    +0.137 C 
BRANCH  13  14
ATOM      7  N   UNL     1      -6.529   0.991  -1.021  0.00  0.00    -0.259 NA
ATOM     14  C   UNL     1      -5.838  -0.105  -0.636  0.00  0.00    +0.055 A 
ATOM     16  C   UNL     1      -6.395  -1.173   0.049  0.00  0.00    +0.024 A 
ATOM     17  C   UNL     1      -7.749  -1.112   0.359  0.00  0.00    +0.003 A 
ATOM     19  C   UNL     1      -7.843   1.014  -0.702  0.00  0.00    +0.111 A 
ATOM     20  C   UNL     1      -8.494  -0.001  -0.020  0.00  0.00    +0.020 A 
ENDBRANCH  13  14
ENDBRANCH   4  13
ENDBRANCH   8   4
BRANCH  10  12
ATOM     12  C   UNL     1       1.103   0.006   1.643  0.00  0.00    +0.140 C 
BRANCH  12   5
ATOM      3  O   UNL     1       3.407   1.351   0.602  0.00  0.00    -0.253 OA
ATOM      5  N   UNL     1       2.343  -0.598   1.248  0.00  0.00    -0.297 N 
ATOM      6  N   UNL     1       4.499  -0.722   0.445  0.00  0.00    -0.269 N 
ATOM     15  C   UNL     1       3.432   0.131   0.744  0.00  0.00    +0.304 C 
ATOM     28  H   UNL     1       2.430  -1.607   1.325  0.00  0.00    +0.150 HD
ATOM     29  H   UNL     1       4.354  -1.712   0.622  0.00  0.00    +0.156 HD
BRANCH   6  18
ATOM     18  C   UNL     1       5.766  -0.375  -0.079  0.00  0.00    +0.035 A 
ATOM     21  C   UNL     1       6.717  -1.367  -0.318  0.00  0.00    +0.023 A 
ATOM     22  C   UNL     1       6.065   0.959  -0.356  0.00  0.00    +0.023 A 
ATOM     23  C   UNL     1       7.967  -1.026  -0.835  0.00  0.00    +0.002 A 
ATOM     24  C   UNL     1       7.315   1.300  -0.873  0.00  0.00    +0.002 A 
ATOM     25  C   UNL     1       8.266   0.308  -1.112  0.00  0.00    +0.000 A 
ENDBRANCH   6  18
ENDBRANCH  12   5
ENDBRANCH  10  12
TORSDOF 7
