REMARK  Name = 56775498
REMARK  7 active torsions:
REMARK  status: ('A' for Active; 'I' for Inactive)
REMARK    1  A    between atoms: O_4  and  C_16
REMARK    2  A    between atoms: N_5  and  C_7
REMARK    3  A    between atoms: N_5  and  C_11
REMARK    4  A    between atoms: C_7  and  C_10
REMARK    5  A    between atoms: C_10  and  C_12
REMARK    6  A    between atoms: C_11  and  C_13
REMARK    7  A    between atoms: C_15  and  C_18
REMARK                            x       y       z     vdW  Elec       q    Type
REMARK                         _______ _______ _______ _____ _____    ______ ____
ROOT
ATOM      2  O   UNL     1      -2.853  -3.659   1.152  0.00  0.00    -0.376 OA
ATOM      7  C   UNL     1      -1.828  -2.191  -0.010  0.00  0.00    +0.072 C 
ATOM      8  C   UNL     1      -1.551  -3.036   1.229  0.00  0.00    +0.184 C 
ATOM      9  C   UNL     1      -3.143  -2.959  -0.079  0.00  0.00    +0.184 C 
ENDROOT
BRANCH   7   5
ATOM      5  N   UNL     1      -2.106  -0.824   0.408  0.00  0.00    -0.302 NA
ATOM     27  H   UNL     1      -1.319  -0.331   0.829  0.00  0.00    +0.123 HD
BRANCH   5  11
ATOM     11  C   UNL     1      -2.619  -0.056  -0.725  0.00  0.00    +0.120 C 
BRANCH  11  13
ATOM     13  C   UNL     1      -3.460   1.110  -0.276  0.00  0.00    +0.008 A 
ATOM     16  C   UNL     1      -2.953   2.409  -0.307  0.00  0.00    +0.121 A 
ATOM     17  C   UNL     1      -4.760   0.879   0.173  0.00  0.00    +0.008 A 
ATOM     19  C   UNL     1      -3.745   3.477   0.111  0.00  0.00    +0.046 A 
ATOM     20  C   UNL     1      -5.553   1.948   0.592  0.00  0.00    +0.001 A 
ATOM     21  C   UNL     1      -5.045   3.247   0.561  0.00  0.00    +0.004 A 
BRANCH  16   4
ATOM      4  O   UNL     1      -1.685   2.651  -0.744  0.00  0.00    -0.506 OA
ATOM     28  H   UNL     1      -1.509   3.607  -0.694  0.00  0.00    +0.292 HD
ENDBRANCH  16   4
ENDBRANCH  11  13
ENDBRANCH   5  11
ENDBRANCH   7   5
BRANCH   7  10
ATOM     10  C   UNL     1      -0.859  -2.269  -1.197  0.00  0.00    +0.085 C 
BRANCH  10  12
ATOM      3  O   UNL     1       2.526  -2.135  -0.065  0.00  0.00    -0.354 OA
ATOM      6  N   UNL     1       1.353  -2.823  -0.351  0.00  0.00    -0.083 NA
ATOM     12  C   UNL     1       0.505  -1.890  -0.794  0.00  0.00    +0.086 A 
ATOM     14  C   UNL     1       1.082  -0.608  -0.809  0.00  0.00    +0.076 A 
ATOM     15  C   UNL     1       2.352  -0.818  -0.341  0.00  0.00    +0.167 A 
BRANCH  15  18
ATOM      1  F   UNL     1       6.761   2.454   0.610  0.00  0.00    -0.205 F 
ATOM     18  C   UNL     1       3.493   0.030  -0.094  0.00  0.00    +0.020 A 
ATOM     22  C   UNL     1       3.414   1.399  -0.349  0.00  0.00    +0.014 A 
ATOM     23  C   UNL     1       4.676  -0.520   0.399  0.00  0.00    +0.014 A 
ATOM     24  C   UNL     1       4.518   2.218  -0.112  0.00  0.00    +0.039 A 
ATOM     25  C   UNL     1       5.780   0.299   0.637  0.00  0.00    +0.039 A 
ATOM     26  C   UNL     1       5.701   1.668   0.382  0.00  0.00    +0.123 A 
ENDBRANCH  15  18
ENDBRANCH  10  12
ENDBRANCH   7  10
TORSDOF 7
