REMARK  Name = 45783597
REMARK  8 active torsions:
REMARK  status: ('A' for Active; 'I' for Inactive)
REMARK    1  A    between atoms: S_1  and  N_9
REMARK    2  A    between atoms: S_1  and  C_30
REMARK    3  A    between atoms: O_3  and  C_24
REMARK    4  A    between atoms: O_3  and  C_29
REMARK    5  A    between atoms: N_6  and  C_15
REMARK    6  A    between atoms: C_11  and  C_16
REMARK    7  A    between atoms: C_15  and  C_17
REMARK    8  A    between atoms: C_20  and  C_23
REMARK                            x       y       z     vdW  Elec       q    Type
REMARK                         _______ _______ _______ _____ _____    ______ ____
ROOT
ATOM      2  O   UNL     1      -2.365  -1.353   2.078  0.00  0.00    -0.336 OA
ATOM      7  N   UNL     1      -1.058  -1.081   0.279  0.00  0.00    -0.190 NA
ATOM      8  N   UNL     1      -1.045  -1.404   2.544  0.00  0.00    -0.056 NA
ATOM     16  C   UNL     1      -2.283  -1.161   0.735  0.00  0.00    +0.245 A 
ATOM     20  C   UNL     1      -0.334  -1.236   1.425  0.00  0.00    +0.202 A 
ENDROOT
BRANCH  20  23
ATOM      9  N   UNL     1       3.935  -1.678  -0.904  0.00  0.00    -0.204 N 
ATOM     10  N   UNL     1       3.895  -1.191   1.404  0.00  0.00    -0.239 NA
ATOM     23  C   UNL     1       1.100  -1.220   1.417  0.00  0.00    +0.027 A 
ATOM     25  C   UNL     1       1.795  -1.462   0.238  0.00  0.00    +0.056 A 
ATOM     26  C   UNL     1       1.801  -0.963   2.591  0.00  0.00    +0.031 A 
ATOM     27  C   UNL     1       3.180  -1.436   0.284  0.00  0.00    +0.138 A 
ATOM     28  C   UNL     1       3.186  -0.960   2.531  0.00  0.00    +0.113 A 
ATOM     31  H   UNL     1       4.856  -2.093  -0.711  0.00  0.00    +0.175 HD
BRANCH   9   1
ATOM      1  S   UNL     1       3.923  -0.473  -2.135  0.00  0.00    +0.041 S 
ATOM      4  O   UNL     1       4.528  -1.033  -3.329  0.00  0.00    -0.155 OA
ATOM      5  O   UNL     1       2.634   0.186  -2.201  0.00  0.00    -0.155 OA
ATOM     30  C   UNL     1       5.093   0.681  -1.456  0.00  0.00    +0.218 C 
ENDBRANCH   9   1
ENDBRANCH  20  23
BRANCH  16  11
ATOM      6  N   UNL     1      -3.490  -0.259  -1.246  0.00  0.00    -0.287 NA
ATOM     11  C   UNL     1      -3.595  -1.068  -0.015  0.00  0.00    +0.146 C 
ATOM     12  C   UNL     1      -4.106  -2.441  -0.491  0.00  0.00    +0.030 C 
ATOM     13  C   UNL     1      -4.316  -2.288  -1.991  0.00  0.00    +0.017 C 
ATOM     14  C   UNL     1      -4.483  -0.793  -2.178  0.00  0.00    +0.085 C 
BRANCH   6  15
ATOM     15  C   UNL     1      -3.669   1.168  -1.012  0.00  0.00    +0.120 C 
BRANCH  15  17
ATOM     17  C   UNL     1      -2.419   1.809  -0.470  0.00  0.00    -0.033 A 
ATOM     18  C   UNL     1      -2.448   2.465   0.761  0.00  0.00    +0.008 A 
ATOM     19  C   UNL     1      -1.232   1.747  -1.200  0.00  0.00    +0.008 A 
ATOM     21  C   UNL     1      -1.289   3.058   1.262  0.00  0.00    +0.046 A 
ATOM     22  C   UNL     1      -0.073   2.341  -0.699  0.00  0.00    +0.046 A 
ATOM     24  C   UNL     1      -0.102   2.996   0.532  0.00  0.00    +0.120 A 
BRANCH  24   3
ATOM      3  O   UNL     1       1.028   3.574   1.022  0.00  0.00    -0.495 OA
ATOM     29  C   UNL     1       2.207   3.473   0.224  0.00  0.00    +0.277 C 
ENDBRANCH  24   3
ENDBRANCH  15  17
ENDBRANCH   6  15
ENDBRANCH  16  11
TORSDOF 6
