REMARK  Name = 7135169
REMARK  9 active torsions:
REMARK  status: ('A' for Active; 'I' for Inactive)
REMARK    1  A    between atoms: O_2  and  C_15
REMARK    2  A    between atoms: O_3  and  C_20
REMARK    3  A    between atoms: C_10  and  C_18
REMARK    4  A    between atoms: C_12  and  C_20
REMARK    5  A    between atoms: C_12  and  C_21
REMARK    6  A    between atoms: C_13  and  C_23
REMARK    7  A    between atoms: C_23  and  C_24
REMARK    8  A    between atoms: C_30  and  C_31
REMARK    9  A    between atoms: C_32  and  C_33
REMARK                            x       y       z     vdW  Elec       q    Type
REMARK                         _______ _______ _______ _____ _____    ______ ____
ROOT
ATOM      1  S   UNL     1       0.369   3.359   0.203  0.00  0.00    -0.057 S 
ATOM      5  O   UNL     1       3.907   0.417  -0.236  0.00  0.00    -0.266 OA
ATOM      7  N   UNL     1       1.030   0.876  -0.095  0.00  0.00    -0.229 NA
ATOM      9  N   UNL     1       2.831   2.473   0.029  0.00  0.00    -0.258 N 
ATOM     10  C   UNL     1      -2.695  -0.031   0.322  0.00  0.00    -0.019 C 
ATOM     11  C   UNL     1      -3.182   1.342  -0.322  0.00  0.00    +0.011 C 
ATOM     12  C   UNL     1      -4.734   1.622  -0.320  0.00  0.00    +0.021 C 
ATOM     13  C   UNL     1      -1.199  -0.303  -0.171  0.00  0.00    +0.054 C 
ATOM     14  C   UNL     1      -3.595  -1.187  -0.186  0.00  0.00    +0.010 C 
ATOM     15  C   UNL     1      -5.485   0.351  -0.810  0.00  0.00    +0.123 C 
ATOM     16  C   UNL     1      -2.328   2.541   0.182  0.00  0.00    +0.049 C 
ATOM     17  C   UNL     1      -5.086  -0.911  -0.054  0.00  0.00    +0.032 C 
ATOM     18  C   UNL     1      -2.732  -0.015   1.870  0.00  0.00    +0.012 C 
ATOM     19  C   UNL     1      -0.350   0.935  -0.036  0.00  0.00    +0.058 A 
ATOM     21  C   UNL     1      -5.045   2.761  -1.332  0.00  0.00    +0.016 C 
ATOM     22  C   UNL     1      -0.877   2.203   0.103  0.00  0.00    +0.015 A 
ATOM     25  C   UNL     1       1.515   2.092   0.027  0.00  0.00    +0.165 A 
ATOM     32  C   UNL     1       3.962   1.637  -0.100  0.00  0.00    +0.285 C 
ATOM     39  H   UNL     1       2.988   3.471   0.144  0.00  0.00    +0.157 HD
ENDROOT
BRANCH  32  33
ATOM      6  O   UNL     1       5.255   3.673   0.177  0.00  0.00    -0.458 OA
ATOM     33  C   UNL     1       5.261   2.328  -0.015  0.00  0.00    +0.189 A 
ATOM     34  C   UNL     1       6.552   1.858  -0.094  0.00  0.00    +0.054 A 
ATOM     35  C   UNL     1       7.392   2.986   0.059  0.00  0.00    +0.042 A 
ATOM     36  C   UNL     1       6.555   4.066   0.221  0.00  0.00    +0.196 A 
ENDBRANCH  32  33
BRANCH  15   2
ATOM      2  O   UNL     1      -6.897   0.527  -0.698  0.00  0.00    -0.391 OA
ATOM     37  H   UNL     1      -7.322  -0.270  -1.058  0.00  0.00    +0.210 HD
ENDBRANCH  15   2
BRANCH  12  20
ATOM     20  C   UNL     1      -5.297   2.105   1.035  0.00  0.00    +0.165 C 
BRANCH  20   3
ATOM      3  O   UNL     1      -6.681   2.321   0.875  0.00  0.00    -0.394 OA
ATOM     38  H   UNL     1      -7.026   2.635   1.728  0.00  0.00    +0.209 HD
ENDBRANCH  20   3
ENDBRANCH  12  20
BRANCH  13  23
ATOM     23  C   UNL     1      -0.525  -1.519   0.478  0.00  0.00    +0.106 C 
BRANCH  23  24
ATOM      4  O   UNL     1       0.702  -1.546  -1.548  0.00  0.00    -0.276 OA
ATOM      8  N   UNL     1       1.232  -3.190   0.005  0.00  0.00    -0.301 N 
ATOM     24  C   UNL     1       0.522  -2.079  -0.451  0.00  0.00    +0.216 C 
ATOM     26  C   UNL     1       1.041  -3.846   1.304  0.00  0.00    +0.108 C 
ATOM     27  C   UNL     1       2.292  -3.768  -0.823  0.00  0.00    +0.108 C 
ATOM     28  C   UNL     1       0.780  -5.341   1.122  0.00  0.00    +0.022 C 
ATOM     29  C   UNL     1       2.055  -5.259  -1.050  0.00  0.00    +0.022 C 
ATOM     30  C   UNL     1       1.883  -6.003   0.284  0.00  0.00    -0.011 C 
ATOM     31  C   UNL     1       1.574  -7.479   0.046  0.00  0.00    +0.007 C 
ENDBRANCH  23  24
ENDBRANCH  13  23
TORSDOF 6
