REMARK  Name = 56775473
REMARK  6 active torsions:
REMARK  status: ('A' for Active; 'I' for Inactive)
REMARK    1  A    between atoms: N_5  and  C_8
REMARK    2  A    between atoms: N_5  and  C_9
REMARK    3  A    between atoms: C_8  and  C_12
REMARK    4  A    between atoms: C_12  and  C_17
REMARK    5  A    between atoms: C_18  and  C_21
REMARK    6  A    between atoms: C_20  and  C_22
REMARK                            x       y       z     vdW  Elec       q    Type
REMARK                         _______ _______ _______ _____ _____    ______ ____
ROOT
ATOM      2  O   UNL     1       0.233  -1.928  -2.373  0.00  0.00    -0.376 OA
ATOM      8  C   UNL     1       1.087  -1.553  -0.454  0.00  0.00    +0.072 C 
ATOM     10  C   UNL     1       0.343  -2.688  -1.148  0.00  0.00    +0.184 C 
ATOM     11  C   UNL     1       0.849  -0.781  -1.746  0.00  0.00    +0.184 C 
ENDROOT
BRANCH   8   5
ATOM      5  N   UNL     1       2.508  -1.904  -0.368  0.00  0.00    -0.304 NA
ATOM     28  H   UNL     1       2.958  -2.109  -1.260  0.00  0.00    +0.123 HD
BRANCH   5   9
ATOM      4  O   UNL     1       6.311   2.917  -0.689  0.00  0.00    -0.276 OA
ATOM      6  N   UNL     1       5.363   1.110   0.422  0.00  0.00    -0.302 N 
ATOM      9  C   UNL     1       3.226  -0.840   0.330  0.00  0.00    +0.057 C 
ATOM     13  C   UNL     1       3.165   0.459  -0.484  0.00  0.00    +0.037 C 
ATOM     14  C   UNL     1       4.683  -1.256   0.568  0.00  0.00    +0.037 C 
ATOM     15  C   UNL     1       3.990   1.558   0.182  0.00  0.00    +0.109 C 
ATOM     16  C   UNL     1       5.479  -0.122   1.213  0.00  0.00    +0.109 C 
ATOM     18  C   UNL     1       6.434   1.865  -0.057  0.00  0.00    +0.212 C 
ATOM     21  C   UNL     1       7.816   1.335   0.229  0.00  0.00    +0.109 C 
ENDBRANCH   5   9
ENDBRANCH   8   5
BRANCH   8  12
ATOM     12  C   UNL     1       0.542  -1.007   0.831  0.00  0.00    +0.085 C 
BRANCH  12  17
ATOM      3  O   UNL     1      -3.031  -1.517   0.992  0.00  0.00    -0.354 OA
ATOM      7  N   UNL     1      -1.720  -1.938   1.171  0.00  0.00    -0.083 NA
ATOM     17  C   UNL     1      -0.968  -0.907   0.775  0.00  0.00    +0.086 A 
ATOM     19  C   UNL     1      -1.742   0.182   0.340  0.00  0.00    +0.076 A 
ATOM     20  C   UNL     1      -3.032  -0.253   0.497  0.00  0.00    +0.167 A 
BRANCH  20  22
ATOM      1  F   UNL     1      -8.046   1.978  -0.417  0.00  0.00    -0.205 F 
ATOM     22  C   UNL     1      -4.324   0.322   0.260  0.00  0.00    +0.020 A 
ATOM     23  C   UNL     1      -4.430   1.618  -0.246  0.00  0.00    +0.014 A 
ATOM     24  C   UNL     1      -5.476  -0.414   0.537  0.00  0.00    +0.014 A 
ATOM     25  C   UNL     1      -5.687   2.177  -0.474  0.00  0.00    +0.039 A 
ATOM     26  C   UNL     1      -6.733   0.145   0.308  0.00  0.00    +0.039 A 
ATOM     27  C   UNL     1      -6.838   1.441  -0.198  0.00  0.00    +0.123 A 
ENDBRANCH  20  22
ENDBRANCH  12  17
ENDBRANCH   8  12
TORSDOF 5
