REMARK  Name = 56774693
REMARK  9 active torsions:
REMARK  status: ('A' for Active; 'I' for Inactive)
REMARK    1  A    between atoms: O_2  and  C_8
REMARK    2  A    between atoms: N_5  and  C_10
REMARK    3  A    between atoms: N_6  and  C_21
REMARK    4  A    between atoms: C_7  and  C_8
REMARK    5  A    between atoms: C_8  and  C_13
REMARK    6  A    between atoms: C_10  and  C_11
REMARK    7  A    between atoms: C_11  and  C_15
REMARK    8  A    between atoms: C_15  and  C_18
REMARK    9  A    between atoms: C_27  and  C_28
REMARK                            x       y       z     vdW  Elec       q    Type
REMARK                         _______ _______ _______ _____ _____    ______ ____
ROOT
ATOM      1  O   UNL     1       0.250   2.440   1.654  0.00  0.00    -0.369 OA
ATOM      3  O   UNL     1      -2.768   3.052  -0.233  0.00  0.00    -0.273 OA
ATOM      5  N   UNL     1      -1.243   1.304  -0.429  0.00  0.00    -0.292 N 
ATOM      7  C   UNL     1       0.066   0.765  -0.041  0.00  0.00    +0.135 C 
ATOM      9  C   UNL     1       0.324   1.036   1.436  0.00  0.00    +0.185 C 
ATOM     12  C   UNL     1      -1.765   2.454   0.161  0.00  0.00    +0.242 C 
ATOM     14  C   UNL     1      -1.058   2.918   1.429  0.00  0.00    +0.255 C 
ENDROOT
BRANCH   7   8
ATOM      8  C   UNL     1       1.175   1.361  -0.913  0.00  0.00    +0.167 C 
BRANCH   8  13
ATOM     13  C   UNL     1       2.528   0.798  -0.561  0.00  0.00    -0.017 A 
ATOM     16  C   UNL     1       3.553   1.650  -0.151  0.00  0.00    +0.008 A 
ATOM     17  C   UNL     1       2.755  -0.576  -0.646  0.00  0.00    +0.008 A 
ATOM     19  C   UNL     1       4.806   1.129   0.174  0.00  0.00    +0.023 A 
ATOM     20  C   UNL     1       4.007  -1.097  -0.321  0.00  0.00    +0.023 A 
ATOM     21  C   UNL     1       5.032  -0.245   0.089  0.00  0.00    +0.033 A 
BRANCH  21   6
ATOM      4  O   UNL     1       6.031  -3.086   0.072  0.00  0.00    -0.276 OA
ATOM      6  N   UNL     1       6.285  -0.767   0.415  0.00  0.00    -0.286 N 
ATOM     27  C   UNL     1       6.697  -2.106   0.390  0.00  0.00    +0.214 C 
ATOM     28  C   UNL     1       8.136  -2.255   0.815  0.00  0.00    +0.109 C 
ATOM     30  H   UNL     1       6.979  -0.081   0.705  0.00  0.00    +0.155 HD
ENDBRANCH  21   6
ENDBRANCH   8  13
BRANCH   8   2
ATOM      2  O   UNL     1       0.891   1.096  -2.282  0.00  0.00    -0.385 OA
ATOM     29  H   UNL     1       0.902   0.135  -2.426  0.00  0.00    +0.210 HD
ENDBRANCH   8   2
ENDBRANCH   7   8
BRANCH   5  10
ATOM     10  C   UNL     1      -1.903   0.705  -1.582  0.00  0.00    +0.108 C 
BRANCH  10  11
ATOM     11  C   UNL     1      -3.333   0.263  -1.277  0.00  0.00    +0.024 C 
BRANCH  11  15
ATOM     15  C   UNL     1      -3.449  -0.801  -0.178  0.00  0.00    +0.036 C 
BRANCH  15  18
ATOM     18  C   UNL     1      -4.862  -1.254   0.086  0.00  0.00    -0.047 A 
ATOM     22  C   UNL     1      -5.640  -0.594   1.037  0.00  0.00    +0.003 A 
ATOM     23  C   UNL     1      -5.392  -2.333  -0.621  0.00  0.00    +0.003 A 
ATOM     24  C   UNL     1      -6.948  -1.013   1.281  0.00  0.00    +0.000 A 
ATOM     25  C   UNL     1      -6.700  -2.752  -0.377  0.00  0.00    +0.000 A 
ATOM     26  C   UNL     1      -7.478  -2.092   0.574  0.00  0.00    +0.000 A 
ENDBRANCH  15  18
ENDBRANCH  11  15
ENDBRANCH  10  11
ENDBRANCH   5  10
TORSDOF 8
