REMARK  Name = 45783937
REMARK  10 active torsions:
REMARK  status: ('A' for Active; 'I' for Inactive)
REMARK    1  A    between atoms: N_2  and  C_13
REMARK    2  A    between atoms: C_8  and  C_12
REMARK    3  A    between atoms: C_9  and  C_13
REMARK    4  A    between atoms: C_11  and  C_16
REMARK    5  A    between atoms: C_12  and  C_17
REMARK    6  A    between atoms: C_12  and  C_18
REMARK    7  A    between atoms: C_15  and  C_21
REMARK    8  A    between atoms: C_16  and  C_24
REMARK    9  A    between atoms: C_26  and  C_28
REMARK   10  A    between atoms: C_35  and  C_36
REMARK                            x       y       z     vdW  Elec       q    Type
REMARK                         _______ _______ _______ _____ _____    ______ ____
ROOT
ATOM      8  C   UNL     1      -0.142  -2.174  -0.748  0.00  0.00    +0.000 C 
ATOM      9  C   UNL     1      -0.942  -2.948   0.326  0.00  0.00    +0.029 C 
ATOM     10  C   UNL     1       1.232  -1.762  -0.203  0.00  0.00    +0.012 C 
ATOM     11  C   UNL     1       2.072  -2.955   0.303  0.00  0.00    +0.024 C 
ATOM     14  C   UNL     1      -0.101  -3.967   1.052  0.00  0.00    -0.023 C 
ATOM     15  C   UNL     1       1.244  -3.994   1.044  0.00  0.00    -0.073 C 
ATOM     21  C   UNL     1       1.984  -5.109   1.732  0.00  0.00    +0.039 C 
ENDROOT
BRANCH   8  12
ATOM     12  C   UNL     1      -0.005  -2.991  -2.040  0.00  0.00    -0.013 C 
ATOM     17  C   UNL     1      -1.379  -3.420  -2.546  0.00  0.00    +0.007 C 
ATOM     18  C   UNL     1       0.736  -2.186  -3.102  0.00  0.00    +0.007 C 
ENDBRANCH   8  12
BRANCH   9  13
ATOM     13  C   UNL     1      -1.580  -2.001   1.348  0.00  0.00    +0.092 C 
BRANCH  13   2
ATOM      2  N   UNL     1      -2.424  -1.012   0.680  0.00  0.00    -0.299 NA
ATOM      3  N   UNL     1      -4.734   0.630   0.323  0.00  0.00    -0.312 N 
ATOM      6  N   UNL     1      -6.306   1.513  -1.225  0.00  0.00    -0.237 NA
ATOM      7  N   UNL     1      -7.412   3.034   0.856  0.00  0.00    -0.258 NA
ATOM     19  C   UNL     1      -2.658   0.142   1.556  0.00  0.00    +0.103 C 
ATOM     20  C   UNL     1      -3.706  -1.609   0.288  0.00  0.00    +0.103 C 
ATOM     22  C   UNL     1      -3.494   1.211   0.848  0.00  0.00    +0.122 C 
ATOM     23  C   UNL     1      -4.576  -0.599  -0.464  0.00  0.00    +0.122 C 
ATOM     25  C   UNL     1      -5.821   1.462   0.032  0.00  0.00    +0.140 A 
ATOM     27  C   UNL     1      -6.364   2.209   1.054  0.00  0.00    +0.154 A 
ATOM     29  C   UNL     1      -7.353   2.338  -1.422  0.00  0.00    +0.132 A 
ATOM     30  C   UNL     1      -7.897   3.084  -0.400  0.00  0.00    +0.130 A 
ENDBRANCH  13   2
ENDBRANCH   9  13
BRANCH  11  16
ATOM     16  C   UNL     1       3.238  -2.414   1.139  0.00  0.00    +0.105 C 
BRANCH  16  24
ATOM      1  O   UNL     1       3.838  -0.089   0.705  0.00  0.00    -0.420 OA
ATOM      4  N   UNL     1       4.912  -1.568  -0.584  0.00  0.00    -0.112 NA
ATOM      5  N   UNL     1       5.345  -0.303  -0.934  0.00  0.00    -0.107 NA
ATOM     24  C   UNL     1       4.034  -1.395   0.376  0.00  0.00    +0.218 A 
ATOM     26  C   UNL     1       4.691   0.529  -0.157  0.00  0.00    +0.248 A 
BRANCH  26  28
ATOM     28  C   UNL     1       4.737   1.960  -0.077  0.00  0.00    +0.038 A 
ATOM     31  C   UNL     1       5.584   2.679  -0.921  0.00  0.00    +0.013 A 
ATOM     32  C   UNL     1       3.936   2.634   0.845  0.00  0.00    +0.013 A 
ATOM     33  C   UNL     1       5.629   4.071  -0.844  0.00  0.00    +0.004 A 
ATOM     34  C   UNL     1       3.980   4.025   0.922  0.00  0.00    +0.004 A 
ATOM     35  C   UNL     1       4.827   4.744   0.078  0.00  0.00    -0.050 A 
ATOM     36  C   UNL     1       4.875   6.232   0.161  0.00  0.00    +0.044 C 
ENDBRANCH  26  28
ENDBRANCH  16  24
ENDBRANCH  11  16
TORSDOF 6
