REMARK  Name = 11887647
REMARK  5 active torsions:
REMARK  status: ('A' for Active; 'I' for Inactive)
REMARK    1  A    between atoms: S_2  and  N_6
REMARK    2  A    between atoms: S_2  and  C_19
REMARK    3  A    between atoms: C_17  and  C_20
REMARK    4  A    between atoms: C_23  and  C_29
REMARK    5  A    between atoms: C_27  and  C_32
REMARK                            x       y       z     vdW  Elec       q    Type
REMARK                         _______ _______ _______ _____ _____    ______ ____
ROOT
ATOM      5  O   UNL     1      -2.882   1.110  -1.764  0.00  0.00    -0.267 OA
ATOM      6  N   UNL     1       1.824   0.224  -0.380  0.00  0.00    -0.176 NA
ATOM      7  N   UNL     1      -1.059   1.517  -0.368  0.00  0.00    -0.311 N 
ATOM      8  C   UNL     1       1.154   2.474  -1.233  0.00  0.00    +0.025 C 
ATOM      9  C   UNL     1       0.901   1.950   1.153  0.00  0.00    +0.052 C 
ATOM     10  C   UNL     1       1.290   3.051   0.170  0.00  0.00    +0.017 C 
ATOM     11  C   UNL     1       2.089   1.266  -1.413  0.00  0.00    +0.114 C 
ATOM     12  C   UNL     1       1.874   0.765   1.011  0.00  0.00    +0.119 C 
ATOM     13  C   UNL     1      -0.317   2.119  -1.484  0.00  0.00    +0.130 C 
ATOM     14  C   UNL     1      -0.527   1.492   0.923  0.00  0.00    +0.026 A 
ATOM     15  C   UNL     1      -1.269   1.044   1.948  0.00  0.00    +0.022 A 
ATOM     16  C   UNL     1      -2.366   1.071  -0.646  0.00  0.00    +0.259 A 
ATOM     17  C   UNL     1      -3.160   0.540   0.517  0.00  0.00    +0.047 A 
ATOM     18  C   UNL     1      -2.602   0.556   1.737  0.00  0.00    +0.015 A 
ENDROOT
BRANCH  17  20
ATOM     20  C   UNL     1      -4.520   0.004   0.333  0.00  0.00    -0.010 A 
ATOM     23  C   UNL     1      -4.742  -1.345   0.048  0.00  0.00    -0.040 A 
ATOM     24  C   UNL     1      -5.606   0.876   0.447  0.00  0.00    +0.009 A 
ATOM     27  C   UNL     1      -6.043  -1.820  -0.121  0.00  0.00    -0.047 A 
ATOM     29  C   UNL     1      -3.589  -2.292  -0.078  0.00  0.00    +0.044 C 
ATOM     30  C   UNL     1      -6.906   0.400   0.278  0.00  0.00    +0.001 A 
ATOM     31  C   UNL     1      -7.125  -0.948  -0.006  0.00  0.00    +0.003 A 
ATOM     32  C   UNL     1      -6.305  -3.259  -0.427  0.00  0.00    +0.044 C 
ENDBRANCH  17  20
BRANCH   6   2
ATOM      2  S   UNL     1       2.615  -1.274  -0.620  0.00  0.00    +0.061 S 
ATOM      3  O   UNL     1       2.621  -1.570  -2.038  0.00  0.00    -0.153 OA
ATOM      4  O   UNL     1       2.136  -2.227   0.360  0.00  0.00    -0.153 OA
BRANCH   2  19
ATOM      1 CL   UNL     1       8.639  -0.480   0.871  0.00  0.00    -0.084 Cl
ATOM     19  C   UNL     1       4.338  -1.047  -0.193  0.00  0.00    +0.106 A 
ATOM     21  C   UNL     1       4.725  -1.274   1.105  0.00  0.00    +0.030 A 
ATOM     22  C   UNL     1       5.209  -0.653  -1.180  0.00  0.00    +0.030 A 
ATOM     25  C   UNL     1       6.069  -1.097   1.437  0.00  0.00    +0.022 A 
ATOM     26  C   UNL     1       6.552  -0.476  -0.847  0.00  0.00    +0.022 A 
ATOM     28  C   UNL     1       6.982  -0.698   0.461  0.00  0.00    +0.041 A 
ENDBRANCH   2  19
ENDBRANCH   6   2
TORSDOF 3
