REMARK  Name = 7685286
REMARK  1 active torsions:
REMARK  status: ('A' for Active; 'I' for Inactive)
REMARK    1  A    between atoms: C_12  and  C_16
REMARK                            x       y       z     vdW  Elec       q    Type
REMARK                         _______ _______ _______ _____ _____    ______ ____
ROOT
ATOM      2  O   UNL     1      -2.776   2.712   0.124  0.00  0.00    -0.268 OA
ATOM      3  N   UNL     1      -1.502   0.769  -0.178  0.00  0.00    -0.311 N 
ATOM      4  N   UNL     1      -1.635  -1.956   1.474  0.00  0.00    -0.315 NA
ATOM      5  C   UNL     1      -2.594  -1.472  -0.785  0.00  0.00    +0.023 C 
ATOM      6  C   UNL     1      -0.172  -1.343  -0.462  0.00  0.00    +0.051 C 
ATOM      7  C   UNL     1      -1.259  -1.769  -1.446  0.00  0.00    +0.017 C 
ATOM      8  C   UNL     1      -2.711   0.041  -0.587  0.00  0.00    +0.130 C 
ATOM      9  C   UNL     1      -0.228   0.166  -0.190  0.00  0.00    +0.034 A 
ATOM     10  C   UNL     1      -2.720  -2.249   0.538  0.00  0.00    +0.086 C 
ATOM     11  C   UNL     1      -0.325  -2.145   0.850  0.00  0.00    +0.090 C 
ATOM     12  C   UNL     1       0.879   0.918   0.053  0.00  0.00    +0.009 A 
ATOM     13  C   UNL     1      -1.690   2.133   0.112  0.00  0.00    +0.252 A 
ATOM     14  C   UNL     1       0.721   2.328   0.361  0.00  0.00    +0.016 A 
ATOM     15  C   UNL     1      -0.472   2.919   0.409  0.00  0.00    +0.071 A 
ATOM     20  H   UNL     1      -1.716  -2.558   2.292  0.00  0.00    +0.122 HD
ENDROOT
BRANCH  12  16
ATOM      1  S   UNL     1       3.058   0.282  -1.413  0.00  0.00    -0.097 S 
ATOM     16  C   UNL     1       2.154   0.311   0.041  0.00  0.00    +0.021 A 
ATOM     17  C   UNL     1       2.824  -0.299   1.079  0.00  0.00    +0.016 A 
ATOM     18  C   UNL     1       4.096  -0.796   0.675  0.00  0.00    +0.008 A 
ATOM     19  C   UNL     1       4.351  -0.548  -0.656  0.00  0.00    +0.046 A 
ENDBRANCH  12  16
TORSDOF 1
