REMARK  Name = 75536698
REMARK  8 active torsions:
REMARK  status: ('A' for Active; 'I' for Inactive)
REMARK    1  A    between atoms: S_1  and  N_7
REMARK    2  A    between atoms: S_1  and  C_18
REMARK    3  A    between atoms: O_3  and  C_10
REMARK    4  A    between atoms: N_6  and  C_8
REMARK    5  A    between atoms: N_6  and  C_9
REMARK    6  A    between atoms: N_7  and  C_17
REMARK    7  A    between atoms: C_13  and  C_17
REMARK    8  A    between atoms: C_23  and  C_24
REMARK                            x       y       z     vdW  Elec       q    Type
REMARK                         _______ _______ _______ _____ _____    ______ ____
ROOT
ATOM      2  O   UNL     1      -1.044   0.870  -1.336  0.00  0.00    -0.371 OA
ATOM      9  C   UNL     1      -2.885   0.228   0.020  0.00  0.00    +0.111 C 
ATOM     10  C   UNL     1      -1.606   0.088   0.824  0.00  0.00    +0.164 C 
ATOM     13  C   UNL     1      -0.668   1.001   0.045  0.00  0.00    +0.164 C 
ATOM     16  C   UNL     1      -2.345   0.261  -1.401  0.00  0.00    +0.181 C 
ENDROOT
BRANCH  10   3
ATOM      3  O   UNL     1      -1.756   0.509   2.166  0.00  0.00    -0.388 OA
ATOM     26  H   UNL     1      -2.078   1.426   2.165  0.00  0.00    +0.210 HD
ENDBRANCH  10   3
BRANCH   9   6
ATOM      6  N   UNL     1      -3.833  -0.852   0.240  0.00  0.00    -0.306 NA
ATOM     25  H   UNL     1      -3.892  -1.071   1.234  0.00  0.00    +0.123 HD
BRANCH   6   8
ATOM      8  C   UNL     1      -5.146  -0.508  -0.275  0.00  0.00    +0.054 C 
ATOM     11  C   UNL     1      -5.981   0.286   0.723  0.00  0.00    +0.019 C 
ATOM     12  C   UNL     1      -6.019  -1.731  -0.530  0.00  0.00    +0.019 C 
ATOM     14  C   UNL     1      -7.406   0.145   0.193  0.00  0.00    +0.002 C 
ATOM     15  C   UNL     1      -7.430  -1.155  -0.616  0.00  0.00    +0.002 C 
ENDBRANCH   6   8
ENDBRANCH   9   6
BRANCH  13  17
ATOM     17  C   UNL     1       0.797   0.643   0.215  0.00  0.00    +0.140 C 
BRANCH  17   7
ATOM      7  N   UNL     1       1.629   1.575  -0.571  0.00  0.00    -0.187 NA
ATOM     27  H   UNL     1       1.432   1.608  -1.579  0.00  0.00    +0.148 HD
BRANCH   7   1
ATOM      1  S   UNL     1       3.195   1.976  -0.040  0.00  0.00    +0.058 S 
ATOM      4  O   UNL     1       3.128   2.465   1.324  0.00  0.00    -0.153 OA
ATOM      5  O   UNL     1       3.854   2.762  -1.065  0.00  0.00    -0.153 OA
BRANCH   1  18
ATOM     18  C   UNL     1       3.984   0.395  -0.013  0.00  0.00    +0.105 A 
ATOM     19  C   UNL     1       4.644  -0.074  -1.149  0.00  0.00    +0.029 A 
ATOM     20  C   UNL     1       3.944  -0.386   1.142  0.00  0.00    +0.029 A 
ATOM     21  C   UNL     1       5.265  -1.323  -1.130  0.00  0.00    +0.005 A 
ATOM     22  C   UNL     1       4.564  -1.635   1.161  0.00  0.00    +0.005 A 
ATOM     23  C   UNL     1       5.225  -2.103   0.026  0.00  0.00    -0.050 A 
ATOM     24  C   UNL     1       5.888  -3.439   0.046  0.00  0.00    +0.044 C 
ENDBRANCH   1  18
ENDBRANCH   7   1
ENDBRANCH  17   7
ENDBRANCH  13  17
TORSDOF 7
