REMARK  Name = 45361384
REMARK  14 active torsions:
REMARK  status: ('A' for Active; 'I' for Inactive)
REMARK    1  A    between atoms: O_1  and  C_11
REMARK    2  A    between atoms: O_4  and  C_32
REMARK    3  A    between atoms: O_4  and  C_34
REMARK    4  A    between atoms: N_5  and  C_15
REMARK    5  A    between atoms: N_6  and  C_25
REMARK    6  A    between atoms: N_6  and  C_26
REMARK    7  A    between atoms: C_8  and  C_18
REMARK    8  A    between atoms: C_10  and  C_20
REMARK    9  A    between atoms: C_13  and  C_19
REMARK   10  A    between atoms: C_19  and  C_21
REMARK   11  A    between atoms: C_19  and  C_22
REMARK   12  A    between atoms: C_23  and  C_24
REMARK   13  A    between atoms: C_25  and  C_27
REMARK   14  A    between atoms: C_27  and  C_33
REMARK                            x       y       z     vdW  Elec       q    Type
REMARK                         _______ _______ _______ _____ _____    ______ ____
ROOT
ATOM      8  C   UNL     1       0.799  -2.201   0.181  0.00  0.00    -0.027 C 
ATOM      9  C   UNL     1       0.783  -0.637   0.144  0.00  0.00    +0.028 C 
ATOM     10  C   UNL     1      -0.629  -0.102  -0.293  0.00  0.00    +0.012 C 
ATOM     11  C   UNL     1       1.988  -0.079  -0.666  0.00  0.00    +0.122 C 
ATOM     12  C   UNL     1       2.163  -2.690   0.722  0.00  0.00    +0.007 C 
ATOM     13  C   UNL     1       3.342  -0.653  -0.188  0.00  0.00    +0.029 C 
ATOM     14  C   UNL     1      -0.297  -2.694   1.153  0.00  0.00    +0.009 C 
ATOM     15  C   UNL     1      -1.732  -0.665   0.647  0.00  0.00    +0.076 C 
ATOM     16  C   UNL     1       3.344  -2.178  -0.093  0.00  0.00    +0.007 C 
ATOM     17  C   UNL     1      -1.687  -2.185   0.795  0.00  0.00    +0.023 C 
ATOM     18  C   UNL     1       0.563  -2.831  -1.216  0.00  0.00    +0.011 C 
ATOM     20  C   UNL     1      -0.724   1.433  -0.323  0.00  0.00    +0.010 C 
ENDROOT
BRANCH  15   5
ATOM      3  O   UNL     1      -4.019  -0.169   2.311  0.00  0.00    -0.270 OA
ATOM      5  N   UNL     1      -3.058  -0.286   0.204  0.00  0.00    -0.308 N 
ATOM     23  C   UNL     1      -4.099  -0.069   1.089  0.00  0.00    +0.244 C 
ATOM     35  H   UNL     1      -3.227  -0.298  -0.796  0.00  0.00    +0.149 HD
BRANCH  23  24
ATOM     24  C   UNL     1      -5.404   0.287   0.475  0.00  0.00    +0.037 A 
ATOM     28  C   UNL     1      -6.593  -0.016   1.139  0.00  0.00    +0.016 A 
ATOM     29  C   UNL     1      -5.441   0.922  -0.767  0.00  0.00    +0.016 A 
ATOM     30  C   UNL     1      -7.819   0.316   0.561  0.00  0.00    +0.046 A 
ATOM     31  C   UNL     1      -6.666   1.254  -1.344  0.00  0.00    +0.046 A 
ATOM     32  C   UNL     1      -7.855   0.951  -0.680  0.00  0.00    +0.120 A 
BRANCH  32   4
ATOM      4  O   UNL     1      -9.051   1.276  -1.244  0.00  0.00    -0.495 OA
ATOM     34  C   UNL     1     -10.227   0.938  -0.511  0.00  0.00    +0.277 C 
ENDBRANCH  32   4
ENDBRANCH  23  24
ENDBRANCH  15   5
BRANCH  11   1
ATOM      1  O   UNL     1       2.062   1.337  -0.498  0.00  0.00    -0.391 OA
ATOM     36  H   UNL     1       2.184   1.523   0.449  0.00  0.00    +0.210 HD
ENDBRANCH  11   1
BRANCH  13  19
ATOM     19  C   UNL     1       4.502  -0.194  -1.080  0.00  0.00    +0.078 C 
ATOM     21  C   UNL     1       4.264  -0.674  -2.513  0.00  0.00    +0.017 C 
BRANCH  19  22
ATOM      2  O   UNL     1       6.226  -1.846  -0.899  0.00  0.00    -0.275 OA
ATOM      6  N   UNL     1       6.520   0.052   0.392  0.00  0.00    -0.303 N 
ATOM     22  C   UNL     1       5.824  -0.736  -0.531  0.00  0.00    +0.219 C 
ATOM     26  C   UNL     1       7.772  -0.445   0.951  0.00  0.00    +0.132 C 
BRANCH   6  25
ATOM     25  C   UNL     1       6.134   1.385   0.850  0.00  0.00    +0.122 C 
BRANCH  25  27
ATOM     27  C   UNL     1       6.721   2.492  -0.017  0.00  0.00    +0.137 C 
BRANCH  27  33
ATOM      7  N   UNL     1       5.985   4.880   0.807  0.00  0.00    -0.197 NA
ATOM     33  C   UNL     1       6.309   3.826   0.444  0.00  0.00    +0.064 C 
ENDBRANCH  27  33
ENDBRANCH  25  27
ENDBRANCH   6  25
ENDBRANCH  19  22
ENDBRANCH  13  19
TORSDOF 9
