REMARK  Name = 11883068
REMARK  9 active torsions:
REMARK  status: ('A' for Active; 'I' for Inactive)
REMARK    1  A    between atoms: O_2  and  C_15
REMARK    2  A    between atoms: O_3  and  C_20
REMARK    3  A    between atoms: N_8  and  C_26
REMARK    4  A    between atoms: C_10  and  C_18
REMARK    5  A    between atoms: C_12  and  C_20
REMARK    6  A    between atoms: C_12  and  C_21
REMARK    7  A    between atoms: C_13  and  C_23
REMARK    8  A    between atoms: C_23  and  C_24
REMARK    9  A    between atoms: C_31  and  C_32
REMARK                            x       y       z     vdW  Elec       q    Type
REMARK                         _______ _______ _______ _____ _____    ______ ____
ROOT
ATOM      1  S   UNL     1      -0.070  -3.095   0.266  0.00  0.00    -0.057 S 
ATOM      5  O   UNL     1      -3.738  -0.349  -0.345  0.00  0.00    -0.266 OA
ATOM      7  N   UNL     1      -0.845  -0.660  -0.138  0.00  0.00    -0.229 NA
ATOM      9  N   UNL     1      -2.568  -2.338   0.018  0.00  0.00    -0.258 N 
ATOM     10  C   UNL     1       2.823   0.444   0.306  0.00  0.00    -0.019 C 
ATOM     11  C   UNL     1       3.388  -0.926  -0.277  0.00  0.00    +0.011 C 
ATOM     12  C   UNL     1       4.952  -1.129  -0.238  0.00  0.00    +0.021 C 
ATOM     13  C   UNL     1       1.325   0.624  -0.222  0.00  0.00    +0.054 C 
ATOM     14  C   UNL     1       3.675   1.623  -0.230  0.00  0.00    +0.010 C 
ATOM     15  C   UNL     1       5.649   0.158  -0.764  0.00  0.00    +0.123 C 
ATOM     16  C   UNL     1       2.584  -2.146   0.258  0.00  0.00    +0.049 C 
ATOM     17  C   UNL     1       5.175   1.427  -0.064  0.00  0.00    +0.032 C 
ATOM     18  C   UNL     1       2.832   0.488   1.854  0.00  0.00    +0.012 C 
ATOM     19  C   UNL     1       0.535  -0.649  -0.053  0.00  0.00    +0.058 A 
ATOM     21  C   UNL     1       5.336  -2.289  -1.200  0.00  0.00    +0.016 C 
ATOM     22  C   UNL     1       1.121  -1.883   0.143  0.00  0.00    +0.015 A 
ATOM     25  C   UNL     1      -1.272  -1.893   0.023  0.00  0.00    +0.165 A 
ATOM     31  C   UNL     1      -3.736  -1.564  -0.163  0.00  0.00    +0.285 C 
ATOM     39  H   UNL     1      -2.679  -3.338   0.168  0.00  0.00    +0.157 HD
ENDROOT
BRANCH  31  32
ATOM      6  O   UNL     1      -4.933  -3.649   0.171  0.00  0.00    -0.458 OA
ATOM     32  C   UNL     1      -5.002  -2.314  -0.072  0.00  0.00    +0.189 A 
ATOM     33  C   UNL     1      -6.312  -1.911  -0.191  0.00  0.00    +0.054 A 
ATOM     34  C   UNL     1      -7.099  -3.074  -0.009  0.00  0.00    +0.042 A 
ATOM     35  C   UNL     1      -6.213  -4.104   0.208  0.00  0.00    +0.196 A 
ENDBRANCH  31  32
BRANCH  15   2
ATOM      2  O   UNL     1       7.065   0.057  -0.622  0.00  0.00    -0.391 OA
ATOM     36  H   UNL     1       7.458   0.860  -1.004  0.00  0.00    +0.210 HD
ENDBRANCH  15   2
BRANCH  12  20
ATOM     20  C   UNL     1       5.512  -1.533   1.143  0.00  0.00    +0.165 C 
BRANCH  20   3
ATOM      3  O   UNL     1       6.907  -1.687   1.016  0.00  0.00    -0.394 OA
ATOM     37  H   UNL     1       7.251  -1.950   1.886  0.00  0.00    +0.209 HD
ENDBRANCH  20   3
ENDBRANCH  12  20
BRANCH  13  23
ATOM     23  C   UNL     1       0.581   1.829   0.369  0.00  0.00    +0.106 C 
BRANCH  23  24
ATOM      4  O   UNL     1      -0.744   1.845  -1.655  0.00  0.00    -0.276 OA
ATOM      8  N   UNL     1      -1.166   3.416   0.004  0.00  0.00    -0.312 N 
ATOM     24  C   UNL     1      -0.501   2.336  -0.556  0.00  0.00    +0.214 C 
ATOM     38  H   UNL     1      -0.916   3.711   0.944  0.00  0.00    +0.149 HD
BRANCH   8  26
ATOM     26  C   UNL     1      -2.247   4.105  -0.658  0.00  0.00    +0.073 C 
ATOM     27  C   UNL     1      -2.343   5.559  -0.213  0.00  0.00    +0.022 C 
ATOM     28  C   UNL     1      -3.607   3.541  -0.264  0.00  0.00    +0.022 C 
ATOM     29  C   UNL     1      -3.112   5.507   1.105  0.00  0.00    +0.002 C 
ATOM     30  C   UNL     1      -3.955   4.232   1.053  0.00  0.00    +0.002 C 
ENDBRANCH   8  26
ENDBRANCH  23  24
ENDBRANCH  13  23
TORSDOF 7
