REMARK  Name = 26744756
REMARK  5 active torsions:
REMARK  status: ('A' for Active; 'I' for Inactive)
REMARK    1  A    between atoms: N_2  and  C_13
REMARK    2  A    between atoms: C_8  and  C_14
REMARK    3  A    between atoms: C_13  and  C_15
REMARK    4  A    between atoms: C_19  and  C_22
REMARK    5  A    between atoms: C_20  and  C_26
REMARK                            x       y       z     vdW  Elec       q    Type
REMARK                         _______ _______ _______ _____ _____    ______ ____
ROOT
ATOM      2  N   UNL     1      -1.738  -0.417   0.484  0.00  0.00    -0.281 NA
ATOM      3  N   UNL     1      -4.808  -2.059  -0.912  0.00  0.00    -0.347 N 
ATOM      4  N   UNL     1      -3.409  -3.694  -1.521  0.00  0.00    -0.240 NA
ATOM      8  C   UNL     1      -1.022  -1.719   0.713  0.00  0.00    +0.152 C 
ATOM      9  C   UNL     1      -1.322  -2.774  -0.411  0.00  0.00    +0.086 C 
ATOM     10  C   UNL     1      -3.220  -0.585   0.450  0.00  0.00    +0.140 C 
ATOM     11  C   UNL     1      -3.591  -1.743  -0.388  0.00  0.00    +0.053 A 
ATOM     12  C   UNL     1      -2.755  -2.760  -0.768  0.00  0.00    +0.065 A 
ATOM     16  C   UNL     1      -4.647  -3.244  -1.587  0.00  0.00    +0.197 A 
ATOM     30  H   UNL     1      -5.665  -1.531  -0.821  0.00  0.00    +0.167 HD
ENDROOT
BRANCH   8  14
ATOM      1  O   UNL     1       1.047  -1.973   2.007  0.00  0.00    -0.336 OA
ATOM      5  N   UNL     1       1.355  -1.128  -0.044  0.00  0.00    -0.190 NA
ATOM      6  N   UNL     1       2.424  -1.753   1.879  0.00  0.00    -0.056 NA
ATOM     14  C   UNL     1       0.492  -1.579   0.831  0.00  0.00    +0.245 A 
ATOM     19  C   UNL     1       2.526  -1.254   0.644  0.00  0.00    +0.202 A 
BRANCH  19  22
ATOM     22  C   UNL     1       3.784  -0.874   0.067  0.00  0.00    +0.022 A 
ATOM     24  C   UNL     1       3.829  -0.360  -1.228  0.00  0.00    +0.012 A 
ATOM     25  C   UNL     1       4.960  -1.018   0.802  0.00  0.00    +0.012 A 
ATOM     27  C   UNL     1       5.052   0.010  -1.790  0.00  0.00    +0.001 A 
ATOM     28  C   UNL     1       6.183  -0.649   0.241  0.00  0.00    +0.001 A 
ATOM     29  C   UNL     1       6.228  -0.134  -1.055  0.00  0.00    +0.000 A 
ENDBRANCH  19  22
ENDBRANCH   8  14
BRANCH   2  13
ATOM     13  C   UNL     1      -1.416   0.586   1.509  0.00  0.00    +0.120 C 
BRANCH  13  15
ATOM     15  C   UNL     1      -1.621   1.989   1.004  0.00  0.00    -0.032 A 
ATOM     17  C   UNL     1      -0.689   2.564   0.141  0.00  0.00    +0.023 A 
ATOM     18  C   UNL     1      -2.745   2.714   1.400  0.00  0.00    +0.005 A 
ATOM     20  C   UNL     1      -0.880   3.864  -0.327  0.00  0.00    +0.052 A 
ATOM     21  C   UNL     1      -2.937   4.014   0.931  0.00  0.00    +0.002 A 
ATOM     23  C   UNL     1      -2.004   4.589   0.068  0.00  0.00    +0.019 A 
BRANCH  20  26
ATOM      7  N   UNL     1       0.849   4.933  -1.931  0.00  0.00    -0.191 NA
ATOM     26  C   UNL     1       0.074   4.454  -1.212  0.00  0.00    +0.099 C 
ENDBRANCH  20  26
ENDBRANCH  13  15
ENDBRANCH   2  13
TORSDOF 5
