REMARK  Name = 45783768
REMARK  6 active torsions:
REMARK  status: ('A' for Active; 'I' for Inactive)
REMARK    1  A    between atoms: N_3  and  C_12
REMARK    2  A    between atoms: N_7  and  C_25
REMARK    3  A    between atoms: N_7  and  C_26
REMARK    4  A    between atoms: C_8  and  C_13
REMARK    5  A    between atoms: C_12  and  C_14
REMARK    6  A    between atoms: C_17  and  C_20
REMARK                            x       y       z     vdW  Elec       q    Type
REMARK                         _______ _______ _______ _____ _____    ______ ____
ROOT
ATOM      2  O   UNL     1      -0.905  -0.590   2.101  0.00  0.00    -0.336 OA
ATOM      4  N   UNL     1      -0.191  -1.193   0.065  0.00  0.00    -0.190 NA
ATOM      5  N   UNL     1       0.465  -0.300   2.067  0.00  0.00    -0.056 NA
ATOM     13  C   UNL     1      -1.209  -1.113   0.884  0.00  0.00    +0.245 A 
ATOM     17  C   UNL     1       0.814  -0.683   0.835  0.00  0.00    +0.204 A 
ENDROOT
BRANCH  17  20
ATOM      6  N   UNL     1       4.451   0.082   0.735  0.00  0.00    -0.240 NA
ATOM     20  C   UNL     1       2.157  -0.571   0.344  0.00  0.00    +0.041 A 
ATOM     22  C   UNL     1       2.485  -0.982  -0.944  0.00  0.00    +0.016 A 
ATOM     23  C   UNL     1       3.167  -0.051   1.136  0.00  0.00    +0.124 A 
ATOM     24  C   UNL     1       3.796  -0.861  -1.393  0.00  0.00    +0.044 A 
ATOM     25  C   UNL     1       4.733  -0.327  -0.523  0.00  0.00    +0.118 A 
BRANCH  25   7
ATOM      7  N   UNL     1       6.064  -0.211  -0.994  0.00  0.00    -0.332 N 
ATOM     26  C   UNL     1       7.120   0.321  -0.197  0.00  0.00    +0.127 C 
ATOM     27  H   UNL     1       6.210  -0.304  -1.994  0.00  0.00    +0.147 HD
ENDBRANCH  25   7
ENDBRANCH  17  20
BRANCH  13   8
ATOM      3  N   UNL     1      -3.261  -0.830  -0.496  0.00  0.00    -0.287 NA
ATOM      8  C   UNL     1      -2.653  -1.513   0.663  0.00  0.00    +0.146 C 
ATOM      9  C   UNL     1      -2.813  -3.015   0.361  0.00  0.00    +0.030 C 
ATOM     10  C   UNL     1      -3.575  -3.076  -0.956  0.00  0.00    +0.017 C 
ATOM     11  C   UNL     1      -4.282  -1.737  -1.021  0.00  0.00    +0.085 C 
BRANCH   3  12
ATOM     12  C   UNL     1      -3.808   0.480  -0.168  0.00  0.00    +0.123 C 
BRANCH  12  14
ATOM      1  F   UNL     1      -2.104   1.103  -2.343  0.00  0.00    -0.205 F 
ATOM     14  C   UNL     1      -2.735   1.534  -0.096  0.00  0.00    +0.002 A 
ATOM     15  C   UNL     1      -1.930   1.790  -1.206  0.00  0.00    +0.128 A 
ATOM     16  C   UNL     1      -2.547   2.255   1.084  0.00  0.00    +0.008 A 
ATOM     18  C   UNL     1      -0.937   2.767  -1.136  0.00  0.00    +0.038 A 
ATOM     19  C   UNL     1      -1.553   3.232   1.153  0.00  0.00    +0.000 A 
ATOM     21  C   UNL     1      -0.749   3.488   0.043  0.00  0.00    +0.003 A 
ENDBRANCH  12  14
ENDBRANCH   3  12
ENDBRANCH  13   8
TORSDOF 5
