REMARK  Name = 28962709
REMARK  12 active torsions:
REMARK  status: ('A' for Active; 'I' for Inactive)
REMARK    1  A    between atoms: O_1  and  C_9
REMARK    2  A    between atoms: N_4  and  C_13
REMARK    3  A    between atoms: N_5  and  C_27
REMARK    4  A    between atoms: N_5  and  C_28
REMARK    5  A    between atoms: C_6  and  C_16
REMARK    6  A    between atoms: C_8  and  C_18
REMARK    7  A    between atoms: C_12  and  C_17
REMARK    8  A    between atoms: C_17  and  C_19
REMARK    9  A    between atoms: C_17  and  C_20
REMARK   10  A    between atoms: C_21  and  C_22
REMARK   11  A    between atoms: C_27  and  C_30
REMARK   12  A    between atoms: C_28  and  C_31
REMARK                            x       y       z     vdW  Elec       q    Type
REMARK                         _______ _______ _______ _____ _____    ______ ____
ROOT
ATOM      6  C   UNL     1      -0.443   1.903   0.030  0.00  0.00    -0.027 C 
ATOM      7  C   UNL     1      -0.279   0.356  -0.144  0.00  0.00    +0.028 C 
ATOM      8  C   UNL     1       1.125   0.008  -0.757  0.00  0.00    +0.012 C 
ATOM      9  C   UNL     1      -1.502  -0.261  -0.881  0.00  0.00    +0.122 C 
ATOM     10  C   UNL     1      -1.785   2.203   0.739  0.00  0.00    +0.007 C 
ATOM     11  C   UNL     1       0.695   2.431   0.934  0.00  0.00    +0.009 C 
ATOM     12  C   UNL     1      -2.849   0.129  -0.229  0.00  0.00    +0.029 C 
ATOM     13  C   UNL     1       2.259   0.609   0.119  0.00  0.00    +0.076 C 
ATOM     14  C   UNL     1      -2.988   1.634  -0.002  0.00  0.00    +0.007 C 
ATOM     15  C   UNL     1       2.083   2.100   0.403  0.00  0.00    +0.023 C 
ATOM     16  C   UNL     1      -0.414   2.659  -1.322  0.00  0.00    +0.011 C 
ATOM     18  C   UNL     1       1.365  -1.502  -0.930  0.00  0.00    +0.010 C 
ENDROOT
BRANCH  13   4
ATOM      3  O   UNL     1       4.788   0.222   1.492  0.00  0.00    -0.276 OA
ATOM      4  N   UNL     1       3.563   0.407  -0.478  0.00  0.00    -0.312 N 
ATOM     21  C   UNL     1       4.715   0.231   0.266  0.00  0.00    +0.216 C 
ATOM     32  H   UNL     1       3.626   0.449  -1.492  0.00  0.00    +0.149 HD
BRANCH  21  22
ATOM     22  C   UNL     1       5.922   0.018  -0.602  0.00  0.00    +0.075 C 
ATOM     23  C   UNL     1       7.182   0.576   0.063  0.00  0.00    +0.013 C 
ATOM     24  C   UNL     1       6.051  -1.462  -0.969  0.00  0.00    +0.013 C 
ATOM     25  C   UNL     1       7.718  -0.308   1.189  0.00  0.00    +0.001 C 
ATOM     26  C   UNL     1       6.584  -2.318   0.178  0.00  0.00    +0.001 C 
ATOM     29  C   UNL     1       7.883  -1.757   0.744  0.00  0.00    +0.000 C 
ENDBRANCH  21  22
ENDBRANCH  13   4
BRANCH   9   1
ATOM      1  O   UNL     1      -1.421  -1.686  -0.831  0.00  0.00    -0.391 OA
ATOM     33  H   UNL     1      -1.426  -1.956   0.104  0.00  0.00    +0.210 HD
ENDBRANCH   9   1
BRANCH  12  17
ATOM     17  C   UNL     1      -4.045  -0.379  -1.044  0.00  0.00    +0.078 C 
ATOM     19  C   UNL     1      -4.003   0.233  -2.445  0.00  0.00    +0.017 C 
BRANCH  17  20
ATOM      2  O   UNL     1      -5.892   1.064  -0.556  0.00  0.00    -0.275 OA
ATOM      5  N   UNL     1      -5.866  -0.948   0.586  0.00  0.00    -0.302 N 
ATOM     20  C   UNL     1      -5.349  -0.022  -0.327  0.00  0.00    +0.219 C 
BRANCH   5  27
ATOM     27  C   UNL     1      -7.097  -0.629   1.302  0.00  0.00    +0.104 C 
ATOM     30  C   UNL     1      -6.810   0.087   2.605  0.00  0.00    +0.024 C 
ENDBRANCH   5  27
BRANCH   5  28
ATOM     28  C   UNL     1      -5.308  -2.265   0.888  0.00  0.00    +0.104 C 
ATOM     31  C   UNL     1      -5.883  -3.333  -0.020  0.00  0.00    +0.024 C 
ENDBRANCH   5  28
ENDBRANCH  17  20
ENDBRANCH  12  17
TORSDOF 7
