REMARK  Name = 38030827
REMARK  15 active torsions:
REMARK  status: ('A' for Active; 'I' for Inactive)
REMARK    1  A    between atoms: O_2  and  C_30
REMARK    2  A    between atoms: O_2  and  C_31
REMARK    3  A    between atoms: N_3  and  C_14
REMARK    4  A    between atoms: N_3  and  C_20
REMARK    5  A    between atoms: N_3  and  C_21
REMARK    6  A    between atoms: C_7  and  C_11
REMARK    7  A    between atoms: C_8  and  C_14
REMARK    8  A    between atoms: C_10  and  C_15
REMARK    9  A    between atoms: C_11  and  C_16
REMARK   10  A    between atoms: C_11  and  C_17
REMARK   11  A    between atoms: C_12  and  C_18
REMARK   12  A    between atoms: C_15  and  C_19
REMARK   13  A    between atoms: C_20  and  C_22
REMARK   14  A    between atoms: C_22  and  C_24
REMARK   15  A    between atoms: C_23  and  C_25
REMARK                            x       y       z     vdW  Elec       q    Type
REMARK                         _______ _______ _______ _____ _____    ______ ____
ROOT
ATOM      7  C   UNL     1      -2.320  -0.460  -0.609  0.00  0.00    +0.000 C 
ATOM      8  C   UNL     1      -3.396  -0.711   0.473  0.00  0.00    +0.029 C 
ATOM      9  C   UNL     1      -0.957  -0.993  -0.145  0.00  0.00    +0.012 C 
ATOM     10  C   UNL     1      -0.978  -2.493   0.219  0.00  0.00    +0.024 C 
ATOM     12  C   UNL     1      -2.243  -2.909   0.955  0.00  0.00    -0.073 C 
ATOM     13  C   UNL     1      -3.308  -2.094   1.067  0.00  0.00    -0.023 C 
ATOM     18  C   UNL     1      -2.295  -4.304   1.514  0.00  0.00    +0.039 C 
ENDROOT
BRANCH   7  11
ATOM     11  C   UNL     1      -2.726  -1.073  -1.956  0.00  0.00    -0.013 C 
ATOM     16  C   UNL     1      -3.810  -0.230  -2.619  0.00  0.00    +0.007 C 
ATOM     17  C   UNL     1      -1.511  -1.207  -2.868  0.00  0.00    +0.007 C 
ENDBRANCH   7  11
BRANCH   8  14
ATOM     14  C   UNL     1      -3.321   0.327   1.597  0.00  0.00    +0.092 C 
BRANCH  14   3
ATOM      3  N   UNL     1      -3.428   1.673   1.061  0.00  0.00    -0.304 NA
ATOM     21  C   UNL     1      -2.897   2.655   2.011  0.00  0.00    +0.104 C 
BRANCH   3  20
ATOM     20  C   UNL     1      -4.819   1.993   0.730  0.00  0.00    +0.099 C 
BRANCH  20  22
ATOM     22  C   UNL     1      -4.875   3.130  -0.287  0.00  0.00    +0.134 C 
BRANCH  22  24
ATOM      6  N   UNL     1      -7.362   3.743  -0.881  0.00  0.00    -0.197 NA
ATOM     24  C   UNL     1      -6.265   3.471  -0.619  0.00  0.00    +0.064 C 
ENDBRANCH  22  24
ENDBRANCH  20  22
ENDBRANCH   3  20
ENDBRANCH  14   3
ENDBRANCH   8  14
BRANCH  10  15
ATOM     15  C   UNL     1       0.301  -2.826   0.997  0.00  0.00    +0.105 C 
BRANCH  15  19
ATOM      1  O   UNL     1       2.155  -1.274   0.664  0.00  0.00    -0.420 OA
ATOM      4  N   UNL     1       2.108  -2.972  -0.792  0.00  0.00    -0.112 NA
ATOM      5  N   UNL     1       3.199  -2.179  -1.095  0.00  0.00    -0.107 NA
ATOM     19  C   UNL     1       1.528  -2.406   0.240  0.00  0.00    +0.218 A 
ATOM     23  C   UNL     1       3.187  -1.201  -0.220  0.00  0.00    +0.248 A 
BRANCH  23  25
ATOM     25  C   UNL     1       4.076  -0.088  -0.055  0.00  0.00    +0.039 A 
ATOM     26  C   UNL     1       5.164   0.070  -0.914  0.00  0.00    +0.017 A 
ATOM     27  C   UNL     1       3.854   0.837   0.965  0.00  0.00    +0.017 A 
ATOM     28  C   UNL     1       6.029   1.152  -0.754  0.00  0.00    +0.046 A 
ATOM     29  C   UNL     1       4.719   1.920   1.126  0.00  0.00    +0.046 A 
ATOM     30  C   UNL     1       5.806   2.077   0.266  0.00  0.00    +0.120 A 
BRANCH  30   2
ATOM      2  O   UNL     1       6.648   3.135   0.421  0.00  0.00    -0.495 OA
ATOM     31  C   UNL     1       7.738   3.237  -0.494  0.00  0.00    +0.277 C 
ENDBRANCH  30   2
ENDBRANCH  23  25
ENDBRANCH  15  19
ENDBRANCH  10  15
TORSDOF 10
