REMARK  Name = 75537133
REMARK  4 active torsions:
REMARK  status: ('A' for Active; 'I' for Inactive)
REMARK    1  A    between atoms: N_2  and  C_8
REMARK    2  A    between atoms: N_4  and  C_19
REMARK    3  A    between atoms: N_5  and  C_23
REMARK    4  A    between atoms: C_19  and  C_20
REMARK                            x       y       z     vdW  Elec       q    Type
REMARK                         _______ _______ _______ _____ _____    ______ ____
ROOT
ATOM      1  O   UNL     1       2.779   2.682  -0.290  0.00  0.00    -0.252 OA
ATOM      2  N   UNL     1       2.481   0.344  -0.207  0.00  0.00    -0.281 N 
ATOM      3  N   UNL     1       0.665   1.658  -0.345  0.00  0.00    -0.278 N 
ATOM      4  N   UNL     1      -2.044   1.196   0.254  0.00  0.00    -0.295 NA
ATOM      7  C   UNL     1       0.145   0.310  -0.439  0.00  0.00    +0.109 C 
ATOM      9  C   UNL     1       1.353  -0.568  -0.114  0.00  0.00    +0.133 C 
ATOM     10  C   UNL     1      -1.048   0.133   0.499  0.00  0.00    +0.109 C 
ATOM     13  C   UNL     1       2.065   1.688  -0.286  0.00  0.00    +0.305 C 
ATOM     14  C   UNL     1      -0.250   2.777  -0.423  0.00  0.00    +0.125 C 
ATOM     15  C   UNL     1      -1.457   2.531   0.485  0.00  0.00    +0.104 C 
ENDROOT
BRANCH   2   8
ATOM      8  C   UNL     1       3.844  -0.111  -0.075  0.00  0.00    +0.078 C 
ATOM     11  C   UNL     1       4.246  -0.959  -1.284  0.00  0.00    +0.022 C 
ATOM     12  C   UNL     1       4.034  -0.882   1.234  0.00  0.00    +0.022 C 
ATOM     16  C   UNL     1       5.668  -1.497  -1.146  0.00  0.00    +0.002 C 
ATOM     17  C   UNL     1       5.456  -1.420   1.368  0.00  0.00    +0.002 C 
ATOM     18  C   UNL     1       5.856  -2.263   0.161  0.00  0.00    +0.000 C 
ENDBRANCH   2   8
BRANCH   4  19
ATOM     19  C   UNL     1      -3.217   1.000   1.105  0.00  0.00    +0.122 C 
BRANCH  19  20
ATOM      5  N   UNL     1      -5.561  -1.267  -0.552  0.00  0.00    -0.274 N 
ATOM      6  N   UNL     1      -5.128  -2.130   0.383  0.00  0.00    -0.180 NA
ATOM     20  C   UNL     1      -4.111  -0.094   0.585  0.00  0.00    +0.004 A 
ATOM     21  C   UNL     1      -4.983  -0.034  -0.474  0.00  0.00    +0.112 A 
ATOM     22  C   UNL     1      -4.242  -1.408   1.075  0.00  0.00    +0.139 A 
ATOM     23  C   UNL     1      -6.552  -1.688  -1.513  0.00  0.00    +0.172 C 
ENDBRANCH  19  20
ENDBRANCH   4  19
TORSDOF 3
