REMARK  Name = 71694324
REMARK  7 active torsions:
REMARK  status: ('A' for Active; 'I' for Inactive)
REMARK    1  A    between atoms: O_6  and  C_18
REMARK    2  A    between atoms: O_6  and  C_26
REMARK    3  A    between atoms: O_7  and  C_25
REMARK    4  A    between atoms: O_7  and  C_27
REMARK    5  A    between atoms: C_11  and  C_14
REMARK    6  A    between atoms: C_16  and  C_18
REMARK    7  A    between atoms: C_17  and  C_20
REMARK                            x       y       z     vdW  Elec       q    Type
REMARK                         _______ _______ _______ _____ _____    ______ ____
ROOT
ATOM      9  N   UNL     1       0.679   0.574   0.432  0.00  0.00    -0.340 N 
ATOM     10  N   UNL     1       1.587   2.322  -0.592  0.00  0.00    -0.238 NA
ATOM     14  C   UNL     1       1.802   1.330   0.243  0.00  0.00    +0.130 A 
ATOM     17  C   UNL     1      -0.315   1.119  -0.330  0.00  0.00    +0.066 A 
ATOM     19  C   UNL     1       0.269   2.197  -0.953  0.00  0.00    +0.139 A 
ATOM     28  H   UNL     1       0.605  -0.234   1.037  0.00  0.00    +0.167 HD
ENDROOT
BRANCH  14  11
ATOM      4  O   UNL     1       4.722   2.709   0.204  0.00  0.00    -0.376 OA
ATOM      5  O   UNL     1       2.947  -1.808   1.317  0.00  0.00    -0.273 OA
ATOM      8  N   UNL     1       3.897  -0.002   0.199  0.00  0.00    -0.285 N 
ATOM     11  C   UNL     1       3.111   0.998   0.950  0.00  0.00    +0.168 C 
ATOM     12  C   UNL     1       3.974   2.219   1.317  0.00  0.00    +0.190 C 
ATOM     13  C   UNL     1       4.780   0.532  -0.846  0.00  0.00    +0.136 C 
ATOM     15  C   UNL     1       5.591   1.705  -0.317  0.00  0.00    +0.179 C 
ATOM     16  C   UNL     1       3.690  -1.364   0.438  0.00  0.00    +0.242 C 
BRANCH  16  18
ATOM     18  C   UNL     1       4.438  -2.328  -0.449  0.00  0.00    +0.255 C 
BRANCH  18   6
ATOM      6  O   UNL     1       4.105  -3.622  -0.007  0.00  0.00    -0.374 OA
ATOM     26  C   UNL     1       4.756  -4.633  -0.774  0.00  0.00    +0.194 C 
ENDBRANCH  18   6
ENDBRANCH  16  18
ENDBRANCH  14  11
BRANCH  17  20
ATOM     20  C   UNL     1      -1.651   0.587  -0.388  0.00  0.00    +0.000 A 
ATOM     21  C   UNL     1      -2.731   1.438  -0.627  0.00  0.00    +0.013 A 
ATOM     22  C   UNL     1      -1.867  -0.779  -0.206  0.00  0.00    +0.013 A 
ATOM     23  C   UNL     1      -4.026   0.922  -0.684  0.00  0.00    +0.046 A 
ATOM     24  C   UNL     1      -3.162  -1.294  -0.262  0.00  0.00    +0.046 A 
ATOM     25  C   UNL     1      -4.241  -0.444  -0.501  0.00  0.00    +0.130 A 
BRANCH  25   7
ATOM      7  O   UNL     1      -5.504  -0.948  -0.559  0.00  0.00    -0.406 OA
BRANCH   7  27
ATOM      1  F   UNL     1      -7.160   0.575  -0.147  0.00  0.00    -0.133 F 
ATOM      2  F   UNL     1      -7.345  -1.453   0.646  0.00  0.00    -0.133 F 
ATOM      3  F   UNL     1      -5.881  -0.091   1.528  0.00  0.00    -0.133 F 
ATOM     27  C   UNL     1      -6.467  -0.462   0.369  0.00  0.00    +0.575 C 
ENDBRANCH   7  27
ENDBRANCH  25   7
ENDBRANCH  17  20
TORSDOF 6
