REMARK  Name = 45784215
REMARK  6 active torsions:
REMARK  status: ('A' for Active; 'I' for Inactive)
REMARK    1  A    between atoms: N_1  and  C_8
REMARK    2  A    between atoms: C_4  and  C_9
REMARK    3  A    between atoms: C_8  and  C_10
REMARK    4  A    between atoms: C_10  and  C_11
REMARK    5  A    between atoms: C_10  and  C_12
REMARK    6  A    between atoms: C_17  and  C_19
REMARK                            x       y       z     vdW  Elec       q    Type
REMARK                         _______ _______ _______ _____ _____    ______ ____
ROOT
ATOM      2  N   UNL     1       1.425   0.537   1.222  0.00  0.00    -0.342 N 
ATOM      3  N   UNL     1       0.930   0.200  -0.918  0.00  0.00    -0.232 NA
ATOM      9  C   UNL     1       0.462   0.570   0.253  0.00  0.00    +0.113 A 
ATOM     13  C   UNL     1       2.593   0.118   0.637  0.00  0.00    +0.066 A 
ATOM     14  C   UNL     1       2.257  -0.085  -0.698  0.00  0.00    +0.089 A 
ATOM     15  C   UNL     1       3.875  -0.093   1.147  0.00  0.00    +0.031 A 
ATOM     16  C   UNL     1       3.247  -0.526  -1.593  0.00  0.00    +0.030 A 
ATOM     17  C   UNL     1       4.847  -0.532   0.242  0.00  0.00    -0.048 A 
ATOM     18  C   UNL     1       4.541  -0.745  -1.104  0.00  0.00    +0.005 A 
ATOM     19  C   UNL     1       6.239  -0.777   0.726  0.00  0.00    +0.044 C 
ATOM     20  H   UNL     1       1.303   0.777   2.197  0.00  0.00    +0.167 HD
ENDROOT
BRANCH   9   4
ATOM      1  N   UNL     1      -3.187   0.661  -0.069  0.00  0.00    -0.301 NA
ATOM      4  C   UNL     1      -0.955   0.992   0.568  0.00  0.00    +0.070 C 
ATOM      5  C   UNL     1      -1.986  -0.105   0.271  0.00  0.00    +0.095 C 
ATOM      6  C   UNL     1      -1.454   2.218  -0.216  0.00  0.00    +0.028 C 
ATOM      7  C   UNL     1      -2.712   1.744  -0.930  0.00  0.00    +0.085 C 
BRANCH   1   8
ATOM      8  C   UNL     1      -4.202  -0.157  -0.716  0.00  0.00    +0.087 C 
BRANCH   8  10
ATOM     10  C   UNL     1      -4.753  -1.253   0.212  0.00  0.00    -0.003 C 
ATOM     11  C   UNL     1      -5.387  -0.612   1.450  0.00  0.00    +0.008 C 
ATOM     12  C   UNL     1      -5.779  -2.152  -0.483  0.00  0.00    +0.008 C 
ENDBRANCH   8  10
ENDBRANCH   1   8
ENDBRANCH   9   4
TORSDOF 3
