REMARK  Name = 75536249
REMARK  9 active torsions:
REMARK  status: ('A' for Active; 'I' for Inactive)
REMARK    1  A    between atoms: O_3  and  C_11
REMARK    2  A    between atoms: N_6  and  C_15
REMARK    3  A    between atoms: N_8  and  C_20
REMARK    4  A    between atoms: C_9  and  C_15
REMARK    5  A    between atoms: C_10  and  C_14
REMARK    6  A    between atoms: C_14  and  C_16
REMARK    7  A    between atoms: C_19  and  C_21
REMARK    8  A    between atoms: C_20  and  C_22
REMARK    9  A    between atoms: C_20  and  C_23
REMARK                            x       y       z     vdW  Elec       q    Type
REMARK                         _______ _______ _______ _____ _____    ______ ____
ROOT
ATOM      2  O   UNL     1       3.270  -0.378   0.737  0.00  0.00    -0.369 OA
ATOM      9  C   UNL     1       4.112   0.719   0.361  0.00  0.00    +0.164 C 
ATOM     10  C   UNL     1       2.907  -1.258  -0.330  0.00  0.00    +0.125 C 
ATOM     11  C   UNL     1       5.389   0.231  -0.335  0.00  0.00    +0.145 C 
ATOM     12  C   UNL     1       4.152  -1.862  -0.978  0.00  0.00    +0.034 C 
ATOM     13  C   UNL     1       5.096  -0.762  -1.456  0.00  0.00    +0.036 C 
ENDROOT
BRANCH  11   3
ATOM      3  O   UNL     1       6.215  -0.429   0.628  0.00  0.00    -0.389 OA
ATOM     29  H   UNL     1       7.038  -0.689   0.180  0.00  0.00    +0.210 HD
ENDBRANCH  11   3
BRANCH  10  14
ATOM     14  C   UNL     1       2.019  -2.348   0.257  0.00  0.00    +0.090 C 
BRANCH  14  16
ATOM      4  O   UNL     1      -1.066  -0.975   1.519  0.00  0.00    -0.354 OA
ATOM      7  N   UNL     1       0.278  -1.304   1.649  0.00  0.00    -0.083 NA
ATOM     16  C   UNL     1       0.613  -1.861   0.482  0.00  0.00    +0.087 A 
ATOM     17  C   UNL     1      -0.468  -1.909  -0.416  0.00  0.00    +0.076 A 
ATOM     19  C   UNL     1      -1.499  -1.340   0.285  0.00  0.00    +0.167 A 
BRANCH  19  21
ATOM      1  F   UNL     1      -6.841  -0.249  -0.817  0.00  0.00    -0.205 F 
ATOM     21  C   UNL     1      -2.876  -1.060   0.001  0.00  0.00    +0.020 A 
ATOM     24  C   UNL     1      -3.277  -0.789  -1.308  0.00  0.00    +0.014 A 
ATOM     25  C   UNL     1      -3.815  -1.057   1.033  0.00  0.00    +0.014 A 
ATOM     26  C   UNL     1      -4.617  -0.515  -1.584  0.00  0.00    +0.039 A 
ATOM     27  C   UNL     1      -5.154  -0.783   0.757  0.00  0.00    +0.039 A 
ATOM     28  C   UNL     1      -5.555  -0.512  -0.552  0.00  0.00    +0.123 A 
ENDBRANCH  19  21
ENDBRANCH  14  16
ENDBRANCH  10  14
BRANCH   9  15
ATOM     15  C   UNL     1       3.341   1.749  -0.462  0.00  0.00    +0.140 C 
BRANCH  15   6
ATOM      5  O   UNL     1       0.616   1.494  -1.376  0.00  0.00    -0.253 OA
ATOM      6  N   UNL     1       2.158   2.172   0.224  0.00  0.00    -0.297 N 
ATOM      8  N   UNL     1      -0.100   2.511   0.583  0.00  0.00    -0.297 N 
ATOM     18  C   UNL     1       0.866   2.013  -0.289  0.00  0.00    +0.300 C 
ATOM     30  H   UNL     1       2.265   2.653   1.112  0.00  0.00    +0.150 HD
ATOM     31  H   UNL     1       0.210   2.987   1.425  0.00  0.00    +0.150 HD
BRANCH   8  20
ATOM     20  C   UNL     1      -1.513   2.470   0.291  0.00  0.00    +0.068 C 
ATOM     22  C   UNL     1      -1.931   3.714  -0.482  0.00  0.00    +0.027 C 
ATOM     23  C   UNL     1      -2.320   2.321   1.576  0.00  0.00    +0.027 C 
ENDBRANCH   8  20
ENDBRANCH  15   6
ENDBRANCH   9  15
TORSDOF 7
