REMARK  Name = 7143918
REMARK  6 active torsions:
REMARK  status: ('A' for Active; 'I' for Inactive)
REMARK    1  A    between atoms: S_2  and  N_7
REMARK    2  A    between atoms: S_2  and  C_21
REMARK    3  A    between atoms: N_9  and  C_27
REMARK    4  A    between atoms: C_19  and  C_24
REMARK    5  A    between atoms: C_28  and  C_29
REMARK    6  A    between atoms: C_32  and  C_35
REMARK                            x       y       z     vdW  Elec       q    Type
REMARK                         _______ _______ _______ _____ _____    ______ ____
ROOT
ATOM      5  O   UNL     1       2.916   2.298   1.144  0.00  0.00    -0.267 OA
ATOM      7  N   UNL     1      -1.699   0.505   0.651  0.00  0.00    -0.176 NA
ATOM      8  N   UNL     1       1.030   1.879  -0.160  0.00  0.00    -0.311 N 
ATOM     10  C   UNL     1      -1.249   2.941   0.335  0.00  0.00    +0.025 C 
ATOM     11  C   UNL     1      -1.007   1.401  -1.563  0.00  0.00    +0.052 C 
ATOM     12  C   UNL     1      -1.484   2.794  -1.162  0.00  0.00    +0.017 C 
ATOM     13  C   UNL     1      -2.045   1.880   1.113  0.00  0.00    +0.114 C 
ATOM     14  C   UNL     1      -1.844   0.339  -0.826  0.00  0.00    +0.119 C 
ATOM     15  C   UNL     1       0.258   2.862   0.613  0.00  0.00    +0.130 C 
ATOM     16  C   UNL     1       0.467   1.219  -1.255  0.00  0.00    +0.026 A 
ATOM     17  C   UNL     1       1.224   0.412  -2.015  0.00  0.00    +0.022 A 
ATOM     18  C   UNL     1       2.384   1.717   0.196  0.00  0.00    +0.259 A 
ATOM     19  C   UNL     1       3.201   0.785  -0.659  0.00  0.00    +0.040 A 
ATOM     20  C   UNL     1       2.609   0.195  -1.706  0.00  0.00    +0.015 A 
ENDROOT
BRANCH   7   2
ATOM      2  S   UNL     1      -2.321  -0.773   1.604  0.00  0.00    +0.061 S 
ATOM      3  O   UNL     1      -2.261  -0.397   3.000  0.00  0.00    -0.153 OA
ATOM      4  O   UNL     1      -1.753  -2.023   1.144  0.00  0.00    -0.153 OA
BRANCH   2  21
ATOM     21  C   UNL     1      -4.015  -0.733   1.108  0.00  0.00    +0.106 A 
ATOM     22  C   UNL     1      -4.423  -1.498   0.028  0.00  0.00    +0.030 A 
ATOM     23  C   UNL     1      -4.907   0.063   1.807  0.00  0.00    +0.030 A 
ATOM     25  C   UNL     1      -5.762  -1.466  -0.364  0.00  0.00    +0.025 A 
ATOM     26  C   UNL     1      -6.245   0.095   1.416  0.00  0.00    +0.025 A 
ATOM     27  C   UNL     1      -6.673  -0.670   0.330  0.00  0.00    +0.033 A 
BRANCH  27   9
ATOM      6  O   UNL     1      -8.091  -2.108  -1.903  0.00  0.00    -0.276 OA
ATOM      9  N   UNL     1      -8.011  -0.638  -0.061  0.00  0.00    -0.286 N 
ATOM     32  C   UNL     1      -8.621  -1.331  -1.115  0.00  0.00    +0.214 C 
ATOM     35  C   UNL     1     -10.095  -1.024  -1.208  0.00  0.00    +0.109 C 
ATOM     37  H   UNL     1      -8.612  -0.034   0.495  0.00  0.00    +0.155 HD
ENDBRANCH  27   9
ENDBRANCH   2  21
ENDBRANCH   7   2
BRANCH  19  24
ATOM     24  C   UNL     1       4.589   0.554  -0.348  0.00  0.00    +0.014 C 
ATOM     28  C   UNL     1       5.212  -0.600  -0.617  0.00  0.00    +0.008 C 
BRANCH  28  29
ATOM      1 CL   UNL     1      10.931  -1.758   0.621  0.00  0.00    -0.084 Cl
ATOM     29  C   UNL     1       6.625  -0.886  -0.311  0.00  0.00    -0.025 A 
ATOM     30  C   UNL     1       7.500   0.167  -0.098  0.00  0.00    +0.009 A 
ATOM     31  C   UNL     1       7.051  -2.202  -0.242  0.00  0.00    +0.009 A 
ATOM     33  C   UNL     1       8.837  -0.103   0.192  0.00  0.00    +0.020 A 
ATOM     34  C   UNL     1       8.389  -2.473   0.047  0.00  0.00    +0.020 A 
ATOM     36  C   UNL     1       9.282  -1.424   0.264  0.00  0.00    +0.041 A 
ENDBRANCH  28  29
ENDBRANCH  19  24
TORSDOF 5
