REMARK  Name = 75536259
REMARK  8 active torsions:
REMARK  status: ('A' for Active; 'I' for Inactive)
REMARK    1  A    between atoms: O_3  and  C_10
REMARK    2  A    between atoms: N_5  and  C_9
REMARK    3  A    between atoms: N_5  and  C_11
REMARK    4  A    between atoms: N_6  and  C_20
REMARK    5  A    between atoms: C_8  and  C_11
REMARK    6  A    between atoms: C_12  and  C_19
REMARK    7  A    between atoms: C_19  and  C_21
REMARK    8  A    between atoms: C_23  and  C_24
REMARK                            x       y       z     vdW  Elec       q    Type
REMARK                         _______ _______ _______ _____ _____    ______ ____
ROOT
ATOM      2  O   UNL     1       2.814  -1.177   0.815  0.00  0.00    -0.369 OA
ATOM      8  C   UNL     1       3.600  -0.046   1.212  0.00  0.00    +0.161 C 
ATOM     10  C   UNL     1       5.080  -0.241   0.856  0.00  0.00    +0.145 C 
ATOM     12  C   UNL     1       2.915  -1.533  -0.566  0.00  0.00    +0.125 C 
ATOM     13  C   UNL     1       5.277  -0.680  -0.592  0.00  0.00    +0.036 C 
ATOM     14  C   UNL     1       4.362  -1.852  -0.936  0.00  0.00    +0.034 C 
ENDROOT
BRANCH  10   3
ATOM      3  O   UNL     1       5.625  -1.260   1.699  0.00  0.00    -0.389 OA
ATOM     31  H   UNL     1       6.572  -1.337   1.492  0.00  0.00    +0.210 HD
ENDBRANCH  10   3
BRANCH   8  11
ATOM     11  C   UNL     1       3.019   1.251   0.653  0.00  0.00    +0.115 C 
BRANCH  11   5
ATOM      5  N   UNL     1       1.624   1.402   1.036  0.00  0.00    -0.311 NA
ATOM     30  H   UNL     1       1.558   1.390   2.054  0.00  0.00    +0.122 HD
BRANCH   5   9
ATOM      6  N   UNL     1      -1.145   4.111  -0.713  0.00  0.00    -0.305 NA
ATOM      9  C   UNL     1       1.072   2.654   0.522  0.00  0.00    +0.056 C 
ATOM     15  C   UNL     1      -0.189   3.037   1.301  0.00  0.00    +0.034 C 
ATOM     16  C   UNL     1       0.748   2.538  -0.971  0.00  0.00    +0.034 C 
ATOM     17  C   UNL     1      -0.838   4.292   0.713  0.00  0.00    +0.085 C 
ATOM     18  C   UNL     1       0.068   3.809  -1.485  0.00  0.00    +0.085 C 
ATOM     20  C   UNL     1      -1.809   5.300  -1.248  0.00  0.00    +0.104 C 
ENDBRANCH   5   9
ENDBRANCH  11   5
ENDBRANCH   8  11
BRANCH  12  19
ATOM     19  C   UNL     1       2.017  -2.743  -0.794  0.00  0.00    +0.090 C 
BRANCH  19  21
ATOM      4  O   UNL     1      -1.295  -1.736  -1.800  0.00  0.00    -0.354 OA
ATOM      7  N   UNL     1       0.033  -2.043  -2.072  0.00  0.00    -0.083 NA
ATOM     21  C   UNL     1       0.566  -2.351  -0.886  0.00  0.00    +0.087 A 
ATOM     22  C   UNL     1      -0.367  -2.257   0.160  0.00  0.00    +0.076 A 
ATOM     23  C   UNL     1      -1.521  -1.867  -0.467  0.00  0.00    +0.167 A 
BRANCH  23  24
ATOM      1  F   UNL     1      -6.707  -0.767   1.220  0.00  0.00    -0.205 F 
ATOM     24  C   UNL     1      -2.857  -1.582  -0.032  0.00  0.00    +0.020 A 
ATOM     25  C   UNL     1      -3.190  -1.691   1.318  0.00  0.00    +0.014 A 
ATOM     26  C   UNL     1      -3.826  -1.198  -0.960  0.00  0.00    +0.014 A 
ATOM     27  C   UNL     1      -4.490  -1.416   1.741  0.00  0.00    +0.039 A 
ATOM     28  C   UNL     1      -5.126  -0.922  -0.537  0.00  0.00    +0.039 A 
ATOM     29  C   UNL     1      -5.458  -1.031   0.814  0.00  0.00    +0.123 A 
ENDBRANCH  23  24
ENDBRANCH  19  21
ENDBRANCH  12  19
TORSDOF 7
