REMARK  Name = 23757053
REMARK  12 active torsions:
REMARK  status: ('A' for Active; 'I' for Inactive)
REMARK    1  A    between atoms: S_2  and  C_25
REMARK    2  A    between atoms: S_2  and  C_28
REMARK    3  A    between atoms: O_3  and  C_11
REMARK    4  A    between atoms: N_7  and  C_26
REMARK    5  A    between atoms: N_8  and  C_27
REMARK    6  A    between atoms: C_9  and  C_17
REMARK    7  A    between atoms: C_12  and  C_18
REMARK    8  A    between atoms: C_14  and  C_21
REMARK    9  A    between atoms: C_18  and  C_22
REMARK   10  A    between atoms: C_18  and  C_23
REMARK   11  A    between atoms: C_24  and  C_25
REMARK   12  A    between atoms: C_26  and  C_27
REMARK                            x       y       z     vdW  Elec       q    Type
REMARK                         _______ _______ _______ _____ _____    ______ ____
ROOT
ATOM      1  S   UNL     1       3.423  -1.009   2.812  0.00  0.00    -0.076 S 
ATOM      6  N   UNL     1       4.007   0.623   0.893  0.00  0.00    -0.248 NA
ATOM      9  C   UNL     1      -0.157   0.710   1.743  0.00  0.00    -0.022 C 
ATOM     10  C   UNL     1       0.231   0.969   0.234  0.00  0.00    +0.033 C 
ATOM     11  C   UNL     1      -0.761   1.955  -0.445  0.00  0.00    +0.123 C 
ATOM     12  C   UNL     1      -2.237   1.536  -0.267  0.00  0.00    +0.029 C 
ATOM     13  C   UNL     1      -1.638   0.273   1.832  0.00  0.00    +0.008 C 
ATOM     14  C   UNL     1       1.749   1.395   0.079  0.00  0.00    +0.042 C 
ATOM     15  C   UNL     1      -2.596   1.270   1.195  0.00  0.00    +0.007 C 
ATOM     16  C   UNL     1       0.708  -0.455   2.318  0.00  0.00    +0.051 C 
ATOM     17  C   UNL     1       0.049   1.971   2.622  0.00  0.00    +0.012 C 
ATOM     19  C   UNL     1       2.628   0.564   0.982  0.00  0.00    +0.055 A 
ATOM     20  C   UNL     1       2.144  -0.250   1.985  0.00  0.00    +0.014 A 
ATOM     21  C   UNL     1       2.257   1.311  -1.368  0.00  0.00    +0.014 C 
ATOM     24  C   UNL     1       4.530  -0.173   1.801  0.00  0.00    +0.089 A 
ENDROOT
BRANCH  11   3
ATOM      3  O   UNL     1      -0.500   1.998  -1.848  0.00  0.00    -0.391 OA
ATOM     38  H   UNL     1      -0.627   1.103  -2.205  0.00  0.00    +0.210 HD
ENDBRANCH  11   3
BRANCH  12  18
ATOM     18  C   UNL     1      -3.200   2.577  -0.851  0.00  0.00    +0.077 C 
ATOM     22  C   UNL     1      -3.003   3.922  -0.160  0.00  0.00    +0.017 C 
BRANCH  18  23
ATOM      4  O   UNL     1      -5.503   2.762  -0.115  0.00  0.00    -0.276 OA
ATOM      7  N   UNL     1      -4.871   0.899  -1.343  0.00  0.00    -0.314 N 
ATOM     23  C   UNL     1      -4.647   2.115  -0.714  0.00  0.00    +0.216 C 
ATOM     39  H   UNL     1      -4.125   0.452  -1.865  0.00  0.00    +0.149 HD
BRANCH   7  26
ATOM     26  C   UNL     1      -6.164   0.254  -1.359  0.00  0.00    +0.119 C 
BRANCH  26  27
ATOM     27  C   UNL     1      -6.331  -0.673  -0.164  0.00  0.00    +0.103 C 
BRANCH  27   8
ATOM      5  O   UNL     1      -4.445  -4.422  -0.202  0.00  0.00    -0.377 OA
ATOM      8  N   UNL     1      -5.298  -1.707  -0.175  0.00  0.00    -0.297 NA
ATOM     29  C   UNL     1      -5.398  -2.531  -1.387  0.00  0.00    +0.112 C 
ATOM     30  C   UNL     1      -5.397  -2.555   1.021  0.00  0.00    +0.112 C 
ATOM     31  C   UNL     1      -4.319  -3.610  -1.370  0.00  0.00    +0.175 C 
ATOM     32  C   UNL     1      -4.317  -3.633   0.981  0.00  0.00    +0.175 C 
ENDBRANCH  27   8
ENDBRANCH  26  27
ENDBRANCH   7  26
ENDBRANCH  18  23
ENDBRANCH  12  18
BRANCH  24  25
ATOM     25  C   UNL     1       5.981  -0.380   1.997  0.00  0.00    +0.137 C 
BRANCH  25   2
ATOM      2  S   UNL     1       6.615  -1.757   0.982  0.00  0.00    -0.118 S 
BRANCH   2  28
ATOM     28  C   UNL     1       6.312  -1.139  -0.668  0.00  0.00    +0.008 A 
ATOM     33  C   UNL     1       6.909   0.049  -1.083  0.00  0.00    +0.015 A 
ATOM     34  C   UNL     1       5.481  -1.848  -1.531  0.00  0.00    +0.015 A 
ATOM     35  C   UNL     1       6.672   0.532  -2.370  0.00  0.00    +0.001 A 
ATOM     36  C   UNL     1       5.245  -1.365  -2.819  0.00  0.00    +0.001 A 
ATOM     37  C   UNL     1       5.840  -0.176  -3.238  0.00  0.00    +0.000 A 
ENDBRANCH   2  28
ENDBRANCH  25   2
ENDBRANCH  24  25
TORSDOF 9
