REMARK  Name = 26763589
REMARK  4 active torsions:
REMARK  status: ('A' for Active; 'I' for Inactive)
REMARK    1  A    between atoms: S_1  and  N_8
REMARK    2  A    between atoms: S_1  and  C_25
REMARK    3  A    between atoms: N_10  and  C_18
REMARK    4  A    between atoms: C_13  and  C_17
REMARK                            x       y       z     vdW  Elec       q    Type
REMARK                         _______ _______ _______ _____ _____    ______ ____
ROOT
ATOM      5  O   UNL     1       3.180   3.555   1.195  0.00  0.00    -0.377 OA
ATOM      6  O   UNL     1       3.465  -0.164  -2.107  0.00  0.00    -0.252 OA
ATOM      8  N   UNL     1      -0.105  -2.842  -0.054  0.00  0.00    -0.167 NA
ATOM      9  N   UNL     1       2.162  -1.067  -0.435  0.00  0.00    -0.282 N 
ATOM     11  N   UNL     1       3.092   1.133  -0.244  0.00  0.00    -0.281 N 
ATOM     13  C   UNL     1      -0.100  -1.484   0.555  0.00  0.00    +0.182 C 
ATOM     14  C   UNL     1       1.306  -0.917   0.752  0.00  0.00    +0.139 C 
ATOM     15  C   UNL     1       1.232  -3.364  -0.443  0.00  0.00    +0.129 C 
ATOM     16  C   UNL     1       1.978  -2.289  -1.215  0.00  0.00    +0.126 C 
ATOM     19  C   UNL     1       2.945  -0.042  -0.990  0.00  0.00    +0.305 C 
ATOM     22  C   UNL     1       3.256   2.407  -0.943  0.00  0.00    +0.137 C 
ATOM     23  C   UNL     1       3.557   1.167   1.147  0.00  0.00    +0.137 C 
ATOM     27  C   UNL     1       2.635   3.534  -0.128  0.00  0.00    +0.179 C 
ATOM     28  C   UNL     1       2.914   2.330   1.886  0.00  0.00    +0.179 C 
ENDROOT
BRANCH   8   1
ATOM      1  S   UNL     1      -1.196  -3.981   0.605  0.00  0.00    +0.030 S 
ATOM      3  O   UNL     1      -1.298  -5.106  -0.299  0.00  0.00    -0.158 OA
ATOM      4  O   UNL     1      -2.368  -3.280   1.083  0.00  0.00    -0.158 OA
ATOM     25  C   UNL     1      -0.252  -4.496   2.016  0.00  0.00    +0.215 C 
ENDBRANCH   8   1
BRANCH  13  17
ATOM      2  O   UNL     1      -0.902  -0.840  -1.595  0.00  0.00    -0.274 OA
ATOM     10  N   UNL     1      -1.616   0.345   0.278  0.00  0.00    -0.303 N 
ATOM     17  C   UNL     1      -0.909  -0.646  -0.382  0.00  0.00    +0.234 C 
ATOM     29  H   UNL     1      -1.554   0.405   1.290  0.00  0.00    +0.149 HD
BRANCH  10  18
ATOM      7  O   UNL     1      -1.292   2.994   0.865  0.00  0.00    -0.274 OA
ATOM     12  N   UNL     1      -3.453   3.450   0.279  0.00  0.00    -0.314 N 
ATOM     18  C   UNL     1      -2.454   1.299  -0.401  0.00  0.00    +0.159 C 
ATOM     20  C   UNL     1      -3.876   0.772  -0.535  0.00  0.00    +0.033 C 
ATOM     21  C   UNL     1      -4.774   1.864  -1.093  0.00  0.00    +0.021 C 
ATOM     24  C   UNL     1      -2.345   2.629   0.338  0.00  0.00    +0.233 C 
ATOM     26  C   UNL     1      -4.782   3.038  -0.132  0.00  0.00    +0.104 C 
ATOM     30  H   UNL     1      -3.371   4.362   0.718  0.00  0.00    +0.149 HD
ENDBRANCH  10  18
ENDBRANCH  13  17
TORSDOF 3
