REMARK  Name = 40776885
REMARK  9 active torsions:
REMARK  status: ('A' for Active; 'I' for Inactive)
REMARK    1  A    between atoms: O_2  and  C_15
REMARK    2  A    between atoms: O_2  and  C_20
REMARK    3  A    between atoms: N_7  and  C_23
REMARK    4  A    between atoms: C_9  and  C_16
REMARK    5  A    between atoms: C_10  and  C_15
REMARK    6  A    between atoms: C_18  and  C_21
REMARK    7  A    between atoms: C_19  and  C_22
REMARK    8  A    between atoms: C_23  and  C_26
REMARK    9  A    between atoms: C_23  and  C_27
REMARK                            x       y       z     vdW  Elec       q    Type
REMARK                         _______ _______ _______ _____ _____    ______ ____
ROOT
ATOM      4  N   UNL     1       1.658   2.625   1.606  0.00  0.00    -0.296 NA
ATOM      8  C   UNL     1       1.065   2.906  -0.915  0.00  0.00    +0.002 C 
ATOM      9  C   UNL     1      -0.179   2.433  -0.113  0.00  0.00    +0.055 C 
ATOM     10  C   UNL     1       2.661   1.918   0.766  0.00  0.00    +0.095 C 
ATOM     11  C   UNL     1       2.216   1.897  -0.712  0.00  0.00    +0.026 C 
ATOM     12  C   UNL     1       1.518   4.242  -0.288  0.00  0.00    +0.019 C 
ATOM     13  C   UNL     1       0.299   2.096   1.328  0.00  0.00    +0.094 C 
ATOM     14  C   UNL     1       1.681   4.059   1.231  0.00  0.00    +0.085 C 
ENDROOT
BRANCH   9  16
ATOM      5  N   UNL     1      -0.648   0.828  -1.899  0.00  0.00    -0.237 NA
ATOM      6  N   UNL     1      -2.549  -0.651  -1.828  0.00  0.00    -0.232 NA
ATOM     16  C   UNL     1      -1.041   1.329  -0.709  0.00  0.00    +0.050 A 
ATOM     17  C   UNL     1      -2.160   0.898  -0.028  0.00  0.00    +0.052 A 
ATOM     18  C   UNL     1      -2.884  -0.105  -0.641  0.00  0.00    +0.075 A 
ATOM     19  C   UNL     1      -1.436  -0.145  -2.393  0.00  0.00    +0.127 A 
ATOM     22  C   UNL     1      -1.035  -0.723  -3.708  0.00  0.00    +0.088 C 
BRANCH  18  21
ATOM      1  F   UNL     1      -7.490  -2.182   1.708  0.00  0.00    -0.205 F 
ATOM     21  C   UNL     1      -4.077  -0.643  -0.032  0.00  0.00    +0.001 A 
ATOM     24  C   UNL     1      -4.008  -1.246   1.224  0.00  0.00    +0.013 A 
ATOM     25  C   UNL     1      -5.298  -0.560  -0.701  0.00  0.00    +0.013 A 
ATOM     28  C   UNL     1      -5.161  -1.766   1.812  0.00  0.00    +0.039 A 
ATOM     29  C   UNL     1      -6.451  -1.080  -0.113  0.00  0.00    +0.039 A 
ATOM     30  C   UNL     1      -6.383  -1.683   1.143  0.00  0.00    +0.123 A 
ENDBRANCH  18  21
ENDBRANCH   9  16
BRANCH  10  15
ATOM     15  C   UNL     1       2.972   0.514   1.288  0.00  0.00    +0.252 C 
BRANCH  15   2
ATOM      2  O   UNL     1       4.008  -0.037   0.498  0.00  0.00    -0.449 OA
BRANCH   2  20
ATOM      3  O   UNL     1       3.946  -1.964   1.745  0.00  0.00    -0.226 OA
ATOM      7  N   UNL     1       5.430  -1.715  -0.021  0.00  0.00    -0.279 N 
ATOM     20  C   UNL     1       4.421  -1.306   0.826  0.00  0.00    +0.401 C 
ATOM     31  H   UNL     1       5.699  -1.088  -0.773  0.00  0.00    +0.152 HD
BRANCH   7  23
ATOM     23  C   UNL     1       6.076  -3.004   0.066  0.00  0.00    +0.070 C 
ATOM     26  C   UNL     1       5.320  -4.038  -0.759  0.00  0.00    +0.027 C 
ATOM     27  C   UNL     1       7.529  -2.899  -0.378  0.00  0.00    +0.027 C 
ENDBRANCH   7  23
ENDBRANCH   2  20
ENDBRANCH  15   2
ENDBRANCH  10  15
TORSDOF 6
