REMARK  Name = 75536552
REMARK  7 active torsions:
REMARK  status: ('A' for Active; 'I' for Inactive)
REMARK    1  A    between atoms: O_2  and  C_7
REMARK    2  A    between atoms: N_4  and  C_6
REMARK    3  A    between atoms: N_4  and  C_17
REMARK    4  A    between atoms: N_4  and  C_18
REMARK    5  A    between atoms: N_5  and  C_13
REMARK    6  A    between atoms: C_8  and  C_13
REMARK    7  A    between atoms: C_9  and  C_16
REMARK                            x       y       z     vdW  Elec       q    Type
REMARK                         _______ _______ _______ _____ _____    ______ ____
ROOT
ATOM      1  O   UNL     1      -1.328  -1.401   0.023  0.00  0.00    -0.371 OA
ATOM      6  C   UNL     1      -3.347  -0.211  -0.364  0.00  0.00    +0.113 C 
ATOM      7  C   UNL     1      -2.391   0.676   0.411  0.00  0.00    +0.164 C 
ATOM      8  C   UNL     1      -1.057   0.008   0.105  0.00  0.00    +0.165 C 
ATOM     10  C   UNL     1      -2.747  -1.586  -0.119  0.00  0.00    +0.181 C 
ENDROOT
BRANCH   6   4
ATOM      4  N   UNL     1      -4.728  -0.109   0.079  0.00  0.00    -0.301 NA
ATOM     17  C   UNL     1      -5.574  -1.077  -0.625  0.00  0.00    +0.105 C 
ATOM     18  C   UNL     1      -5.240   1.249  -0.124  0.00  0.00    +0.105 C 
ENDBRANCH   6   4
BRANCH   7   2
ATOM      2  O   UNL     1      -2.419   2.021  -0.024  0.00  0.00    -0.388 OA
ATOM     20  H   UNL     1      -2.235   2.037  -0.978  0.00  0.00    +0.210 HD
ENDBRANCH   7   2
BRANCH   8  13
ATOM     13  C   UNL     1       0.001   0.267   1.162  0.00  0.00    +0.138 C 
BRANCH  13   5
ATOM      3  O   UNL     1       2.206   1.347  -0.388  0.00  0.00    -0.276 OA
ATOM      5  N   UNL     1       1.237  -0.384   0.834  0.00  0.00    -0.313 N 
ATOM     16  C   UNL     1       2.243   0.213   0.082  0.00  0.00    +0.216 C 
ATOM     19  H   UNL     1       1.373  -1.330   1.177  0.00  0.00    +0.149 HD
BRANCH  16   9
ATOM      9  C   UNL     1       3.436  -0.676  -0.093  0.00  0.00    +0.075 C 
ATOM     11  C   UNL     1       4.170  -0.345  -1.393  0.00  0.00    +0.013 C 
ATOM     12  C   UNL     1       4.443  -0.443   1.039  0.00  0.00    +0.013 C 
ATOM     14  C   UNL     1       5.336   0.533  -0.964  0.00  0.00    +0.001 C 
ATOM     15  C   UNL     1       5.759  -0.082   0.358  0.00  0.00    +0.001 C 
ENDBRANCH  16   9
ENDBRANCH  13   5
ENDBRANCH   8  13
TORSDOF 5
