REMARK  Name = 51137065
REMARK  4 active torsions:
REMARK  status: ('A' for Active; 'I' for Inactive)
REMARK    1  A    between atoms: N_5  and  C_11
REMARK    2  A    between atoms: C_7  and  C_12
REMARK    3  A    between atoms: C_11  and  C_13
REMARK    4  A    between atoms: C_22  and  C_25
REMARK                            x       y       z     vdW  Elec       q    Type
REMARK                         _______ _______ _______ _____ _____    ______ ____
ROOT
ATOM      5  N   UNL     1      -0.315  -0.167  -0.291  0.00  0.00    -0.297 NA
ATOM      7  C   UNL     1       1.863  -0.767   0.339  0.00  0.00    +0.090 C 
ATOM      8  C   UNL     1       1.124  -0.170   1.548  0.00  0.00    +0.029 C 
ATOM      9  C   UNL     1       1.014  -0.362  -0.874  0.00  0.00    +0.097 C 
ATOM     10  C   UNL     1      -0.076   0.559   0.957  0.00  0.00    +0.085 C 
ENDROOT
BRANCH   7  12
ATOM      4  O   UNL     1       4.225  -1.361   0.237  0.00  0.00    -0.439 OA
ATOM      6  N   UNL     1       3.803   0.860   0.075  0.00  0.00    -0.213 NA
ATOM     12  C   UNL     1       3.311  -0.351   0.210  0.00  0.00    +0.201 A 
ATOM     14  C   UNL     1       5.420  -0.714   0.105  0.00  0.00    +0.155 A 
ATOM     15  C   UNL     1       5.158   0.645   0.006  0.00  0.00    +0.110 A 
ATOM     20  C   UNL     1       6.689  -1.280   0.072  0.00  0.00    +0.048 A 
ATOM     21  C   UNL     1       6.233   1.534  -0.139  0.00  0.00    +0.031 A 
ATOM     23  C   UNL     1       7.750  -0.380  -0.074  0.00  0.00    +0.004 A 
ATOM     24  C   UNL     1       7.529   0.999  -0.177  0.00  0.00    +0.002 A 
ENDBRANCH   7  12
BRANCH   5  11
ATOM     11  C   UNL     1      -1.214   0.548  -1.184  0.00  0.00    +0.119 C 
BRANCH  11  13
ATOM     13  C   UNL     1      -2.656   0.368  -0.791  0.00  0.00    -0.033 A 
ATOM     16  C   UNL     1      -3.312  -0.828  -1.079  0.00  0.00    +0.005 A 
ATOM     17  C   UNL     1      -3.335   1.397  -0.138  0.00  0.00    +0.005 A 
ATOM     18  C   UNL     1      -4.648  -0.996  -0.715  0.00  0.00    +0.012 A 
ATOM     19  C   UNL     1      -4.670   1.229   0.227  0.00  0.00    +0.012 A 
ATOM     22  C   UNL     1      -5.327   0.033  -0.061  0.00  0.00    +0.055 A 
BRANCH  22  25
ATOM      1  F   UNL     1      -6.970  -0.039   1.676  0.00  0.00    -0.166 F 
ATOM      2  F   UNL     1      -7.245  -1.372  -0.020  0.00  0.00    -0.166 F 
ATOM      3  F   UNL     1      -7.598   0.762  -0.239  0.00  0.00    -0.166 F 
ATOM     25  C   UNL     1      -6.755  -0.148   0.331  0.00  0.00    +0.417 C 
ENDBRANCH  22  25
ENDBRANCH  11  13
ENDBRANCH   5  11
TORSDOF 4
