REMARK  Name = 40779229
REMARK  14 active torsions:
REMARK  status: ('A' for Active; 'I' for Inactive)
REMARK    1  A    between atoms: S_1  and  N_8
REMARK    2  A    between atoms: S_1  and  C_24
REMARK    3  A    between atoms: O_4  and  C_27
REMARK    4  A    between atoms: O_4  and  C_35
REMARK    5  A    between atoms: O_5  and  C_31
REMARK    6  A    between atoms: O_5  and  C_38
REMARK    7  A    between atoms: N_7  and  C_22
REMARK    8  A    between atoms: N_8  and  C_18
REMARK    9  A    between atoms: N_10  and  C_33
REMARK   10  A    between atoms: N_10  and  C_36
REMARK   11  A    between atoms: N_10  and  C_37
REMARK   12  A    between atoms: C_12  and  C_19
REMARK   13  A    between atoms: C_13  and  C_18
REMARK   14  A    between atoms: C_21  and  C_23
REMARK                            x       y       z     vdW  Elec       q    Type
REMARK                         _______ _______ _______ _____ _____    ______ ____
ROOT
ATOM      6  N   UNL     1      -3.854  -1.828   1.620  0.00  0.00    -0.297 NA
ATOM     11  C   UNL     1      -3.055  -2.376  -0.798  0.00  0.00    +0.002 C 
ATOM     12  C   UNL     1      -2.058  -2.949   0.247  0.00  0.00    +0.055 C 
ATOM     13  C   UNL     1      -3.867  -0.596   0.789  0.00  0.00    +0.072 C 
ATOM     14  C   UNL     1      -3.204  -0.855  -0.581  0.00  0.00    +0.024 C 
ATOM     15  C   UNL     1      -4.429  -3.013  -0.498  0.00  0.00    +0.019 C 
ATOM     16  C   UNL     1      -2.490  -2.413   1.642  0.00  0.00    +0.094 C 
ATOM     17  C   UNL     1      -4.768  -2.811   0.989  0.00  0.00    +0.085 C 
ENDROOT
BRANCH  12  19
ATOM      7  N   UNL     1       0.182  -3.664  -0.707  0.00  0.00    -0.270 N 
ATOM      9  N   UNL     1       1.477  -3.320  -0.818  0.00  0.00    -0.171 NA
ATOM     19  C   UNL     1      -0.568  -2.767  -0.005  0.00  0.00    +0.044 A 
ATOM     20  C   UNL     1       0.295  -1.766   0.368  0.00  0.00    +0.053 A 
ATOM     21  C   UNL     1       1.540  -2.160  -0.159  0.00  0.00    +0.093 A 
ATOM     22  C   UNL     1      -0.275  -4.895  -1.309  0.00  0.00    +0.172 C 
BRANCH  21  23
ATOM     23  C   UNL     1       2.787  -1.450  -0.044  0.00  0.00    +0.002 A 
ATOM     25  C   UNL     1       3.328  -1.189   1.214  0.00  0.00    +0.012 A 
ATOM     26  C   UNL     1       3.455  -1.025  -1.193  0.00  0.00    +0.012 A 
ATOM     29  C   UNL     1       4.537  -0.502   1.325  0.00  0.00    +0.024 A 
ATOM     30  C   UNL     1       4.664  -0.338  -1.082  0.00  0.00    +0.024 A 
ATOM     33  C   UNL     1       5.205  -0.076   0.177  0.00  0.00    +0.029 A 
BRANCH  33  10
ATOM     10  N   UNL     1       6.427   0.618   0.289  0.00  0.00    -0.336 N 
ATOM     36  C   UNL     1       6.998   0.894   1.592  0.00  0.00    +0.129 C 
ATOM     37  C   UNL     1       7.133   1.058  -0.898  0.00  0.00    +0.129 C 
ENDBRANCH  33  10
ENDBRANCH  21  23
ENDBRANCH  12  19
BRANCH  13  18
ATOM     18  C   UNL     1      -3.239   0.599   1.510  0.00  0.00    +0.124 C 
BRANCH  18   8
ATOM      8  N   UNL     1      -3.793   1.845   0.955  0.00  0.00    -0.188 NA
ATOM     39  H   UNL     1      -4.684   1.806   0.447  0.00  0.00    +0.148 HD
BRANCH   8   1
ATOM      1  S   UNL     1      -2.857   3.268   0.941  0.00  0.00    +0.062 S 
ATOM      2  O   UNL     1      -2.379   3.539   2.283  0.00  0.00    -0.153 OA
ATOM      3  O   UNL     1      -3.563   4.293   0.197  0.00  0.00    -0.153 OA
BRANCH   1  24
ATOM     24  C   UNL     1      -1.472   2.777  -0.042  0.00  0.00    +0.150 A 
ATOM     27  C   UNL     1      -1.611   2.549  -1.411  0.00  0.00    +0.147 A 
ATOM     28  C   UNL     1      -0.228   2.618   0.569  0.00  0.00    +0.077 A 
ATOM     31  C   UNL     1       0.877   2.231  -0.190  0.00  0.00    +0.122 A 
ATOM     32  C   UNL     1      -0.507   2.161  -2.169  0.00  0.00    +0.051 A 
ATOM     34  C   UNL     1       0.737   2.002  -1.559  0.00  0.00    +0.049 A 
BRANCH  27   4
ATOM      4  O   UNL     1      -2.816   2.697  -2.029  0.00  0.00    -0.493 OA
ATOM     35  C   UNL     1      -2.861   2.442  -3.431  0.00  0.00    +0.277 C 
ENDBRANCH  27   4
BRANCH  31   5
ATOM      5  O   UNL     1       2.091   2.075   0.406  0.00  0.00    -0.495 OA
ATOM     38  C   UNL     1       2.163   2.326   1.809  0.00  0.00    +0.277 C 
ENDBRANCH  31   5
ENDBRANCH   1  24
ENDBRANCH   8   1
ENDBRANCH  18   8
ENDBRANCH  13  18
TORSDOF 9
