REMARK  Name = 7674050
REMARK  5 active torsions:
REMARK  status: ('A' for Active; 'I' for Inactive)
REMARK    1  A    between atoms: S_1  and  N_8
REMARK    2  A    between atoms: S_1  and  C_22
REMARK    3  A    between atoms: N_10  and  C_18
REMARK    4  A    between atoms: C_13  and  C_17
REMARK    5  A    between atoms: C_21  and  C_25
REMARK                            x       y       z     vdW  Elec       q    Type
REMARK                         _______ _______ _______ _____ _____    ______ ____
ROOT
ATOM      6  O   UNL     1       1.554   2.577   2.166  0.00  0.00    -0.270 OA
ATOM      8  N   UNL     1      -1.037  -0.325  -1.082  0.00  0.00    -0.162 NA
ATOM      9  N   UNL     1       0.154   1.810   0.456  0.00  0.00    -0.294 N 
ATOM     13  C   UNL     1      -0.179  -0.638   0.095  0.00  0.00    +0.183 C 
ATOM     14  C   UNL     1      -0.080   0.513   1.091  0.00  0.00    +0.138 C 
ATOM     15  C   UNL     1      -1.638   1.034  -1.077  0.00  0.00    +0.129 C 
ATOM     16  C   UNL     1      -0.548   2.062  -0.808  0.00  0.00    +0.125 C 
ATOM     21  C   UNL     1       0.953   2.756   1.108  0.00  0.00    +0.248 C 
ENDROOT
BRANCH  21  25
ATOM     12  N   UNL     1       0.289   6.351   0.258  0.00  0.00    -0.263 NA
ATOM     25  C   UNL     1       1.094   4.083   0.488  0.00  0.00    +0.055 A 
ATOM     30  C   UNL     1       2.113   4.346  -0.421  0.00  0.00    +0.016 A 
ATOM     31  C   UNL     1       0.215   5.111   0.791  0.00  0.00    +0.123 A 
ATOM     33  C   UNL     1       2.222   5.609  -0.990  0.00  0.00    +0.020 A 
ATOM     34  C   UNL     1       1.293   6.569  -0.621  0.00  0.00    +0.111 A 
ENDBRANCH  21  25
BRANCH  13  17
ATOM      3  O   UNL     1       1.570  -0.407  -1.508  0.00  0.00    -0.274 OA
ATOM     10  N   UNL     1       1.815  -1.954   0.214  0.00  0.00    -0.303 N 
ATOM     17  C   UNL     1       1.156  -0.965  -0.496  0.00  0.00    +0.234 C 
ATOM     35  H   UNL     1       1.388  -2.323   1.059  0.00  0.00    +0.149 HD
BRANCH  10  18
ATOM      7  O   UNL     1       2.136  -4.663   0.056  0.00  0.00    -0.274 OA
ATOM     11  N   UNL     1       4.374  -4.482   0.476  0.00  0.00    -0.314 N 
ATOM     18  C   UNL     1       3.107  -2.464  -0.162  0.00  0.00    +0.159 C 
ATOM     19  C   UNL     1       4.220  -1.656   0.491  0.00  0.00    +0.033 C 
ATOM     20  C   UNL     1       5.560  -2.321   0.220  0.00  0.00    +0.021 C 
ATOM     23  C   UNL     1       3.138  -3.953   0.166  0.00  0.00    +0.233 C 
ATOM     24  C   UNL     1       5.554  -3.713   0.825  0.00  0.00    +0.104 C 
ATOM     36  H   UNL     1       4.416  -5.484   0.640  0.00  0.00    +0.149 HD
ENDBRANCH  10  18
ENDBRANCH  13  17
BRANCH   8   1
ATOM      1  S   UNL     1      -2.029  -1.586  -1.670  0.00  0.00    +0.062 S 
ATOM      4  O   UNL     1      -1.363  -2.853  -1.453  0.00  0.00    -0.153 OA
ATOM      5  O   UNL     1      -2.527  -1.222  -2.980  0.00  0.00    -0.153 OA
BRANCH   1  22
ATOM      2  F   UNL     1      -6.514  -1.234   2.138  0.00  0.00    -0.205 F 
ATOM     22  C   UNL     1      -3.372  -1.481  -0.529  0.00  0.00    +0.106 A 
ATOM     26  C   UNL     1      -4.463  -0.658  -0.811  0.00  0.00    +0.031 A 
ATOM     27  C   UNL     1      -3.343  -2.221   0.653  0.00  0.00    +0.031 A 
ATOM     28  C   UNL     1      -5.524  -0.575   0.091  0.00  0.00    +0.040 A 
ATOM     29  C   UNL     1      -4.405  -2.138   1.554  0.00  0.00    +0.040 A 
ATOM     32  C   UNL     1      -5.495  -1.314   1.273  0.00  0.00    +0.124 A 
ENDBRANCH   1  22
ENDBRANCH   8   1
TORSDOF 5
