REMARK  Name = 45360554
REMARK  7 active torsions:
REMARK  status: ('A' for Active; 'I' for Inactive)
REMARK    1  A    between atoms: O_6  and  C_12
REMARK    2  A    between atoms: N_8  and  C_11
REMARK    3  A    between atoms: N_9  and  C_13
REMARK    4  A    between atoms: N_10  and  C_29
REMARK    5  A    between atoms: C_18  and  C_22
REMARK    6  A    between atoms: C_22  and  C_23
REMARK    7  A    between atoms: C_33  and  C_36
REMARK                            x       y       z     vdW  Elec       q    Type
REMARK                         _______ _______ _______ _____ _____    ______ ____
ROOT
ATOM      4  O   UNL     1      -1.027  -3.704  -1.681  0.00  0.00    -0.342 OA
ATOM      5  O   UNL     1      -2.072  -5.287  -0.345  0.00  0.00    -0.347 OA
ATOM     11  C   UNL     1      -2.062  -2.978   0.373  0.00  0.00    +0.143 C 
ATOM     12  C   UNL     1      -0.740  -3.200   1.141  0.00  0.00    +0.159 C 
ATOM     13  C   UNL     1       0.440  -3.605   0.230  0.00  0.00    +0.136 C 
ATOM     14  C   UNL     1      -2.157  -3.936  -0.828  0.00  0.00    +0.270 C 
ATOM     15  C   UNL     1       0.003  -4.427  -1.000  0.00  0.00    +0.170 C 
ATOM     19  C   UNL     1      -0.736  -5.707  -0.660  0.00  0.00    +0.196 C 
ENDROOT
BRANCH  13   9
ATOM      7  O   UNL     1       2.614  -2.339   1.600  0.00  0.00    -0.252 OA
ATOM      9  N   UNL     1       1.165  -2.428  -0.199  0.00  0.00    -0.291 N 
ATOM     10  N   UNL     1       2.723  -0.749  -0.124  0.00  0.00    -0.269 N 
ATOM     24  C   UNL     1       2.217  -1.874   0.533  0.00  0.00    +0.304 C 
ATOM     37  H   UNL     1       0.842  -1.941  -1.029  0.00  0.00    +0.151 HD
ATOM     39  H   UNL     1       2.279  -0.496  -1.003  0.00  0.00    +0.156 HD
BRANCH  10  29
ATOM     29  C   UNL     1       3.784   0.092   0.285  0.00  0.00    +0.035 A 
ATOM     31  C   UNL     1       4.155   1.181  -0.503  0.00  0.00    +0.035 A 
ATOM     32  C   UNL     1       4.461  -0.169   1.477  0.00  0.00    +0.023 A 
ATOM     33  C   UNL     1       5.202   2.010  -0.100  0.00  0.00    +0.057 A 
ATOM     34  C   UNL     1       5.508   0.660   1.880  0.00  0.00    +0.002 A 
ATOM     35  C   UNL     1       5.878   1.749   1.091  0.00  0.00    +0.012 A 
BRANCH  33  36
ATOM      1  F   UNL     1       6.002   2.828  -2.201  0.00  0.00    -0.166 F 
ATOM      2  F   UNL     1       6.637   3.880  -0.407  0.00  0.00    -0.166 F 
ATOM      3  F   UNL     1       4.596   4.083  -1.128  0.00  0.00    -0.166 F 
ATOM     36  C   UNL     1       5.599   3.175  -0.943  0.00  0.00    +0.417 C 
ENDBRANCH  33  36
ENDBRANCH  10  29
ENDBRANCH  13   9
BRANCH  11   8
ATOM      8  N   UNL     1      -2.149  -1.592  -0.091  0.00  0.00    -0.293 NA
ATOM     16  C   UNL     1      -2.562  -0.707   1.006  0.00  0.00    +0.085 C 
ATOM     17  C   UNL     1      -3.069  -1.488  -1.231  0.00  0.00    +0.085 C 
ATOM     18  C   UNL     1      -3.526   0.933  -0.660  0.00  0.00    -0.004 C 
ATOM     20  C   UNL     1      -2.605   0.753   0.552  0.00  0.00    +0.019 C 
ATOM     21  C   UNL     1      -3.129  -0.054  -1.763  0.00  0.00    +0.019 C 
BRANCH  18  22
ATOM     22  C   UNL     1      -3.488   2.370  -1.170  0.00  0.00    +0.038 C 
BRANCH  22  23
ATOM     23  C   UNL     1      -4.333   3.283  -0.324  0.00  0.00    -0.047 A 
ATOM     25  C   UNL     1      -5.677   3.480  -0.639  0.00  0.00    +0.003 A 
ATOM     26  C   UNL     1      -3.772   3.932   0.776  0.00  0.00    +0.003 A 
ATOM     27  C   UNL     1      -6.461   4.326   0.146  0.00  0.00    +0.000 A 
ATOM     28  C   UNL     1      -4.556   4.778   1.561  0.00  0.00    +0.000 A 
ATOM     30  C   UNL     1      -5.900   4.975   1.246  0.00  0.00    +0.000 A 
ENDBRANCH  22  23
ENDBRANCH  18  22
ENDBRANCH  11   8
BRANCH  12   6
ATOM      6  O   UNL     1      -0.961  -4.244   2.099  0.00  0.00    -0.388 OA
ATOM     38  H   UNL     1      -0.147  -4.339   2.623  0.00  0.00    +0.210 HD
ENDBRANCH  12   6
TORSDOF 7
