REMARK  Name = 56775906
REMARK  5 active torsions:
REMARK  status: ('A' for Active; 'I' for Inactive)
REMARK    1  A    between atoms: N_2  and  C_6
REMARK    2  A    between atoms: C_5  and  C_10
REMARK    3  A    between atoms: C_6  and  C_11
REMARK    4  A    between atoms: C_6  and  C_12
REMARK    5  A    between atoms: C_13  and  C_15
REMARK                            x       y       z     vdW  Elec       q    Type
REMARK                         _______ _______ _______ _____ _____    ______ ____
ROOT
ATOM      3  N   UNL     1      -0.572   0.201   0.426  0.00  0.00    -0.341 N 
ATOM      4  N   UNL     1       0.293   1.028  -1.445  0.00  0.00    -0.238 NA
ATOM     10  C   UNL     1       0.560   0.588  -0.235  0.00  0.00    +0.127 A 
ATOM     13  C   UNL     1      -1.628   0.406  -0.415  0.00  0.00    +0.066 A 
ATOM     14  C   UNL     1      -1.070   0.917  -1.563  0.00  0.00    +0.139 A 
ATOM     21  H   UNL     1      -0.611  -0.162   1.370  0.00  0.00    +0.167 HD
ENDROOT
BRANCH  10   5
ATOM      1  O   UNL     1       3.794   1.869   1.200  0.00  0.00    -0.377 OA
ATOM      2  N   UNL     1       2.882  -0.379  -0.321  0.00  0.00    -0.286 NA
ATOM      5  C   UNL     1       1.932   0.492   0.418  0.00  0.00    +0.149 C 
ATOM      7  C   UNL     1       4.211  -0.337   0.315  0.00  0.00    +0.113 C 
ATOM      8  C   UNL     1       2.517   1.910   0.563  0.00  0.00    +0.186 C 
ATOM      9  C   UNL     1       4.711   1.097   0.429  0.00  0.00    +0.175 C 
BRANCH   2   6
ATOM      6  C   UNL     1       2.423  -1.771  -0.382  0.00  0.00    +0.051 C 
ATOM     11  C   UNL     1       3.056  -2.462  -1.585  0.00  0.00    +0.024 C 
ATOM     12  C   UNL     1       2.769  -2.500   0.913  0.00  0.00    +0.024 C 
ENDBRANCH   2   6
ENDBRANCH  10   5
BRANCH  13  15
ATOM     15  C   UNL     1      -2.992   0.110  -0.062  0.00  0.00    -0.000 A 
ATOM     16  C   UNL     1      -4.033   0.856  -0.615  0.00  0.00    +0.010 A 
ATOM     17  C   UNL     1      -3.272  -0.922   0.833  0.00  0.00    +0.010 A 
ATOM     18  C   UNL     1      -5.354   0.569  -0.273  0.00  0.00    +0.001 A 
ATOM     19  C   UNL     1      -4.593  -1.209   1.176  0.00  0.00    +0.001 A 
ATOM     20  C   UNL     1      -5.635  -0.464   0.623  0.00  0.00    +0.000 A 
ENDBRANCH  13  15
TORSDOF 3
