REMARK  Name = 28961566
REMARK  8 active torsions:
REMARK  status: ('A' for Active; 'I' for Inactive)
REMARK    1  A    between atoms: O_2  and  C_9
REMARK    2  A    between atoms: O_3  and  C_17
REMARK    3  A    between atoms: N_4  and  C_7
REMARK    4  A    between atoms: N_5  and  C_13
REMARK    5  A    between atoms: N_5  and  C_16
REMARK    6  A    between atoms: N_6  and  C_22
REMARK    7  A    between atoms: C_8  and  C_13
REMARK    8  A    between atoms: C_10  and  C_17
REMARK                            x       y       z     vdW  Elec       q    Type
REMARK                         _______ _______ _______ _____ _____    ______ ____
ROOT
ATOM      1  O   UNL     1       1.000  -1.833   0.936  0.00  0.00    -0.366 OA
ATOM      7  C   UNL     1       2.503  -0.038   0.505  0.00  0.00    +0.118 C 
ATOM      8  C   UNL     1       1.133  -0.403   1.091  0.00  0.00    +0.152 C 
ATOM      9  C   UNL     1       2.751  -1.150  -0.503  0.00  0.00    +0.165 C 
ATOM     10  C   UNL     1       2.154  -2.340   0.238  0.00  0.00    +0.174 C 
ENDROOT
BRANCH   7   4
ATOM      4  N   UNL     1       2.640   1.314  -0.016  0.00  0.00    -0.295 NA
ATOM     11  C   UNL     1       2.869   2.299   1.041  0.00  0.00    +0.085 C 
ATOM     12  C   UNL     1       3.784   1.452  -0.917  0.00  0.00    +0.085 C 
ATOM     14  C   UNL     1       3.362   3.516   0.272  0.00  0.00    +0.017 C 
ATOM     15  C   UNL     1       3.960   2.960  -1.016  0.00  0.00    +0.017 C 
ENDBRANCH   7   4
BRANCH   9   2
ATOM      2  O   UNL     1       2.047  -0.919  -1.717  0.00  0.00    -0.388 OA
ATOM     24  H   UNL     1       2.327  -1.599  -2.353  0.00  0.00    +0.210 HD
ENDBRANCH   9   2
BRANCH   8  13
ATOM     13  C   UNL     1      -0.084   0.239   0.435  0.00  0.00    +0.114 C 
BRANCH  13   5
ATOM      5  N   UNL     1      -1.312  -0.171   1.101  0.00  0.00    -0.311 NA
ATOM     23  H   UNL     1      -1.256   0.091   2.085  0.00  0.00    +0.122 HD
BRANCH   5  16
ATOM      6  N   UNL     1      -5.242   0.283  -0.453  0.00  0.00    -0.305 NA
ATOM     16  C   UNL     1      -2.477   0.463   0.488  0.00  0.00    +0.056 C 
ATOM     18  C   UNL     1      -3.667   0.428   1.451  0.00  0.00    +0.034 C 
ATOM     19  C   UNL     1      -2.849  -0.227  -0.828  0.00  0.00    +0.034 C 
ATOM     20  C   UNL     1      -4.924   1.000   0.790  0.00  0.00    +0.085 C 
ATOM     21  C   UNL     1      -4.133   0.366  -1.414  0.00  0.00    +0.085 C 
ATOM     22  C   UNL     1      -6.472   0.807  -1.046  0.00  0.00    +0.104 C 
ENDBRANCH   5  16
ENDBRANCH  13   5
ENDBRANCH   8  13
BRANCH  10  17
ATOM     17  C   UNL     1       1.738  -3.511  -0.633  0.00  0.00    +0.190 C 
BRANCH  17   3
ATOM      3  O   UNL     1       1.216  -4.537   0.196  0.00  0.00    -0.392 OA
ATOM     25  H   UNL     1       0.962  -5.273  -0.386  0.00  0.00    +0.210 HD
ENDBRANCH  17   3
ENDBRANCH  10  17
TORSDOF 7
