REMARK  Name = 71693216
REMARK  12 active torsions:
REMARK  status: ('A' for Active; 'I' for Inactive)
REMARK    1  A    between atoms: O_3  and  C_30
REMARK    2  A    between atoms: N_5  and  C_15
REMARK    3  A    between atoms: C_8  and  C_12
REMARK    4  A    between atoms: C_9  and  C_15
REMARK    5  A    between atoms: C_11  and  C_16
REMARK    6  A    between atoms: C_12  and  C_17
REMARK    7  A    between atoms: C_12  and  C_18
REMARK    8  A    between atoms: C_13  and  C_19
REMARK    9  A    between atoms: C_16  and  C_20
REMARK   10  A    between atoms: C_21  and  C_24
REMARK   11  A    between atoms: C_24  and  C_27
REMARK   12  A    between atoms: C_27  and  C_30
REMARK                            x       y       z     vdW  Elec       q    Type
REMARK                         _______ _______ _______ _____ _____    ______ ____
ROOT
ATOM      8  C   UNL     1       0.910   1.938  -0.859  0.00  0.00    +0.000 C 
ATOM      9  C   UNL     1       2.029   2.794  -0.214  0.00  0.00    +0.032 C 
ATOM     10  C   UNL     1      -0.449   2.263  -0.219  0.00  0.00    +0.012 C 
ATOM     11  C   UNL     1      -0.454   2.008   1.300  0.00  0.00    +0.022 C 
ATOM     13  C   UNL     1       0.769   2.597   1.974  0.00  0.00    -0.073 C 
ATOM     14  C   UNL     1       1.864   2.955   1.279  0.00  0.00    -0.022 C 
ATOM     19  C   UNL     1       0.687   2.809   3.460  0.00  0.00    +0.039 C 
ENDROOT
BRANCH   8  12
ATOM     12  C   UNL     1       0.834   2.150  -2.374  0.00  0.00    -0.013 C 
ATOM     17  C   UNL     1       0.203   0.937  -3.050  0.00  0.00    +0.007 C 
ATOM     18  C   UNL     1       0.049   3.417  -2.695  0.00  0.00    +0.007 C 
ENDBRANCH   8  12
BRANCH   9  15
ATOM     15  C   UNL     1       3.414   2.210  -0.514  0.00  0.00    +0.112 C 
BRANCH  15   5
ATOM      2  O   UNL     1       3.945  -0.321  -1.812  0.00  0.00    -0.276 OA
ATOM      5  N   UNL     1       3.573   0.934   0.111  0.00  0.00    -0.315 N 
ATOM     21  C   UNL     1       3.829  -0.245  -0.592  0.00  0.00    +0.214 C 
ATOM     31  H   UNL     1       3.553   0.894   1.126  0.00  0.00    +0.149 HD
BRANCH  21  24
ATOM     24  C   UNL     1       3.949  -1.444   0.330  0.00  0.00    +0.107 C 
BRANCH  24  27
ATOM     27  C   UNL     1       4.228  -2.738  -0.429  0.00  0.00    +0.129 C 
BRANCH  27  30
ATOM      4  O   UNL     1       4.241  -3.885   1.717  0.00  0.00    -0.251 OA
ATOM     30  C   UNL     1       4.338  -3.925   0.499  0.00  0.00    +0.305 C 
BRANCH  30   3
ATOM      3  O   UNL     1       4.562  -5.075  -0.191  0.00  0.00    -0.481 OA
ATOM     33  H   UNL     1       4.634  -5.850   0.406  0.00  0.00    +0.295 HD
ENDBRANCH  30   3
ENDBRANCH  27  30
ENDBRANCH  24  27
ENDBRANCH  21  24
ENDBRANCH  15   5
ENDBRANCH   9  15
BRANCH  11  16
ATOM     16  C   UNL     1      -0.584   0.513   1.609  0.00  0.00    +0.082 C 
BRANCH  16  20
ATOM      1 CL   UNL     1      -7.681  -1.592  -0.194  0.00  0.00    -0.083 Cl
ATOM      6  N   UNL     1      -3.055   0.140   1.503  0.00  0.00    -0.342 N 
ATOM      7  N   UNL     1      -1.859  -0.824  -0.103  0.00  0.00    -0.232 NA
ATOM     20  C   UNL     1      -1.812  -0.074   0.975  0.00  0.00    +0.109 A 
ATOM     22  C   UNL     1      -3.964  -0.515   0.713  0.00  0.00    +0.068 A 
ATOM     23  C   UNL     1      -3.193  -1.109  -0.282  0.00  0.00    +0.089 A 
ATOM     25  C   UNL     1      -5.353  -0.636   0.781  0.00  0.00    +0.047 A 
ATOM     26  C   UNL     1      -3.828  -1.873  -1.276  0.00  0.00    +0.031 A 
ATOM     28  C   UNL     1      -5.968  -1.400  -0.216  0.00  0.00    +0.043 A 
ATOM     29  C   UNL     1      -5.221  -2.008  -1.228  0.00  0.00    +0.022 A 
ATOM     32  H   UNL     1      -3.268   0.685   2.328  0.00  0.00    +0.167 HD
ENDBRANCH  16  20
ENDBRANCH  11  16
TORSDOF 9
