REMARK  Name = 7142872
REMARK  4 active torsions:
REMARK  status: ('A' for Active; 'I' for Inactive)
REMARK    1  A    between atoms: S_1  and  N_7
REMARK    2  A    between atoms: S_1  and  C_23
REMARK    3  A    between atoms: N_9  and  C_21
REMARK    4  A    between atoms: C_27  and  C_28
REMARK                            x       y       z     vdW  Elec       q    Type
REMARK                         _______ _______ _______ _____ _____    ______ ____
ROOT
ATOM      5  O   UNL     1      -0.991   1.742  -1.733  0.00  0.00    -0.266 OA
ATOM      7  N   UNL     1       3.612   0.424  -0.352  0.00  0.00    -0.175 NA
ATOM      8  N   UNL     1       0.743   1.740  -0.166  0.00  0.00    -0.310 N 
ATOM     12  C   UNL     1       3.015   2.835  -0.610  0.00  0.00    +0.025 C 
ATOM     13  C   UNL     1       2.606   1.701   1.530  0.00  0.00    +0.052 C 
ATOM     14  C   UNL     1       3.065   3.014   0.901  0.00  0.00    +0.017 C 
ATOM     15  C   UNL     1       3.951   1.697  -1.051  0.00  0.00    +0.114 C 
ATOM     16  C   UNL     1       3.576   0.573   1.134  0.00  0.00    +0.119 C 
ATOM     17  C   UNL     1       1.561   2.596  -1.036  0.00  0.00    +0.130 C 
ATOM     18  C   UNL     1       1.191   1.357   1.102  0.00  0.00    +0.026 A 
ATOM     19  C   UNL     1       0.382   0.670   1.926  0.00  0.00    +0.024 A 
ATOM     20  C   UNL     1      -0.547   1.413  -0.632  0.00  0.00    +0.273 A 
ATOM     21  C   UNL     1      -1.409   0.627   0.307  0.00  0.00    +0.099 A 
ATOM     22  C   UNL     1      -0.943   0.298   1.516  0.00  0.00    +0.030 A 
ENDROOT
BRANCH  21   9
ATOM      6  O   UNL     1      -3.674   0.349   1.959  0.00  0.00    -0.268 OA
ATOM      9  N   UNL     1      -2.660   0.281  -0.111  0.00  0.00    -0.276 N 
ATOM     27  C   UNL     1      -3.756   0.154   0.745  0.00  0.00    +0.268 C 
ATOM     32  H   UNL     1      -2.840   0.324  -1.111  0.00  0.00    +0.155 HD
BRANCH  27  28
ATOM     10  N   UNL     1      -4.983  -0.353  -1.232  0.00  0.00    -0.247 NA
ATOM     11  N   UNL     1      -7.341  -0.670   0.253  0.00  0.00    -0.259 NA
ATOM     28  C   UNL     1      -5.028  -0.198   0.097  0.00  0.00    +0.144 A 
ATOM     29  C   UNL     1      -6.169  -0.348   0.835  0.00  0.00    +0.143 A 
ATOM     30  C   UNL     1      -6.155  -0.675  -1.815  0.00  0.00    +0.131 A 
ATOM     31  C   UNL     1      -7.313  -0.831  -1.085  0.00  0.00    +0.130 A 
ENDBRANCH  27  28
ENDBRANCH  21   9
BRANCH   7   1
ATOM      1  S   UNL     1       4.406  -0.974  -0.936  0.00  0.00    +0.067 S 
ATOM      3  O   UNL     1       5.730  -1.044  -0.355  0.00  0.00    -0.152 OA
ATOM      4  O   UNL     1       4.215  -1.061  -2.368  0.00  0.00    -0.152 OA
BRANCH   1  23
ATOM      2  S   UNL     1       1.840  -2.369  -0.818  0.00  0.00    -0.077 S 
ATOM     23  C   UNL     1       3.420  -2.229  -0.180  0.00  0.00    +0.143 A 
ATOM     24  C   UNL     1       3.660  -3.127   0.829  0.00  0.00    +0.036 A 
ATOM     25  C   UNL     1       2.526  -3.950   1.086  0.00  0.00    +0.010 A 
ATOM     26  C   UNL     1       1.467  -3.644   0.262  0.00  0.00    +0.047 A 
ENDBRANCH   1  23
ENDBRANCH   7   1
TORSDOF 4
