REMARK  Name = 11885216
REMARK  4 active torsions:
REMARK  status: ('A' for Active; 'I' for Inactive)
REMARK    1  A    between atoms: S_1  and  C_30
REMARK    2  A    between atoms: S_1  and  C_31
REMARK    3  A    between atoms: N_6  and  C_15
REMARK    4  A    between atoms: C_22  and  C_25
REMARK                            x       y       z     vdW  Elec       q    Type
REMARK                         _______ _______ _______ _____ _____    ______ ____
ROOT
ATOM      2  O   UNL     1      -2.846  -0.034   2.232  0.00  0.00    -0.253 OA
ATOM      3  O   UNL     1       1.608  -0.201  -1.832  0.00  0.00    -0.267 OA
ATOM      4  N   UNL     1      -2.798  -1.383   0.342  0.00  0.00    -0.285 N 
ATOM      5  N   UNL     1       0.211  -1.724  -0.752  0.00  0.00    -0.311 N 
ATOM      6  N   UNL     1      -3.378   0.906   0.208  0.00  0.00    -0.296 N 
ATOM      7  C   UNL     1      -2.005  -2.515  -1.756  0.00  0.00    +0.027 C 
ATOM      8  C   UNL     1      -1.287  -3.368   0.430  0.00  0.00    +0.054 C 
ATOM      9  C   UNL     1      -1.760  -3.788  -0.958  0.00  0.00    +0.018 C 
ATOM     10  C   UNL     1      -3.074  -1.633  -1.081  0.00  0.00    +0.114 C 
ATOM     11  C   UNL     1      -2.398  -2.561   1.122  0.00  0.00    +0.119 C 
ATOM     12  C   UNL     1      -0.673  -1.774  -1.923  0.00  0.00    +0.130 C 
ATOM     13  C   UNL     1      -0.017  -2.541   0.358  0.00  0.00    +0.027 A 
ATOM     14  C   UNL     1      -2.995  -0.161   1.012  0.00  0.00    +0.302 C 
ATOM     16  C   UNL     1       0.869  -2.571   1.365  0.00  0.00    +0.022 A 
ATOM     17  C   UNL     1       1.353  -0.905  -0.854  0.00  0.00    +0.259 A 
ATOM     22  C   UNL     1       2.309  -0.932   0.308  0.00  0.00    +0.047 A 
ATOM     24  C   UNL     1       2.046  -1.749   1.339  0.00  0.00    +0.015 A 
ATOM     32  H   UNL     1      -3.642   0.761  -0.755  0.00  0.00    +0.151 HD
ENDROOT
BRANCH   6  15
ATOM     15  C   UNL     1      -3.624   2.225   0.747  0.00  0.00    +0.074 C 
ATOM     18  C   UNL     1      -3.251   3.313  -0.265  0.00  0.00    +0.022 C 
ATOM     19  C   UNL     1      -5.080   2.370   1.206  0.00  0.00    +0.022 C 
ATOM     20  C   UNL     1      -4.232   3.385  -1.435  0.00  0.00    +0.002 C 
ATOM     21  C   UNL     1      -6.058   2.443   0.033  0.00  0.00    +0.002 C 
ATOM     23  C   UNL     1      -5.671   3.540  -0.954  0.00  0.00    +0.000 C 
ENDBRANCH   6  15
BRANCH  22  25
ATOM     25  C   UNL     1       3.510  -0.078   0.328  0.00  0.00    -0.013 A 
ATOM     26  C   UNL     1       4.713  -0.552  -0.196  0.00  0.00    +0.010 A 
ATOM     27  C   UNL     1       3.446   1.205   0.873  0.00  0.00    +0.010 A 
ATOM     28  C   UNL     1       5.850   0.256  -0.177  0.00  0.00    +0.015 A 
ATOM     29  C   UNL     1       4.582   2.013   0.892  0.00  0.00    +0.015 A 
ATOM     30  C   UNL     1       5.785   1.538   0.367  0.00  0.00    +0.008 A 
BRANCH  30   1
ATOM      1  S   UNL     1       7.237   2.570   0.394  0.00  0.00    -0.129 S 
ATOM     31  C   UNL     1       7.628   2.704  -1.374  0.00  0.00    +0.090 C 
ENDBRANCH  30   1
ENDBRANCH  22  25
TORSDOF 3
