REMARK  Name = 26745236
REMARK  5 active torsions:
REMARK  status: ('A' for Active; 'I' for Inactive)
REMARK    1  A    between atoms: N_4  and  C_9
REMARK    2  A    between atoms: N_7  and  C_23
REMARK    3  A    between atoms: C_15  and  C_21
REMARK    4  A    between atoms: C_23  and  C_24
REMARK    5  A    between atoms: C_29  and  C_30
REMARK                            x       y       z     vdW  Elec       q    Type
REMARK                         _______ _______ _______ _____ _____    ______ ____
ROOT
ATOM      1  O   UNL     1      -0.682  -1.406  -2.486  0.00  0.00    -0.253 OA
ATOM      3  N   UNL     1      -1.819  -0.706  -0.574  0.00  0.00    -0.268 N 
ATOM      4  N   UNL     1      -0.166  -2.401  -0.480  0.00  0.00    -0.296 N 
ATOM      5  N   UNL     1      -3.893  -0.161   2.513  0.00  0.00    -0.347 N 
ATOM      6  N   UNL     1      -5.287   0.918   1.142  0.00  0.00    -0.240 NA
ATOM     15  C   UNL     1      -2.459   0.417  -1.313  0.00  0.00    +0.170 C 
ATOM     16  C   UNL     1      -3.950   0.643  -0.989  0.00  0.00    +0.089 C 
ATOM     17  C   UNL     1      -2.044  -0.830   0.897  0.00  0.00    +0.165 C 
ATOM     18  C   UNL     1      -0.876  -1.501  -1.270  0.00  0.00    +0.303 C 
ATOM     19  C   UNL     1      -3.325  -0.206   1.274  0.00  0.00    +0.056 A 
ATOM     20  C   UNL     1      -4.197   0.464   0.455  0.00  0.00    +0.066 A 
ATOM     22  C   UNL     1      -5.073   0.526   2.382  0.00  0.00    +0.197 A 
ATOM     31  H   UNL     1      -0.233  -2.348   0.528  0.00  0.00    +0.151 HD
ATOM     32  H   UNL     1      -3.520  -0.556   3.366  0.00  0.00    +0.167 HD
ENDROOT
BRANCH   4   9
ATOM      9  C   UNL     1       0.841  -3.280  -1.032  0.00  0.00    +0.074 C 
ATOM     10  C   UNL     1       2.214  -2.599  -1.055  0.00  0.00    +0.022 C 
ATOM     11  C   UNL     1       0.892  -4.607  -0.268  0.00  0.00    +0.022 C 
ATOM     12  C   UNL     1       2.817  -2.451   0.341  0.00  0.00    +0.002 C 
ATOM     13  C   UNL     1       1.497  -4.456   1.128  0.00  0.00    +0.002 C 
ATOM     14  C   UNL     1       2.867  -3.786   1.078  0.00  0.00    +0.000 C 
ENDBRANCH   4   9
BRANCH  15  21
ATOM      2  O   UNL     1      -1.909   2.395  -0.089  0.00  0.00    -0.274 OA
ATOM      7  N   UNL     1      -0.567   1.773  -1.886  0.00  0.00    -0.310 N 
ATOM     21  C   UNL     1      -1.629   1.631  -1.009  0.00  0.00    +0.234 C 
ATOM     33  H   UNL     1      -0.415   1.070  -2.604  0.00  0.00    +0.149 HD
BRANCH   7  23
ATOM     23  C   UNL     1       0.370   2.872  -1.823  0.00  0.00    +0.139 C 
BRANCH  23  24
ATOM     24  C   UNL     1       1.543   2.560  -0.939  0.00  0.00    -0.030 A 
ATOM     25  C   UNL     1       1.810   3.359   0.173  0.00  0.00    +0.006 A 
ATOM     26  C   UNL     1       2.365   1.472  -1.230  0.00  0.00    +0.006 A 
ATOM     27  C   UNL     1       2.899   3.069   0.994  0.00  0.00    +0.019 A 
ATOM     28  C   UNL     1       3.455   1.182  -0.409  0.00  0.00    +0.019 A 
ATOM     29  C   UNL     1       3.722   1.981   0.703  0.00  0.00    +0.052 A 
BRANCH  29  30
ATOM      8  N   UNL     1       5.745   1.443   2.228  0.00  0.00    -0.191 NA
ATOM     30  C   UNL     1       4.838   1.684   1.545  0.00  0.00    +0.099 C 
ENDBRANCH  29  30
ENDBRANCH  23  24
ENDBRANCH   7  23
ENDBRANCH  15  21
TORSDOF 5
