REMARK  Name = 45784269
REMARK  4 active torsions:
REMARK  status: ('A' for Active; 'I' for Inactive)
REMARK    1  A    between atoms: N_4  and  C_13
REMARK    2  A    between atoms: C_8  and  C_12
REMARK    3  A    between atoms: C_13  and  C_15
REMARK    4  A    between atoms: C_20  and  C_24
REMARK                            x       y       z     vdW  Elec       q    Type
REMARK                         _______ _______ _______ _____ _____    ______ ____
ROOT
ATOM      5  N   UNL     1       1.672  -1.188   0.425  0.00  0.00    -0.342 N 
ATOM      6  N   UNL     1       1.050   0.915   0.062  0.00  0.00    -0.232 NA
ATOM     12  C   UNL     1       0.635  -0.302   0.335  0.00  0.00    +0.113 A 
ATOM     14  C   UNL     1       2.834  -0.497   0.194  0.00  0.00    +0.067 A 
ATOM     16  C   UNL     1       2.419   0.813  -0.030  0.00  0.00    +0.089 A 
ATOM     17  C   UNL     1       4.171  -0.893   0.163  0.00  0.00    +0.040 A 
ATOM     18  C   UNL     1       3.381   1.800  -0.302  0.00  0.00    +0.030 A 
ATOM     20  C   UNL     1       5.116   0.102  -0.110  0.00  0.00    +0.057 A 
ATOM     22  C   UNL     1       4.730   1.425  -0.339  0.00  0.00    +0.014 A 
ATOM     26  H   UNL     1       1.600  -2.177   0.625  0.00  0.00    +0.167 HD
ENDROOT
BRANCH  12   8
ATOM      4  N   UNL     1      -3.003  -0.281  -0.104  0.00  0.00    -0.297 NA
ATOM      8  C   UNL     1      -0.796  -0.745   0.538  0.00  0.00    +0.070 C 
ATOM      9  C   UNL     1      -1.532  -0.044   1.694  0.00  0.00    +0.028 C 
ATOM     10  C   UNL     1      -1.679  -0.498  -0.692  0.00  0.00    +0.096 C 
ATOM     11  C   UNL     1      -2.765   0.580   1.054  0.00  0.00    +0.085 C 
BRANCH   4  13
ATOM     13  C   UNL     1      -3.941   0.307  -1.049  0.00  0.00    +0.121 C 
BRANCH  13  15
ATOM      7  N   UNL     1      -7.367   1.081   0.362  0.00  0.00    -0.263 NA
ATOM     15  C   UNL     1      -5.369   0.127  -0.608  0.00  0.00    -0.015 A 
ATOM     19  C   UNL     1      -6.011  -1.099  -0.743  0.00  0.00    +0.008 A 
ATOM     21  C   UNL     1      -6.084   1.176  -0.054  0.00  0.00    +0.115 A 
ATOM     23  C   UNL     1      -7.330  -1.236  -0.326  0.00  0.00    +0.020 A 
ATOM     25  C   UNL     1      -7.958  -0.126   0.216  0.00  0.00    +0.111 A 
ENDBRANCH  13  15
ENDBRANCH   4  13
ENDBRANCH  12   8
BRANCH  20  24
ATOM      1  F   UNL     1       7.362   0.813  -0.434  0.00  0.00    -0.166 F 
ATOM      2  F   UNL     1       7.036  -0.776   1.014  0.00  0.00    -0.166 F 
ATOM      3  F   UNL     1       6.862  -1.194  -1.107  0.00  0.00    -0.166 F 
ATOM     24  C   UNL     1       6.565  -0.259  -0.158  0.00  0.00    +0.417 C 
ENDBRANCH  20  24
TORSDOF 4
