REMARK  Name = 75367811
REMARK  6 active torsions:
REMARK  status: ('A' for Active; 'I' for Inactive)
REMARK    1  A    between atoms: O_3  and  C_11
REMARK    2  A    between atoms: O_3  and  C_16
REMARK    3  A    between atoms: O_4  and  C_17
REMARK    4  A    between atoms: O_4  and  C_18
REMARK    5  A    between atoms: N_5  and  C_6
REMARK    6  A    between atoms: C_16  and  C_17
REMARK                            x       y       z     vdW  Elec       q    Type
REMARK                         _______ _______ _______ _____ _____    ______ ____
ROOT
ATOM      2  O   UNL     1       0.425   3.369  -0.290  0.00  0.00    -0.376 OA
ATOM      5  N   UNL     1      -1.138   0.682  -0.043  0.00  0.00    -0.295 NA
ATOM      9  C   UNL     1       0.223   0.174   0.167  0.00  0.00    +0.118 C 
ATOM     10  C   UNL     1      -1.408   1.969   0.599  0.00  0.00    +0.113 C 
ATOM     11  C   UNL     1       1.373   1.194   0.188  0.00  0.00    +0.158 C 
ATOM     14  C   UNL     1      -0.972   3.111  -0.320  0.00  0.00    +0.175 C 
ATOM     15  C   UNL     1       1.230   2.323  -0.823  0.00  0.00    +0.192 C 
ENDROOT
BRANCH   5   6
ATOM      1  O   UNL     1      -4.166  -2.207  -0.404  0.00  0.00    -0.380 OA
ATOM      6  C   UNL     1      -2.119  -0.330   0.352  0.00  0.00    +0.061 C 
ATOM      7  C   UNL     1      -1.795  -1.688  -0.279  0.00  0.00    +0.047 C 
ATOM      8  C   UNL     1      -3.530   0.111  -0.047  0.00  0.00    +0.047 C 
ATOM     12  C   UNL     1      -2.897  -2.693   0.034  0.00  0.00    +0.161 C 
ATOM     13  C   UNL     1      -4.535  -0.995   0.253  0.00  0.00    +0.161 C 
ENDBRANCH   5   6
BRANCH  11   3
ATOM      3  O   UNL     1       2.587   0.499  -0.097  0.00  0.00    -0.371 OA
BRANCH   3  16
ATOM     16  C   UNL     1       3.080  -0.169   1.054  0.00  0.00    +0.188 C 
BRANCH  16  17
ATOM     17  C   UNL     1       4.354  -0.907   0.690  0.00  0.00    +0.187 C 
BRANCH  17   4
ATOM      4  O   UNL     1       4.062  -1.868  -0.318  0.00  0.00    -0.381 OA
ATOM     18  C   UNL     1       5.227  -2.577  -0.715  0.00  0.00    +0.194 C 
ENDBRANCH  17   4
ENDBRANCH  16  17
ENDBRANCH   3  16
ENDBRANCH  11   3
TORSDOF 5
