REMARK  Name = 51136629
REMARK  11 active torsions:
REMARK  status: ('A' for Active; 'I' for Inactive)
REMARK    1  A    between atoms: O_4  and  C_22
REMARK    2  A    between atoms: O_7  and  C_28
REMARK    3  A    between atoms: O_7  and  C_36
REMARK    4  A    between atoms: O_8  and  C_29
REMARK    5  A    between atoms: O_8  and  C_37
REMARK    6  A    between atoms: N_11  and  C_30
REMARK    7  A    between atoms: C_12  and  C_17
REMARK    8  A    between atoms: C_13  and  C_18
REMARK    9  A    between atoms: C_17  and  C_19
REMARK   10  A    between atoms: C_18  and  C_22
REMARK   11  A    between atoms: C_33  and  C_38
REMARK                            x       y       z     vdW  Elec       q    Type
REMARK                         _______ _______ _______ _____ _____    ______ ____
ROOT
ATOM      5  O   UNL     1      -0.506   3.461   0.854  0.00  0.00    -0.252 OA
ATOM      9  N   UNL     1      -2.126   1.868   1.284  0.00  0.00    -0.285 N 
ATOM     11  N   UNL     1       0.131   1.454   1.829  0.00  0.00    -0.269 N 
ATOM     12  C   UNL     1      -3.272  -0.253   0.705  0.00  0.00    +0.016 C 
ATOM     13  C   UNL     1      -4.407   0.581   0.053  0.00  0.00    +0.006 C 
ATOM     14  C   UNL     1      -3.910   1.964  -0.405  0.00  0.00    +0.023 C 
ATOM     15  C   UNL     1      -2.595   0.577   1.809  0.00  0.00    +0.113 C 
ATOM     16  C   UNL     1      -3.190   2.702   0.723  0.00  0.00    +0.109 C 
ATOM     20  C   UNL     1      -0.799   2.349   1.301  0.00  0.00    +0.306 C 
ATOM     39  H   UNL     1      -0.178   0.792   2.530  0.00  0.00    +0.156 HD
ENDROOT
BRANCH  11  30
ATOM     30  C   UNL     1       1.501   1.337   1.486  0.00  0.00    +0.035 A 
ATOM     31  C   UNL     1       2.054   2.177   0.519  0.00  0.00    +0.035 A 
ATOM     32  C   UNL     1       2.298   0.381   2.117  0.00  0.00    +0.023 A 
ATOM     33  C   UNL     1       3.402   2.061   0.182  0.00  0.00    +0.057 A 
ATOM     34  C   UNL     1       3.646   0.265   1.780  0.00  0.00    +0.002 A 
ATOM     35  C   UNL     1       4.199   1.105   0.813  0.00  0.00    +0.012 A 
BRANCH  33  38
ATOM      1  F   UNL     1       5.319   2.715  -1.063  0.00  0.00    -0.166 F 
ATOM      2  F   UNL     1       3.400   2.845  -2.078  0.00  0.00    -0.166 F 
ATOM      3  F   UNL     1       3.909   4.285  -0.537  0.00  0.00    -0.166 F 
ATOM     38  C   UNL     1       3.993   2.958  -0.852  0.00  0.00    +0.417 C 
ENDBRANCH  33  38
ENDBRANCH  11  30
BRANCH  12  17
ATOM     17  C   UNL     1      -2.229  -0.775  -0.290  0.00  0.00    +0.061 C 
BRANCH  17  19
ATOM     10  N   UNL     1      -2.118  -2.682   1.166  0.00  0.00    -0.287 NA
ATOM     19  C   UNL     1      -1.489  -1.946   0.309  0.00  0.00    +0.044 C 
ATOM     21  C   UNL     1      -0.084  -2.192  -0.104  0.00  0.00    +0.003 A 
ATOM     23  C   UNL     1       0.683  -3.017   0.728  0.00  0.00    -0.033 A 
ATOM     24  C   UNL     1       0.053  -3.575   1.969  0.00  0.00    +0.059 C 
ATOM     25  C   UNL     1      -1.421  -3.855   1.702  0.00  0.00    +0.146 C 
ATOM     26  C   UNL     1       0.474  -1.630  -1.254  0.00  0.00    +0.059 A 
ATOM     27  C   UNL     1       2.025  -3.255   0.416  0.00  0.00    +0.053 A 
ATOM     28  C   UNL     1       1.810  -1.887  -1.566  0.00  0.00    +0.162 A 
ATOM     29  C   UNL     1       2.584  -2.694  -0.732  0.00  0.00    +0.162 A 
BRANCH  28   7
ATOM      7  O   UNL     1       2.350  -1.338  -2.690  0.00  0.00    -0.491 OA
ATOM     36  C   UNL     1       1.494  -0.525  -3.490  0.00  0.00    +0.277 C 
ENDBRANCH  28   7
BRANCH  29   8
ATOM      8  O   UNL     1       3.891  -2.941  -1.028  0.00  0.00    -0.491 OA
ATOM     37  C   UNL     1       4.613  -3.776  -0.124  0.00  0.00    +0.277 C 
ENDBRANCH  29   8
ENDBRANCH  17  19
ENDBRANCH  12  17
BRANCH  13  18
ATOM     18  C   UNL     1      -5.103  -0.149  -1.096  0.00  0.00    +0.124 C 
BRANCH  18  22
ATOM      6  O   UNL     1      -7.028   1.300  -0.732  0.00  0.00    -0.251 OA
ATOM     22  C   UNL     1      -6.484   0.392  -1.341  0.00  0.00    +0.305 C 
BRANCH  22   4
ATOM      4  O   UNL     1      -7.066  -0.287  -2.363  0.00  0.00    -0.481 OA
ATOM     40  H   UNL     1      -7.972   0.041  -2.551  0.00  0.00    +0.295 HD
ENDBRANCH  22   4
ENDBRANCH  18  22
ENDBRANCH  13  18
TORSDOF 9
