REMARK  Name = 7142808
REMARK  6 active torsions:
REMARK  status: ('A' for Active; 'I' for Inactive)
REMARK    1  A    between atoms: N_4  and  C_14
REMARK    2  A    between atoms: N_6  and  C_18
REMARK    3  A    between atoms: C_14  and  C_17
REMARK    4  A    between atoms: C_17  and  C_20
REMARK    5  A    between atoms: C_20  and  C_21
REMARK    6  A    between atoms: C_22  and  C_25
REMARK                            x       y       z     vdW  Elec       q    Type
REMARK                         _______ _______ _______ _____ _____    ______ ____
ROOT
ATOM      2  O   UNL     1      -0.846   2.223  -1.729  0.00  0.00    -0.266 OA
ATOM      4  N   UNL     1       3.936   1.219  -0.610  0.00  0.00    -0.301 NA
ATOM      5  N   UNL     1       0.966   2.334  -0.259  0.00  0.00    -0.310 N 
ATOM      7  C   UNL     1       3.133   3.585  -0.811  0.00  0.00    +0.024 C 
ATOM      8  C   UNL     1       2.917   2.419   1.331  0.00  0.00    +0.050 C 
ATOM      9  C   UNL     1       3.236   3.770   0.697  0.00  0.00    +0.017 C 
ATOM     10  C   UNL     1       4.134   2.509  -1.282  0.00  0.00    +0.089 C 
ATOM     11  C   UNL     1       3.945   1.368   0.853  0.00  0.00    +0.094 C 
ATOM     12  C   UNL     1       1.681   3.238  -1.170  0.00  0.00    +0.130 C 
ATOM     13  C   UNL     1       1.507   1.980   0.982  0.00  0.00    +0.026 A 
ATOM     15  C   UNL     1       0.791   1.241   1.845  0.00  0.00    +0.024 A 
ATOM     16  C   UNL     1      -0.323   1.924  -0.654  0.00  0.00    +0.273 A 
ATOM     18  C   UNL     1      -1.080   1.083   0.327  0.00  0.00    +0.099 A 
ATOM     19  C   UNL     1      -0.528   0.784   1.508  0.00  0.00    +0.030 A 
ENDROOT
BRANCH  18   6
ATOM      3  O   UNL     1      -3.228   0.657   2.099  0.00  0.00    -0.270 OA
ATOM      6  N   UNL     1      -2.326   0.656  -0.024  0.00  0.00    -0.277 N 
ATOM     22  C   UNL     1      -3.363   0.458   0.890  0.00  0.00    +0.248 C 
ATOM     34  H   UNL     1      -2.555   0.729  -1.012  0.00  0.00    +0.155 HD
BRANCH  22  25
ATOM      1  F   UNL     1      -8.225  -1.187  -1.308  0.00  0.00    -0.205 F 
ATOM     25  C   UNL     1      -4.644   0.025   0.311  0.00  0.00    +0.037 A 
ATOM     29  C   UNL     1      -5.826   0.331   0.968  0.00  0.00    +0.016 A 
ATOM     30  C   UNL     1      -4.647  -0.682  -0.882  0.00  0.00    +0.016 A 
ATOM     31  C   UNL     1      -7.041  -0.080   0.419  0.00  0.00    +0.039 A 
ATOM     32  C   UNL     1      -5.862  -1.093  -1.431  0.00  0.00    +0.039 A 
ATOM     33  C   UNL     1      -7.059  -0.792  -0.781  0.00  0.00    +0.123 A 
ENDBRANCH  22  25
ENDBRANCH  18   6
BRANCH   4  14
ATOM     14  C   UNL     1       4.933   0.243  -1.042  0.00  0.00    +0.085 C 
BRANCH  14  17
ATOM     17  C   UNL     1       4.626  -1.130  -0.448  0.00  0.00    +0.020 C 
BRANCH  17  20
ATOM     20  C   UNL     1       3.239  -1.617  -0.874  0.00  0.00    +0.036 C 
BRANCH  20  21
ATOM     21  C   UNL     1       2.936  -2.988  -0.325  0.00  0.00    -0.047 A 
ATOM     23  C   UNL     1       3.280  -4.110  -1.065  0.00  0.00    +0.003 A 
ATOM     24  C   UNL     1       2.319  -3.106   0.912  0.00  0.00    +0.003 A 
ATOM     26  C   UNL     1       3.000  -5.378  -0.556  0.00  0.00    +0.000 A 
ATOM     27  C   UNL     1       2.039  -4.374   1.420  0.00  0.00    +0.000 A 
ATOM     28  C   UNL     1       2.380  -5.511   0.686  0.00  0.00    +0.000 A 
ENDBRANCH  20  21
ENDBRANCH  17  20
ENDBRANCH  14  17
ENDBRANCH   4  14
TORSDOF 6
