REMARK  Name = 51137316
REMARK  5 active torsions:
REMARK  status: ('A' for Active; 'I' for Inactive)
REMARK    1  A    between atoms: N_2  and  C_10
REMARK    2  A    between atoms: C_6  and  C_11
REMARK    3  A    between atoms: C_10  and  C_12
REMARK    4  A    between atoms: C_10  and  C_13
REMARK    5  A    between atoms: C_14  and  C_15
REMARK                            x       y       z     vdW  Elec       q    Type
REMARK                         _______ _______ _______ _____ _____    ______ ____
ROOT
ATOM      1  O   UNL     1       0.466  -0.428   0.151  0.00  0.00    -0.420 OA
ATOM      3  N   UNL     1       0.401  -2.614  -0.322  0.00  0.00    -0.112 NA
ATOM      4  N   UNL     1       1.716  -2.196  -0.410  0.00  0.00    -0.107 NA
ATOM     11  C   UNL     1      -0.292  -1.550   0.008  0.00  0.00    +0.222 A 
ATOM     14  C   UNL     1       1.706  -0.915  -0.126  0.00  0.00    +0.248 A 
ENDROOT
BRANCH  14  15
ATOM      5  N   UNL     1       4.873   1.882   0.055  0.00  0.00    -0.263 NA
ATOM     15  C   UNL     1       2.780   0.034  -0.064  0.00  0.00    +0.041 A 
ATOM     16  C   UNL     1       4.084  -0.370  -0.331  0.00  0.00    +0.033 A 
ATOM     17  C   UNL     1       2.522   1.360   0.262  0.00  0.00    +0.033 A 
ATOM     18  C   UNL     1       5.086   0.585  -0.259  0.00  0.00    +0.111 A 
ATOM     19  C   UNL     1       3.594   2.237   0.308  0.00  0.00    +0.111 A 
ENDBRANCH  14  15
BRANCH  11   6
ATOM      2  N   UNL     1      -3.553   0.120   0.084  0.00  0.00    -0.299 NA
ATOM      6  C   UNL     1      -1.778  -1.404   0.243  0.00  0.00    +0.092 C 
ATOM      7  C   UNL     1      -2.440  -0.401  -0.712  0.00  0.00    +0.097 C 
ATOM      8  C   UNL     1      -2.166  -0.917   1.650  0.00  0.00    +0.029 C 
ATOM      9  C   UNL     1      -2.993   0.340   1.417  0.00  0.00    +0.085 C 
BRANCH   2  10
ATOM     10  C   UNL     1      -4.123   1.332  -0.485  0.00  0.00    +0.050 C 
ATOM     12  C   UNL     1      -4.650   1.036  -1.886  0.00  0.00    +0.024 C 
ATOM     13  C   UNL     1      -5.232   1.869   0.415  0.00  0.00    +0.024 C 
ENDBRANCH   2  10
ENDBRANCH  11   6
TORSDOF 3
