REMARK  Name = 7144217
REMARK  6 active torsions:
REMARK  status: ('A' for Active; 'I' for Inactive)
REMARK    1  A    between atoms: S_1  and  C_25
REMARK    2  A    between atoms: S_1  and  C_29
REMARK    3  A    between atoms: O_4  and  C_20
REMARK    4  A    between atoms: O_4  and  C_26
REMARK    5  A    between atoms: C_14  and  C_19
REMARK    6  A    between atoms: C_16  and  C_20
REMARK                            x       y       z     vdW  Elec       q    Type
REMARK                         _______ _______ _______ _____ _____    ______ ____
ROOT
ATOM      2  O   UNL     1      -1.697  -4.059   2.258  0.00  0.00    -0.268 OA
ATOM      3  O   UNL     1       2.357  -2.835  -0.874  0.00  0.00    -0.272 OA
ATOM      5  N   UNL     1       0.438  -1.758  -1.619  0.00  0.00    -0.298 N 
ATOM      6  N   UNL     1      -1.804  -2.497   0.516  0.00  0.00    -0.311 N 
ATOM      7  C   UNL     1      -1.564  -3.206  -1.936  0.00  0.00    +0.027 C 
ATOM      8  C   UNL     1      -1.860  -0.833  -1.367  0.00  0.00    +0.054 C 
ATOM      9  C   UNL     1      -2.407  -1.973  -2.224  0.00  0.00    +0.018 C 
ATOM     10  C   UNL     1      -0.088  -2.951  -2.283  0.00  0.00    +0.113 C 
ATOM     11  C   UNL     1      -1.748  -3.588  -0.467  0.00  0.00    +0.130 C 
ATOM     12  C   UNL     1      -0.394  -0.555  -1.759  0.00  0.00    +0.117 C 
ATOM     13  C   UNL     1      -1.957  -1.152   0.127  0.00  0.00    +0.034 A 
ATOM     14  C   UNL     1      -2.156  -0.194   1.070  0.00  0.00    +0.002 A 
ATOM     15  C   UNL     1      -1.813  -2.898   1.864  0.00  0.00    +0.252 A 
ATOM     16  C   UNL     1       1.676  -1.811  -0.980  0.00  0.00    +0.253 C 
ATOM     17  C   UNL     1      -2.169  -0.570   2.471  0.00  0.00    +0.015 A 
ATOM     18  C   UNL     1      -1.996  -1.829   2.871  0.00  0.00    +0.071 A 
ENDROOT
BRANCH  14  19
ATOM     19  C   UNL     1      -2.341   1.229   0.708  0.00  0.00    -0.016 A 
ATOM     21  C   UNL     1      -1.233   2.063   0.596  0.00  0.00    +0.009 A 
ATOM     22  C   UNL     1      -3.623   1.724   0.484  0.00  0.00    +0.009 A 
ATOM     23  C   UNL     1      -1.408   3.405   0.257  0.00  0.00    +0.015 A 
ATOM     24  C   UNL     1      -3.797   3.065   0.145  0.00  0.00    +0.015 A 
ATOM     25  C   UNL     1      -2.690   3.906   0.031  0.00  0.00    +0.008 A 
BRANCH  25   1
ATOM      1  S   UNL     1      -2.913   5.620  -0.403  0.00  0.00    -0.129 S 
ATOM     29  C   UNL     1      -1.960   5.738  -1.943  0.00  0.00    +0.090 C 
ENDBRANCH  25   1
ENDBRANCH  14  19
BRANCH  16  20
ATOM     20  C   UNL     1       2.184  -0.524  -0.382  0.00  0.00    +0.324 C 
BRANCH  20   4
ATOM      4  O   UNL     1       3.414  -0.823   0.232  0.00  0.00    -0.483 OA
BRANCH   4  26
ATOM     26  C   UNL     1       4.335   0.196   0.334  0.00  0.00    +0.121 A 
ATOM     27  C   UNL     1       3.893   1.505   0.446  0.00  0.00    +0.045 A 
ATOM     28  C   UNL     1       5.688  -0.106   0.321  0.00  0.00    +0.045 A 
ATOM     30  C   UNL     1       4.825   2.537   0.548  0.00  0.00    +0.004 A 
ATOM     31  C   UNL     1       6.621   0.926   0.422  0.00  0.00    +0.004 A 
ATOM     32  C   UNL     1       6.190   2.248   0.536  0.00  0.00    +0.000 A 
ENDBRANCH   4  26
ENDBRANCH  20   4
ENDBRANCH  16  20
TORSDOF 5
