REMARK  Name = 75536987
REMARK  3 active torsions:
REMARK  status: ('A' for Active; 'I' for Inactive)
REMARK    1  A    between atoms: N_5  and  C_13
REMARK    2  A    between atoms: C_13  and  C_15
REMARK    3  A    between atoms: C_14  and  C_16
REMARK                            x       y       z     vdW  Elec       q    Type
REMARK                         _______ _______ _______ _____ _____    ______ ____
ROOT
ATOM      2  O   UNL     1      -2.154  -2.998  -0.347  0.00  0.00    -0.252 OA
ATOM      3  O   UNL     1       4.403  -1.536   1.571  0.00  0.00    -0.270 OA
ATOM      4  N   UNL     1      -0.081  -1.896  -0.251  0.00  0.00    -0.278 N 
ATOM      5  N   UNL     1      -1.784  -0.874  -1.302  0.00  0.00    -0.279 N 
ATOM      6  N   UNL     1       2.255  -0.916   0.891  0.00  0.00    -0.294 N 
ATOM      7  C   UNL     1       0.505  -0.691  -0.813  0.00  0.00    +0.112 C 
ATOM      8  C   UNL     1      -0.698   0.090  -1.333  0.00  0.00    +0.133 C 
ATOM      9  C   UNL     1       1.331   0.035   0.243  0.00  0.00    +0.132 C 
ATOM     10  C   UNL     1       0.753  -2.830   0.486  0.00  0.00    +0.128 C 
ATOM     11  C   UNL     1       1.602  -2.078   1.509  0.00  0.00    +0.127 C 
ATOM     12  C   UNL     1      -1.429  -2.045  -0.604  0.00  0.00    +0.306 C 
ATOM     14  C   UNL     1       3.639  -0.765   0.993  0.00  0.00    +0.247 C 
ENDROOT
BRANCH  14  16
ATOM     16  C   UNL     1       4.256   0.403   0.351  0.00  0.00    +0.037 A 
ATOM     19  C   UNL     1       4.405   1.593   1.063  0.00  0.00    +0.013 A 
ATOM     20  C   UNL     1       4.695   0.322  -0.970  0.00  0.00    +0.013 A 
ATOM     24  C   UNL     1       4.993   2.702   0.454  0.00  0.00    +0.001 A 
ATOM     25  C   UNL     1       5.282   1.430  -1.580  0.00  0.00    +0.001 A 
ATOM     26  C   UNL     1       5.431   2.620  -0.868  0.00  0.00    +0.000 A 
ENDBRANCH  14  16
BRANCH   5  13
ATOM     13  C   UNL     1      -3.098  -0.564  -1.821  0.00  0.00    +0.144 C 
BRANCH  13  15
ATOM      1  F   UNL     1      -6.187   2.359   1.868  0.00  0.00    -0.205 F 
ATOM     15  C   UNL     1      -3.921   0.215  -0.837  0.00  0.00    -0.030 A 
ATOM     17  C   UNL     1      -4.730  -0.455   0.081  0.00  0.00    +0.008 A 
ATOM     18  C   UNL     1      -3.879   1.609  -0.842  0.00  0.00    +0.008 A 
ATOM     21  C   UNL     1      -5.495   0.270   0.995  0.00  0.00    +0.038 A 
ATOM     22  C   UNL     1      -4.644   2.334   0.072  0.00  0.00    +0.038 A 
ATOM     23  C   UNL     1      -5.452   1.664   0.990  0.00  0.00    +0.123 A 
ENDBRANCH  13  15
ENDBRANCH   5  13
TORSDOF 3
