REMARK  Name = 38028604
REMARK  13 active torsions:
REMARK  status: ('A' for Active; 'I' for Inactive)
REMARK    1  A    between atoms: S_1  and  N_5
REMARK    2  A    between atoms: S_1  and  C_20
REMARK    3  A    between atoms: N_5  and  C_14
REMARK    4  A    between atoms: N_6  and  C_22
REMARK    5  A    between atoms: C_7  and  C_11
REMARK    6  A    between atoms: C_8  and  C_14
REMARK    7  A    between atoms: C_10  and  C_15
REMARK    8  A    between atoms: C_11  and  C_16
REMARK    9  A    between atoms: C_11  and  C_17
REMARK   10  A    between atoms: C_12  and  C_18
REMARK   11  A    between atoms: C_15  and  C_19
REMARK   12  A    between atoms: C_20  and  C_21
REMARK   13  A    between atoms: C_22  and  C_25
REMARK                            x       y       z     vdW  Elec       q    Type
REMARK                         _______ _______ _______ _____ _____    ______ ____
ROOT
ATOM      7  C   UNL     1      -1.261  -1.242   1.114  0.00  0.00    +0.000 C 
ATOM      8  C   UNL     1      -0.419  -2.357   0.445  0.00  0.00    +0.030 C 
ATOM      9  C   UNL     1      -2.759  -1.486   0.878  0.00  0.00    +0.012 C 
ATOM     10  C   UNL     1      -3.113  -1.533  -0.620  0.00  0.00    +0.023 C 
ATOM     12  C   UNL     1      -2.154  -2.410  -1.398  0.00  0.00    -0.073 C 
ATOM     13  C   UNL     1      -0.960  -2.779  -0.901  0.00  0.00    -0.023 C 
ATOM     18  C   UNL     1      -2.618  -2.892  -2.745  0.00  0.00    +0.039 C 
ENDROOT
BRANCH   7  11
ATOM     11  C   UNL     1      -0.982  -1.142   2.617  0.00  0.00    -0.013 C 
ATOM     16  C   UNL     1      -1.312   0.257   3.128  0.00  0.00    +0.007 C 
ATOM     17  C   UNL     1      -1.778  -2.198   3.377  0.00  0.00    +0.007 C 
ENDBRANCH   7  11
BRANCH   8  14
ATOM     14  C   UNL     1       1.046  -1.930   0.295  0.00  0.00    +0.113 C 
BRANCH  14   5
ATOM      5  N   UNL     1       1.165  -0.836  -0.617  0.00  0.00    -0.194 NA
ATOM     30  H   UNL     1       0.932  -1.062  -1.593  0.00  0.00    +0.148 HD
BRANCH   5   1
ATOM      1  S   UNL     1       2.425   0.333  -0.425  0.00  0.00    +0.033 S 
ATOM      3  O   UNL     1       2.316   0.930   0.892  0.00  0.00    -0.158 OA
ATOM      4  O   UNL     1       2.509   1.163  -1.611  0.00  0.00    -0.158 OA
BRANCH   1  20
ATOM     20  C   UNL     1       3.844  -0.738  -0.424  0.00  0.00    +0.220 C 
BRANCH  20  21
ATOM     21  C   UNL     1       5.062   0.118  -0.264  0.00  0.00    -0.025 A 
ATOM     23  C   UNL     1       5.356   0.688   0.976  0.00  0.00    +0.005 A 
ATOM     24  C   UNL     1       5.903   0.347  -1.353  0.00  0.00    +0.005 A 
ATOM     26  C   UNL     1       6.490   1.486   1.126  0.00  0.00    +0.000 A 
ATOM     27  C   UNL     1       7.037   1.145  -1.203  0.00  0.00    +0.000 A 
ATOM     28  C   UNL     1       7.331   1.714   0.036  0.00  0.00    +0.000 A 
ENDBRANCH  20  21
ENDBRANCH   1  20
ENDBRANCH   5   1
ENDBRANCH  14   5
ENDBRANCH   8  14
BRANCH  10  15
ATOM     15  C   UNL     1      -3.175  -0.122  -1.217  0.00  0.00    +0.103 C 
BRANCH  15  19
ATOM      2  O   UNL     1      -5.283   0.143  -0.058  0.00  0.00    -0.276 OA
ATOM      6  N   UNL     1      -4.446   1.900  -1.329  0.00  0.00    -0.304 N 
ATOM     19  C   UNL     1      -4.419   0.622  -0.788  0.00  0.00    +0.214 C 
ATOM     31  H   UNL     1      -3.671   2.209  -1.910  0.00  0.00    +0.150 HD
BRANCH   6  22
ATOM     22  C   UNL     1      -5.519   2.836  -1.089  0.00  0.00    +0.193 C 
BRANCH  22  25
ATOM     25  C   UNL     1      -5.251   3.654   0.093  0.00  0.00    -0.087 C 
ATOM     29  C   UNL     1      -5.034   4.328   1.063  0.00  0.00    +0.005 C 
ENDBRANCH  22  25
ENDBRANCH   6  22
ENDBRANCH  15  19
ENDBRANCH  10  15
TORSDOF 10
