REMARK  Name = 75536927
REMARK  4 active torsions:
REMARK  status: ('A' for Active; 'I' for Inactive)
REMARK    1  A    between atoms: O_3  and  C_8
REMARK    2  A    between atoms: O_3  and  C_16
REMARK    3  A    between atoms: N_4  and  C_11
REMARK    4  A    between atoms: C_11  and  C_13
REMARK                            x       y       z     vdW  Elec       q    Type
REMARK                         _______ _______ _______ _____ _____    ______ ____
ROOT
ATOM      2  O   UNL     1       3.812  -0.126  -1.203  0.00  0.00    -0.375 OA
ATOM      4  N   UNL     1       1.749  -1.439   0.317  0.00  0.00    -0.292 NA
ATOM      7  C   UNL     1       1.609  -0.082   0.843  0.00  0.00    +0.131 C 
ATOM      8  C   UNL     1       1.805   0.960  -0.267  0.00  0.00    +0.215 C 
ATOM      9  C   UNL     1       3.128  -1.939   0.284  0.00  0.00    +0.113 C 
ATOM     10  C   UNL     1       3.232   1.105  -0.788  0.00  0.00    +0.205 C 
ATOM     12  C   UNL     1       4.210  -0.933  -0.102  0.00  0.00    +0.175 C 
ENDROOT
BRANCH   8   3
ATOM      3  O   UNL     1       1.377   2.225   0.238  0.00  0.00    -0.468 OA
BRANCH   3  16
ATOM      5  N   UNL     1      -0.743   1.599  -0.482  0.00  0.00    -0.219 NA
ATOM      6  N   UNL     1      -1.752   4.042   0.456  0.00  0.00    -0.256 NA
ATOM     16  C   UNL     1       0.047   2.518   0.107  0.00  0.00    +0.234 A 
ATOM     20  C   UNL     1      -0.448   3.718   0.568  0.00  0.00    +0.177 A 
ATOM     21  C   UNL     1      -2.047   1.923  -0.594  0.00  0.00    +0.134 A 
ATOM     22  C   UNL     1      -2.542   3.123  -0.133  0.00  0.00    +0.130 A 
ENDBRANCH   3  16
ENDBRANCH   8   3
BRANCH   4  11
ATOM     11  C   UNL     1       0.891  -2.383   1.034  0.00  0.00    +0.119 C 
BRANCH  11  13
ATOM      1 CL   UNL     1      -2.870  -2.260  -2.572  0.00  0.00    -0.084 Cl
ATOM     13  C   UNL     1      -0.562  -2.188   0.695  0.00  0.00    -0.032 A 
ATOM     14  C   UNL     1      -0.993  -2.301  -0.627  0.00  0.00    +0.025 A 
ATOM     15  C   UNL     1      -1.480  -1.895   1.704  0.00  0.00    +0.005 A 
ATOM     17  C   UNL     1      -2.340  -2.122  -0.940  0.00  0.00    +0.041 A 
ATOM     18  C   UNL     1      -2.827  -1.715   1.391  0.00  0.00    +0.002 A 
ATOM     19  C   UNL     1      -3.257  -1.828   0.069  0.00  0.00    +0.020 A 
ENDBRANCH  11  13
ENDBRANCH   4  11
TORSDOF 4
