REMARK  Name = 38029897
REMARK  11 active torsions:
REMARK  status: ('A' for Active; 'I' for Inactive)
REMARK    1  A    between atoms: N_5  and  C_21
REMARK    2  A    between atoms: C_7  and  C_11
REMARK    3  A    between atoms: C_9  and  C_15
REMARK    4  A    between atoms: C_10  and  C_14
REMARK    5  A    between atoms: C_11  and  C_16
REMARK    6  A    between atoms: C_11  and  C_17
REMARK    7  A    between atoms: C_12  and  C_18
REMARK    8  A    between atoms: C_14  and  C_19
REMARK    9  A    between atoms: C_15  and  C_20
REMARK   10  A    between atoms: C_21  and  C_22
REMARK   11  A    between atoms: C_27  and  C_28
REMARK                            x       y       z     vdW  Elec       q    Type
REMARK                         _______ _______ _______ _____ _____    ______ ____
ROOT
ATOM      4  O   UNL     1       0.668   2.795  -1.335  0.00  0.00    -0.276 OA
ATOM      5  N   UNL     1       0.151   2.598   0.922  0.00  0.00    -0.311 N 
ATOM     19  C   UNL     1       0.980   2.496  -0.185  0.00  0.00    +0.214 C 
ATOM     29  H   UNL     1       0.499   2.323   1.836  0.00  0.00    +0.149 HD
ENDROOT
BRANCH  19  14
ATOM     14  C   UNL     1       2.341   1.963   0.203  0.00  0.00    +0.103 C 
BRANCH  14  10
ATOM      7  C   UNL     1       2.040  -1.172  -0.453  0.00  0.00    -0.000 C 
ATOM      8  C   UNL     1       2.049   0.030  -1.410  0.00  0.00    +0.012 C 
ATOM      9  C   UNL     1       3.467  -1.755  -0.304  0.00  0.00    +0.029 C 
ATOM     10  C   UNL     1       2.986   1.152  -0.926  0.00  0.00    +0.023 C 
ATOM     12  C   UNL     1       4.338   0.614  -0.503  0.00  0.00    -0.073 C 
ATOM     13  C   UNL     1       4.537  -0.690  -0.242  0.00  0.00    -0.023 C 
ATOM     18  C   UNL     1       5.468   1.603  -0.431  0.00  0.00    +0.039 C 
BRANCH   7  11
ATOM     11  C   UNL     1       1.045  -2.225  -0.952  0.00  0.00    -0.013 C 
ATOM     16  C   UNL     1      -0.375  -1.855  -0.534  0.00  0.00    +0.007 C 
ATOM     17  C   UNL     1       1.142  -2.373  -2.467  0.00  0.00    +0.007 C 
ENDBRANCH   7  11
BRANCH   9  15
ATOM     15  C   UNL     1       3.571  -2.655   0.933  0.00  0.00    +0.126 C 
BRANCH  15  20
ATOM      6  N   UNL     1       3.053  -1.308   3.123  0.00  0.00    -0.197 NA
ATOM     20  C   UNL     1       3.281  -1.898   2.150  0.00  0.00    +0.063 C 
ENDBRANCH  15  20
ENDBRANCH   9  15
ENDBRANCH  14  10
ENDBRANCH  19  14
BRANCH   5  21
ATOM     21  C   UNL     1      -1.209   3.081   0.848  0.00  0.00    +0.139 C 
BRANCH  21  22
ATOM     22  C   UNL     1      -2.188   1.969   0.602  0.00  0.00    -0.030 A 
ATOM     23  C   UNL     1      -2.998   1.991  -0.533  0.00  0.00    +0.006 A 
ATOM     24  C   UNL     1      -2.286   0.913   1.509  0.00  0.00    +0.006 A 
ATOM     25  C   UNL     1      -3.907   0.958  -0.761  0.00  0.00    +0.013 A 
ATOM     26  C   UNL     1      -3.194  -0.120   1.280  0.00  0.00    +0.013 A 
ATOM     27  C   UNL     1      -4.005  -0.098   0.145  0.00  0.00    +0.055 A 
BRANCH  27  28
ATOM      1  F   UNL     1      -4.387  -2.432  -0.213  0.00  0.00    -0.166 F 
ATOM      2  F   UNL     1      -5.686  -1.032  -1.253  0.00  0.00    -0.166 F 
ATOM      3  F   UNL     1      -5.907  -1.345   0.888  0.00  0.00    -0.166 F 
ATOM     28  C   UNL     1      -4.974  -1.204  -0.101  0.00  0.00    +0.417 C 
ENDBRANCH  27  28
ENDBRANCH  21  22
ENDBRANCH   5  21
TORSDOF 8
