REMARK  Name = 56775536
REMARK  8 active torsions:
REMARK  status: ('A' for Active; 'I' for Inactive)
REMARK    1  A    between atoms: O_4  and  C_18
REMARK    2  A    between atoms: O_4  and  C_22
REMARK    3  A    between atoms: N_5  and  C_7
REMARK    4  A    between atoms: N_5  and  C_11
REMARK    5  A    between atoms: C_7  and  C_10
REMARK    6  A    between atoms: C_10  and  C_12
REMARK    7  A    between atoms: C_11  and  C_13
REMARK    8  A    between atoms: C_15  and  C_18
REMARK                            x       y       z     vdW  Elec       q    Type
REMARK                         _______ _______ _______ _____ _____    ______ ____
ROOT
ATOM      2  O   UNL     1       0.354  -3.469   1.264  0.00  0.00    -0.376 OA
ATOM      7  C   UNL     1       0.081  -1.831  -0.077  0.00  0.00    +0.072 C 
ATOM      8  C   UNL     1       0.960  -3.073   0.013  0.00  0.00    +0.184 C 
ATOM      9  C   UNL     1      -0.574  -2.362   1.193  0.00  0.00    +0.184 C 
ENDROOT
BRANCH   7   5
ATOM      5  N   UNL     1       0.888  -0.656   0.265  0.00  0.00    -0.302 NA
ATOM     23  H   UNL     1       0.361   0.202   0.420  0.00  0.00    +0.123 HD
BRANCH   5  11
ATOM     11  C   UNL     1       1.895  -0.447  -0.774  0.00  0.00    +0.118 C 
BRANCH  11  13
ATOM      1 CL   UNL     1       1.601   2.597  -0.377  0.00  0.00    -0.083 Cl
ATOM     13  C   UNL     1       3.081   0.311  -0.269  0.00  0.00    -0.015 A 
ATOM     16  C   UNL     1       3.034   1.689  -0.061  0.00  0.00    +0.045 A 
ATOM     17  C   UNL     1       4.254  -0.395  -0.004  0.00  0.00    +0.006 A 
ATOM     19  C   UNL     1       4.162   2.361   0.412  0.00  0.00    +0.020 A 
ATOM     20  C   UNL     1       5.381   0.277   0.469  0.00  0.00    +0.000 A 
ATOM     21  C   UNL     1       5.335   1.655   0.677  0.00  0.00    +0.001 A 
ENDBRANCH  11  13
ENDBRANCH   5  11
ENDBRANCH   7   5
BRANCH   7  10
ATOM     10  C   UNL     1      -0.763  -1.624  -1.297  0.00  0.00    +0.085 C 
BRANCH  10  12
ATOM      3  O   UNL     1      -2.862   1.288  -0.891  0.00  0.00    -0.357 OA
ATOM      6  N   UNL     1      -1.665   0.673  -1.235  0.00  0.00    -0.083 NA
ATOM     12  C   UNL     1      -1.872  -0.630  -1.022  0.00  0.00    +0.086 A 
ATOM     14  C   UNL     1      -3.168  -0.894  -0.548  0.00  0.00    +0.073 A 
ATOM     15  C   UNL     1      -3.750   0.345  -0.483  0.00  0.00    +0.163 A 
BRANCH  15  18
ATOM     18  C   UNL     1      -5.077   0.825  -0.080  0.00  0.00    +0.236 C 
BRANCH  18   4
ATOM      4  O   UNL     1      -5.011   1.444   1.208  0.00  0.00    -0.375 OA
ATOM     22  C   UNL     1      -6.284   1.915   1.617  0.00  0.00    +0.194 C 
ENDBRANCH  18   4
ENDBRANCH  15  18
ENDBRANCH  10  12
ENDBRANCH   7  10
TORSDOF 7
