REMARK  Name = 44716346
REMARK  9 active torsions:
REMARK  status: ('A' for Active; 'I' for Inactive)
REMARK    1  A    between atoms: O_1  and  C_29
REMARK    2  A    between atoms: O_1  and  C_30
REMARK    3  A    between atoms: N_3  and  C_22
REMARK    4  A    between atoms: N_4  and  C_14
REMARK    5  A    between atoms: N_4  and  C_23
REMARK    6  A    between atoms: C_7  and  C_13
REMARK    7  A    between atoms: C_8  and  C_14
REMARK    8  A    between atoms: C_16  and  C_17
REMARK    9  A    between atoms: C_23  and  C_24
REMARK                            x       y       z     vdW  Elec       q    Type
REMARK                         _______ _______ _______ _____ _____    ______ ____
ROOT
ATOM      2  N   UNL     1      -3.977  -0.374   0.812  0.00  0.00    -0.298 NA
ATOM      6  C   UNL     1      -2.945  -1.543  -1.274  0.00  0.00    +0.002 C 
ATOM      7  C   UNL     1      -2.275  -2.063   0.028  0.00  0.00    +0.055 C 
ATOM      8  C   UNL     1      -3.589   0.643  -0.201  0.00  0.00    +0.071 C 
ATOM      9  C   UNL     1      -2.790  -0.009  -1.350  0.00  0.00    +0.024 C 
ATOM     10  C   UNL     1      -2.794  -1.181   1.200  0.00  0.00    +0.094 C 
ATOM     11  C   UNL     1      -4.454  -1.841  -1.147  0.00  0.00    +0.019 C 
ATOM     12  C   UNL     1      -4.971  -1.280   0.188  0.00  0.00    +0.085 C 
ENDROOT
BRANCH   7  13
ATOM      3  N   UNL     1      -0.115  -3.156   0.792  0.00  0.00    -0.271 N 
ATOM      5  N   UNL     1       1.223  -3.123   0.669  0.00  0.00    -0.176 NA
ATOM     13  C   UNL     1      -0.760  -2.213   0.046  0.00  0.00    +0.044 A 
ATOM     15  C   UNL     1       0.224  -1.516  -0.610  0.00  0.00    +0.048 A 
ATOM     17  C   UNL     1       1.424  -2.120  -0.189  0.00  0.00    +0.066 A 
ATOM     22  C   UNL     1      -0.719  -4.137   1.663  0.00  0.00    +0.172 C 
BRANCH  17  16
ATOM     16  C   UNL     1       2.833  -1.754  -0.600  0.00  0.00    +0.040 C 
ATOM     18  C   UNL     1       3.701  -1.319   0.595  0.00  0.00    +0.010 C 
ATOM     19  C   UNL     1       3.614  -2.891  -1.291  0.00  0.00    +0.010 C 
ATOM     20  C   UNL     1       5.092  -1.843   0.273  0.00  0.00    +0.001 C 
ATOM     21  C   UNL     1       4.809  -3.180  -0.390  0.00  0.00    +0.001 C 
ENDBRANCH  17  16
ENDBRANCH   7  13
BRANCH   8  14
ATOM     14  C   UNL     1      -2.837   1.824   0.417  0.00  0.00    +0.100 C 
BRANCH  14   4
ATOM      4  N   UNL     1      -2.604   2.862  -0.573  0.00  0.00    -0.311 NA
ATOM     31  H   UNL     1      -3.504   3.192  -0.923  0.00  0.00    +0.122 HD
BRANCH   4  23
ATOM     23  C   UNL     1      -1.879   3.986   0.007  0.00  0.00    +0.116 C 
BRANCH  23  24
ATOM     24  C   UNL     1      -0.404   3.705   0.117  0.00  0.00    -0.033 A 
ATOM     25  C   UNL     1       0.224   3.751   1.361  0.00  0.00    +0.008 A 
ATOM     26  C   UNL     1       0.334   3.400  -1.026  0.00  0.00    +0.008 A 
ATOM     27  C   UNL     1       1.591   3.491   1.463  0.00  0.00    +0.046 A 
ATOM     28  C   UNL     1       1.700   3.139  -0.925  0.00  0.00    +0.046 A 
ATOM     29  C   UNL     1       2.329   3.185   0.319  0.00  0.00    +0.120 A 
BRANCH  29   1
ATOM      1  O   UNL     1       3.662   2.930   0.418  0.00  0.00    -0.495 OA
ATOM     30  C   UNL     1       4.356   2.624  -0.791  0.00  0.00    +0.277 C 
ENDBRANCH  29   1
ENDBRANCH  23  24
ENDBRANCH   4  23
ENDBRANCH  14   4
ENDBRANCH   8  14
TORSDOF 7
