REMARK  Name = 11912178
REMARK  11 active torsions:
REMARK  status: ('A' for Active; 'I' for Inactive)
REMARK    1  A    between atoms: O_3  and  C_24
REMARK    2  A    between atoms: O_3  and  C_28
REMARK    3  A    between atoms: N_5  and  C_18
REMARK    4  A    between atoms: N_5  and  C_19
REMARK    5  A    between atoms: N_6  and  C_20
REMARK    6  A    between atoms: C_8  and  C_14
REMARK    7  A    between atoms: C_9  and  C_13
REMARK    8  A    between atoms: C_13  and  C_15
REMARK    9  A    between atoms: C_14  and  C_16
REMARK   10  A    between atoms: C_18  and  C_21
REMARK   11  A    between atoms: C_21  and  C_25
REMARK                            x       y       z     vdW  Elec       q    Type
REMARK                         _______ _______ _______ _____ _____    ______ ____
ROOT
ATOM      2  O   UNL     1       2.317   2.716  -0.176  0.00  0.00    -0.252 OA
ATOM      4  N   UNL     1       0.706   1.419   0.855  0.00  0.00    -0.285 N 
ATOM      6  N   UNL     1       2.964   0.739   0.852  0.00  0.00    -0.269 N 
ATOM      8  C   UNL     1      -1.954   0.361   0.424  0.00  0.00    +0.004 C 
ATOM      9  C   UNL     1      -0.786  -0.561   0.865  0.00  0.00    +0.010 C 
ATOM     10  C   UNL     1      -1.446   1.610  -0.318  0.00  0.00    +0.023 C 
ATOM     11  C   UNL     1       0.254   0.263   1.643  0.00  0.00    +0.113 C 
ATOM     12  C   UNL     1      -0.369   2.340   0.483  0.00  0.00    +0.109 C 
ATOM     17  C   UNL     1       2.033   1.704   0.470  0.00  0.00    +0.306 C 
ATOM     29  H   UNL     1       2.784   0.199   1.690  0.00  0.00    +0.156 HD
ENDROOT
BRANCH   6  20
ATOM     20  C   UNL     1       4.168   0.396   0.188  0.00  0.00    +0.038 A 
ATOM     22  C   UNL     1       4.993  -0.601   0.711  0.00  0.00    +0.069 A 
ATOM     23  C   UNL     1       4.528   1.054  -0.987  0.00  0.00    +0.023 A 
ATOM     24  C   UNL     1       6.177  -0.939   0.057  0.00  0.00    +0.122 A 
ATOM     26  C   UNL     1       5.713   0.716  -1.641  0.00  0.00    +0.005 A 
ATOM     27  C   UNL     1       6.538  -0.280  -1.119  0.00  0.00    +0.046 A 
BRANCH  24   3
ATOM      3  O   UNL     1       6.982  -1.911   0.566  0.00  0.00    -0.495 OA
ATOM     28  C   UNL     1       8.178  -2.207  -0.154  0.00  0.00    +0.277 C 
ENDBRANCH  24   3
ENDBRANCH   6  20
BRANCH   9  13
ATOM     13  C   UNL     1      -0.117  -1.318  -0.288  0.00  0.00    +0.002 C 
ATOM     15  C   UNL     1       0.947  -2.266   0.224  0.00  0.00    +0.004 C 
ENDBRANCH   9  13
BRANCH   8  14
ATOM     14  C   UNL     1      -3.012  -0.366  -0.405  0.00  0.00    +0.100 C 
BRANCH  14  16
ATOM      1  O   UNL     1      -4.513   1.371   0.285  0.00  0.00    -0.276 OA
ATOM      5  N   UNL     1      -5.382  -0.269  -1.106  0.00  0.00    -0.304 N 
ATOM     16  C   UNL     1      -4.359   0.334  -0.367  0.00  0.00    +0.216 C 
ATOM     19  C   UNL     1      -5.178  -1.495  -1.869  0.00  0.00    +0.132 C 
BRANCH   5  18
ATOM     18  C   UNL     1      -6.733   0.284  -1.170  0.00  0.00    +0.122 C 
BRANCH  18  21
ATOM     21  C   UNL     1      -7.785  -0.684  -0.642  0.00  0.00    +0.137 C 
BRANCH  21  25
ATOM      7  N   UNL     1      -7.333  -1.352   1.862  0.00  0.00    -0.197 NA
ATOM     25  C   UNL     1      -7.531  -1.057   0.758  0.00  0.00    +0.064 C 
ENDBRANCH  21  25
ENDBRANCH  18  21
ENDBRANCH   5  18
ENDBRANCH  14  16
ENDBRANCH   8  14
TORSDOF 8
