REMARK  Name = 9424604
REMARK  4 active torsions:
REMARK  status: ('A' for Active; 'I' for Inactive)
REMARK    1  A    between atoms: N_5  and  C_14
REMARK    2  A    between atoms: N_8  and  C_21
REMARK    3  A    between atoms: C_25  and  C_26
REMARK    4  A    between atoms: C_27  and  C_28
REMARK                            x       y       z     vdW  Elec       q    Type
REMARK                         _______ _______ _______ _____ _____    ______ ____
ROOT
ATOM      1  O   UNL     1       1.399   3.045  -2.794  0.00  0.00    -0.268 OA
ATOM      5  N   UNL     1       1.573   0.539   1.550  0.00  0.00    -0.298 NA
ATOM      6  N   UNL     1       0.423   2.420  -0.759  0.00  0.00    -0.310 N 
ATOM      9  C   UNL     1       1.459   3.043   1.502  0.00  0.00    +0.024 C 
ATOM     10  C   UNL     1      -0.612   1.741   1.430  0.00  0.00    +0.052 C 
ATOM     11  C   UNL     1       0.023   3.008   1.997  0.00  0.00    +0.017 C 
ATOM     12  C   UNL     1       2.218   1.786   1.977  0.00  0.00    +0.090 C 
ATOM     13  C   UNL     1       0.158   0.504   1.948  0.00  0.00    +0.094 C 
ATOM     15  C   UNL     1       1.441   3.182  -0.023  0.00  0.00    +0.130 C 
ATOM     16  C   UNL     1      -0.627   1.757  -0.097  0.00  0.00    +0.047 A 
ATOM     21  C   UNL     1      -1.589   1.139  -0.819  0.00  0.00    +0.054 A 
ATOM     22  C   UNL     1       0.514   2.468  -2.162  0.00  0.00    +0.252 A 
ATOM     23  C   UNL     1      -1.542   1.161  -2.261  0.00  0.00    +0.030 A 
ATOM     24  C   UNL     1      -0.556   1.774  -2.919  0.00  0.00    +0.072 A 
ENDROOT
BRANCH   5  14
ATOM      2  O   UNL     1       3.414  -4.022  -1.427  0.00  0.00    -0.276 OA
ATOM      7  N   UNL     1       3.359  -2.005  -0.276  0.00  0.00    -0.302 N 
ATOM     14  C   UNL     1       2.292  -0.627   2.068  0.00  0.00    +0.060 C 
ATOM     17  C   UNL     1       3.776  -0.555   1.680  0.00  0.00    +0.038 C 
ATOM     18  C   UNL     1       1.672  -1.923   1.523  0.00  0.00    +0.038 C 
ATOM     19  C   UNL     1       4.002  -0.765   0.182  0.00  0.00    +0.109 C 
ATOM     20  C   UNL     1       1.930  -2.109   0.028  0.00  0.00    +0.109 C 
ATOM     25  C   UNL     1       3.987  -3.015  -1.004  0.00  0.00    +0.212 C 
ATOM     26  C   UNL     1       5.460  -2.839  -1.274  0.00  0.00    +0.109 C 
ENDBRANCH   5  14
BRANCH  21   8
ATOM      3  O   UNL     1      -2.830  -1.134  -1.929  0.00  0.00    -0.266 OA
ATOM      8  N   UNL     1      -2.630   0.447  -0.263  0.00  0.00    -0.277 N 
ATOM     27  C   UNL     1      -3.212  -0.674  -0.851  0.00  0.00    +0.284 C 
ATOM     32  H   UNL     1      -2.869   0.633   0.707  0.00  0.00    +0.155 HD
BRANCH  27  28
ATOM      4  O   UNL     1      -4.600  -0.717   1.086  0.00  0.00    -0.458 OA
ATOM     28  C   UNL     1      -4.300  -1.297  -0.081  0.00  0.00    +0.189 A 
ATOM     29  C   UNL     1      -5.054  -2.373  -0.365  0.00  0.00    +0.054 A 
ATOM     30  C   UNL     1      -5.931  -2.495   0.739  0.00  0.00    +0.042 A 
ATOM     31  C   UNL     1      -5.615  -1.464   1.593  0.00  0.00    +0.196 A 
ENDBRANCH  27  28
ENDBRANCH  21   8
TORSDOF 3
