REMARK  Name = 71693200
REMARK  17 active torsions:
REMARK  status: ('A' for Active; 'I' for Inactive)
REMARK    1  A    between atoms: O_2  and  C_31
REMARK    2  A    between atoms: O_3  and  C_32
REMARK    3  A    between atoms: O_3  and  C_34
REMARK    4  A    between atoms: N_5  and  C_15
REMARK    5  A    between atoms: C_8  and  C_12
REMARK    6  A    between atoms: C_9  and  C_15
REMARK    7  A    between atoms: C_11  and  C_16
REMARK    8  A    between atoms: C_12  and  C_17
REMARK    9  A    between atoms: C_12  and  C_18
REMARK   10  A    between atoms: C_13  and  C_19
REMARK   11  A    between atoms: C_16  and  C_20
REMARK   12  A    between atoms: C_21  and  C_23
REMARK   13  A    between atoms: C_22  and  C_23
REMARK   14  A    between atoms: C_22  and  C_26
REMARK   15  A    between atoms: C_22  and  C_27
REMARK   16  A    between atoms: C_22  and  C_28
REMARK   17  A    between atoms: C_26  and  C_31
REMARK                            x       y       z     vdW  Elec       q    Type
REMARK                         _______ _______ _______ _____ _____    ______ ____
ROOT
ATOM      8  C   UNL     1      -0.209   0.389   0.589  0.00  0.00    +0.000 C 
ATOM      9  C   UNL     1      -1.473  -0.506   0.550  0.00  0.00    +0.032 C 
ATOM     10  C   UNL     1       0.797  -0.058  -0.483  0.00  0.00    +0.012 C 
ATOM     11  C   UNL     1       1.231  -1.524  -0.298  0.00  0.00    +0.022 C 
ATOM     13  C   UNL     1       0.045  -2.438  -0.061  0.00  0.00    -0.073 C 
ATOM     14  C   UNL     1      -1.159  -1.963   0.305  0.00  0.00    -0.022 C 
ATOM     19  C   UNL     1       0.263  -3.906  -0.297  0.00  0.00    +0.039 C 
ENDROOT
BRANCH   8  12
ATOM     12  C   UNL     1      -0.554   1.868   0.391  0.00  0.00    -0.013 C 
ATOM     17  C   UNL     1       0.526   2.753   1.007  0.00  0.00    +0.007 C 
ATOM     18  C   UNL     1      -0.729   2.181  -1.091  0.00  0.00    +0.007 C 
ENDBRANCH   8  12
BRANCH   9  15
ATOM     15  C   UNL     1      -2.287  -0.370   1.843  0.00  0.00    +0.112 C 
BRANCH  15   5
ATOM      1  O   UNL     1      -4.357   1.475   1.071  0.00  0.00    -0.276 OA
ATOM      5  N   UNL     1      -3.664  -0.675   1.610  0.00  0.00    -0.315 N 
ATOM     21  C   UNL     1      -4.604   0.282   1.238  0.00  0.00    +0.214 C 
ATOM     35  H   UNL     1      -3.959  -1.641   1.718  0.00  0.00    +0.149 HD
BRANCH  21  23
ATOM     23  C   UNL     1      -6.003  -0.281   1.042  0.00  0.00    +0.102 C 
BRANCH  23  22
ATOM     22  C   UNL     1      -6.340  -0.693  -0.413  0.00  0.00    -0.017 C 
ATOM     27  C   UNL     1      -7.757  -1.306  -0.417  0.00  0.00    +0.012 C 
ATOM     28  C   UNL     1      -5.365  -1.783  -0.904  0.00  0.00    +0.012 C 
BRANCH  22  26
ATOM     26  C   UNL     1      -6.270   0.492  -1.405  0.00  0.00    +0.127 C 
BRANCH  26  31
ATOM      4  O   UNL     1      -6.867   2.566  -0.306  0.00  0.00    -0.251 OA
ATOM     31  C   UNL     1      -7.174   1.658  -1.068  0.00  0.00    +0.305 C 
BRANCH  31   2
ATOM      2  O   UNL     1      -8.376   1.592  -1.694  0.00  0.00    -0.481 OA
ATOM     37  H   UNL     1      -8.952   2.351  -1.461  0.00  0.00    +0.295 HD
ENDBRANCH  31   2
ENDBRANCH  26  31
ENDBRANCH  22  26
ENDBRANCH  23  22
ENDBRANCH  21  23
ENDBRANCH  15   5
ENDBRANCH   9  15
BRANCH  11  16
ATOM     16  C   UNL     1       2.261  -1.658   0.829  0.00  0.00    +0.082 C 
BRANCH  16  20
ATOM      6  N   UNL     1       4.119   0.017   0.776  0.00  0.00    -0.342 N 
ATOM      7  N   UNL     1       4.461  -1.849  -0.382  0.00  0.00    -0.232 NA
ATOM     20  C   UNL     1       3.620  -1.196   0.388  0.00  0.00    +0.109 A 
ATOM     24  C   UNL     1       5.365   0.154   0.220  0.00  0.00    +0.070 A 
ATOM     25  C   UNL     1       5.555  -1.023  -0.498  0.00  0.00    +0.089 A 
ATOM     29  C   UNL     1       6.313   1.176   0.282  0.00  0.00    +0.073 A 
ATOM     30  C   UNL     1       6.756  -1.208  -1.203  0.00  0.00    +0.033 A 
ATOM     32  C   UNL     1       7.503   0.975  -0.425  0.00  0.00    +0.122 A 
ATOM     33  C   UNL     1       7.723  -0.196  -1.155  0.00  0.00    +0.048 A 
ATOM     36  H   UNL     1       3.654   0.694   1.366  0.00  0.00    +0.167 HD
BRANCH  32   3
ATOM      3  O   UNL     1       8.465   1.941  -0.401  0.00  0.00    -0.495 OA
ATOM     34  C   UNL     1       8.185   3.113   0.361  0.00  0.00    +0.277 C 
ENDBRANCH  32   3
ENDBRANCH  16  20
ENDBRANCH  11  16
TORSDOF 11
