REMARK  Name = 11882016
REMARK  10 active torsions:
REMARK  status: ('A' for Active; 'I' for Inactive)
REMARK    1  A    between atoms: S_1  and  C_21
REMARK    2  A    between atoms: S_1  and  C_27
REMARK    3  A    between atoms: N_10  and  C_14
REMARK    4  A    between atoms: N_11  and  C_20
REMARK    5  A    between atoms: N_12  and  C_26
REMARK    6  A    between atoms: C_15  and  C_18
REMARK    7  A    between atoms: C_19  and  C_21
REMARK    8  A    between atoms: C_20  and  C_23
REMARK    9  A    between atoms: C_20  and  C_24
REMARK   10  A    between atoms: C_23  and  C_25
REMARK                            x       y       z     vdW  Elec       q    Type
REMARK                         _______ _______ _______ _____ _____    ______ ____
ROOT
ATOM      6  O   UNL     1      -3.999   2.597   0.327  0.00  0.00    -0.275 OA
ATOM      9  N   UNL     1      -1.906   2.640  -0.659  0.00  0.00    -0.287 N 
ATOM     14  C   UNL     1       0.203   2.255  -1.682  0.00  0.00    +0.094 C 
ATOM     15  C   UNL     1      -1.979   1.312  -1.250  0.00  0.00    +0.164 C 
ATOM     16  C   UNL     1      -0.812   1.249  -2.233  0.00  0.00    +0.055 C 
ATOM     17  C   UNL     1      -0.671   3.327  -1.040  0.00  0.00    +0.131 C 
ATOM     19  C   UNL     1      -2.973   3.207   0.022  0.00  0.00    +0.226 C 
ENDROOT
BRANCH  14  10
ATOM      7  O   UNL     1       2.751   1.065  -2.232  0.00  0.00    -0.252 OA
ATOM     10  N   UNL     1       1.095   1.648  -0.727  0.00  0.00    -0.295 N 
ATOM     12  N   UNL     1       2.973   0.575   0.053  0.00  0.00    -0.267 N 
ATOM     22  C   UNL     1       2.329   1.086  -1.078  0.00  0.00    +0.304 C 
ATOM     36  H   UNL     1       0.788   1.568   0.238  0.00  0.00    +0.151 HD
ATOM     38  H   UNL     1       2.486   0.672   0.940  0.00  0.00    +0.156 HD
BRANCH  12  26
ATOM      3  F   UNL     1       4.011  -0.351   2.468  0.00  0.00    -0.203 F 
ATOM      4  F   UNL     1       7.902  -1.950   0.302  0.00  0.00    -0.205 F 
ATOM     26  C   UNL     1       4.230  -0.069   0.119  0.00  0.00    +0.070 A 
ATOM     30  C   UNL     1       4.722  -0.521   1.344  0.00  0.00    +0.147 A 
ATOM     31  C   UNL     1       4.979  -0.251  -1.043  0.00  0.00    +0.029 A 
ATOM     33  C   UNL     1       5.962  -1.156   1.406  0.00  0.00    +0.078 A 
ATOM     34  C   UNL     1       6.220  -0.886  -0.981  0.00  0.00    +0.040 A 
ATOM     35  C   UNL     1       6.711  -1.338   0.243  0.00  0.00    +0.126 A 
ENDBRANCH  12  26
ENDBRANCH  14  10
BRANCH  15  18
ATOM      5  O   UNL     1      -1.692   0.615   1.015  0.00  0.00    -0.274 OA
ATOM     11  N   UNL     1      -1.866  -1.003  -0.649  0.00  0.00    -0.302 N 
ATOM     18  C   UNL     1      -1.837   0.292  -0.161  0.00  0.00    +0.234 C 
ATOM     37  H   UNL     1      -1.960  -1.152  -1.650  0.00  0.00    +0.150 HD
BRANCH  11  20
ATOM     20  C   UNL     1      -1.726  -2.169   0.194  0.00  0.00    +0.163 C 
BRANCH  20  24
ATOM      8  O   UNL     1       0.583  -2.247  -0.560  0.00  0.00    -0.274 OA
ATOM     13  N   UNL     1       0.109  -2.881   1.597  0.00  0.00    -0.328 N 
ATOM     24  C   UNL     1      -0.235  -2.441   0.336  0.00  0.00    +0.231 C 
ATOM     39  H   UNL     1       1.075  -3.084   1.830  0.00  0.00    +0.145 HD
ATOM     40  H   UNL     1      -0.577  -3.034   2.329  0.00  0.00    +0.145 HD
ENDBRANCH  20  24
BRANCH  20  23
ATOM     23  C   UNL     1      -2.440  -3.396  -0.387  0.00  0.00    +0.074 C 
BRANCH  23  25
ATOM      2  S   UNL     1      -4.668  -4.668   0.699  0.00  0.00    -0.102 S 
ATOM     25  C   UNL     1      -3.929  -3.366  -0.133  0.00  0.00    -0.008 A 
ATOM     28  C   UNL     1      -4.841  -2.397  -0.489  0.00  0.00    +0.011 A 
ATOM     29  C   UNL     1      -6.163  -2.727  -0.073  0.00  0.00    +0.008 A 
ATOM     32  C   UNL     1      -6.212  -3.936   0.585  0.00  0.00    +0.045 A 
ENDBRANCH  23  25
ENDBRANCH  20  23
ENDBRANCH  11  20
ENDBRANCH  15  18
BRANCH  19  21
ATOM     21  C   UNL     1      -2.808   4.657   0.399  0.00  0.00    +0.164 C 
BRANCH  21   1
ATOM      1  S   UNL     1      -2.053   4.715   2.031  0.00  0.00    -0.155 S 
ATOM     27  C   UNL     1      -1.970   6.512   2.236  0.00  0.00    +0.085 C 
ENDBRANCH  21   1
ENDBRANCH  19  21
TORSDOF 9
