REMARK  Name = 75537116
REMARK  5 active torsions:
REMARK  status: ('A' for Active; 'I' for Inactive)
REMARK    1  A    between atoms: O_2  and  C_19
REMARK    2  A    between atoms: O_2  and  C_20
REMARK    3  A    between atoms: N_4  and  C_13
REMARK    4  A    between atoms: N_5  and  C_14
REMARK    5  A    between atoms: C_13  and  C_15
REMARK                            x       y       z     vdW  Elec       q    Type
REMARK                         _______ _______ _______ _____ _____    ______ ____
ROOT
ATOM      1  O   UNL     1       5.348   0.523  -0.253  0.00  0.00    -0.252 OA
ATOM      3  N   UNL     1       3.001   0.467  -0.338  0.00  0.00    -0.278 N 
ATOM      4  N   UNL     1       0.337   1.206   0.180  0.00  0.00    -0.295 NA
ATOM      5  N   UNL     1       4.102  -1.472  -0.071  0.00  0.00    -0.287 N 
ATOM      7  C   UNL     1       1.968  -0.547  -0.388  0.00  0.00    +0.109 C 
ATOM      8  C   UNL     1       0.797  -0.158   0.513  0.00  0.00    +0.109 C 
ATOM      9  C   UNL     1       2.696  -1.826   0.022  0.00  0.00    +0.132 C 
ATOM     10  C   UNL     1       2.636   1.858  -0.503  0.00  0.00    +0.125 C 
ATOM     11  C   UNL     1       1.423   2.188   0.370  0.00  0.00    +0.104 C 
ATOM     12  C   UNL     1       4.285  -0.084  -0.228  0.00  0.00    +0.305 C 
ATOM     14  C   UNL     1       5.152  -2.445   0.134  0.00  0.00    +0.133 C 
ENDROOT
BRANCH   4  13
ATOM     13  C   UNL     1      -0.823   1.565   0.995  0.00  0.00    +0.121 C 
BRANCH  13  15
ATOM      6  N   UNL     1      -3.757  -0.815   0.749  0.00  0.00    -0.221 NA
ATOM     15  C   UNL     1      -2.084   0.912   0.495  0.00  0.00    -0.015 A 
ATOM     16  C   UNL     1      -2.738   1.389  -0.636  0.00  0.00    +0.011 A 
ATOM     17  C   UNL     1      -2.629  -0.183   1.145  0.00  0.00    +0.119 A 
ATOM     18  C   UNL     1      -3.901   0.765  -1.075  0.00  0.00    +0.067 A 
ATOM     19  C   UNL     1      -4.365  -0.323  -0.354  0.00  0.00    +0.214 A 
BRANCH  19   2
ATOM      2  O   UNL     1      -5.509  -0.954  -0.767  0.00  0.00    -0.480 OA
ATOM     20  C   UNL     1      -5.941  -2.066   0.009  0.00  0.00    +0.279 C 
ENDBRANCH  19   2
ENDBRANCH  13  15
ENDBRANCH   4  13
TORSDOF 3
