REMARK  Name = 11911963
REMARK  2 active torsions:
REMARK  status: ('A' for Active; 'I' for Inactive)
REMARK    1  A    between atoms: C_16  and  C_19
REMARK    2  A    between atoms: C_17  and  C_20
REMARK                            x       y       z     vdW  Elec       q    Type
REMARK                         _______ _______ _______ _____ _____    ______ ____
ROOT
ATOM      3  O   UNL     1      -1.027   2.168  -1.305  0.00  0.00    -0.267 OA
ATOM      4  O   UNL     1       3.156  -0.280  -2.619  0.00  0.00    -0.270 OA
ATOM      5  N   UNL     1       3.649   0.712  -0.583  0.00  0.00    -0.297 N 
ATOM      6  N   UNL     1       0.855   2.024   0.067  0.00  0.00    -0.311 N 
ATOM      7  C   UNL     1       3.085   3.134  -0.535  0.00  0.00    +0.027 C 
ATOM      8  C   UNL     1       2.898   1.793   1.522  0.00  0.00    +0.054 C 
ATOM      9  C   UNL     1       3.319   3.154   0.972  0.00  0.00    +0.018 C 
ATOM     10  C   UNL     1       3.917   2.017  -1.191  0.00  0.00    +0.113 C 
ATOM     11  C   UNL     1       1.583   2.965  -0.797  0.00  0.00    +0.130 C 
ATOM     12  C   UNL     1       3.765   0.687   0.885  0.00  0.00    +0.117 C 
ATOM     13  C   UNL     1       1.434   1.517   1.234  0.00  0.00    +0.027 A 
ATOM     14  C   UNL     1       0.714   0.750   2.068  0.00  0.00    +0.022 A 
ATOM     15  C   UNL     1      -0.478   1.736  -0.290  0.00  0.00    +0.260 A 
ATOM     16  C   UNL     1       3.233  -0.362  -1.392  0.00  0.00    +0.247 C 
ATOM     17  C   UNL     1      -1.244   0.848   0.650  0.00  0.00    +0.053 A 
ATOM     18  C   UNL     1      -0.648   0.411   1.769  0.00  0.00    +0.016 A 
ENDROOT
BRANCH  17  20
ATOM      1  S   UNL     1      -2.913  -0.942  -0.527  0.00  0.00    -0.088 S 
ATOM     20  C   UNL     1      -2.594   0.479   0.365  0.00  0.00    +0.026 A 
ATOM     23  C   UNL     1      -3.759   1.128   0.719  0.00  0.00    +0.024 A 
ATOM     24  C   UNL     1      -4.941   0.458   0.255  0.00  0.00    -0.010 A 
ATOM     25  C   UNL     1      -4.619  -0.705  -0.451  0.00  0.00    +0.020 A 
ATOM     29  C   UNL     1      -6.308   0.793   0.406  0.00  0.00    +0.009 A 
ATOM     30  C   UNL     1      -5.618  -1.531  -1.004  0.00  0.00    +0.015 A 
ATOM     31  C   UNL     1      -7.301  -0.024  -0.141  0.00  0.00    +0.001 A 
ATOM     32  C   UNL     1      -6.957  -1.173  -0.838  0.00  0.00    +0.001 A 
ENDBRANCH  17  20
BRANCH  16  19
ATOM      2  F   UNL     1       1.796  -5.095   1.194  0.00  0.00    -0.205 F 
ATOM     19  C   UNL     1       2.859  -1.597  -0.716  0.00  0.00    +0.037 A 
ATOM     21  C   UNL     1       1.538  -1.797  -0.322  0.00  0.00    +0.016 A 
ATOM     22  C   UNL     1       3.822  -2.572  -0.469  0.00  0.00    +0.016 A 
ATOM     26  C   UNL     1       1.179  -2.980   0.324  0.00  0.00    +0.039 A 
ATOM     27  C   UNL     1       3.462  -3.755   0.177  0.00  0.00    +0.039 A 
ATOM     28  C   UNL     1       2.141  -3.959   0.573  0.00  0.00    +0.123 A 
ENDBRANCH  16  19
TORSDOF 2
