REMARK  Name = 75536940
REMARK  6 active torsions:
REMARK  status: ('A' for Active; 'I' for Inactive)
REMARK    1  A    between atoms: O_2  and  C_7
REMARK    2  A    between atoms: O_2  and  C_15
REMARK    3  A    between atoms: N_4  and  C_9
REMARK    4  A    between atoms: C_9  and  C_12
REMARK    5  A    between atoms: C_13  and  C_16
REMARK    6  A    between atoms: C_14  and  C_17
REMARK                            x       y       z     vdW  Elec       q    Type
REMARK                         _______ _______ _______ _____ _____    ______ ____
ROOT
ATOM      1  O   UNL     1       3.406  -1.484   0.265  0.00  0.00    -0.376 OA
ATOM      4  N   UNL     1       0.499  -0.726  -0.572  0.00  0.00    -0.293 NA
ATOM      6  C   UNL     1       0.996   0.613  -0.238  0.00  0.00    +0.118 C 
ATOM      7  C   UNL     1       2.466   0.746   0.190  0.00  0.00    +0.157 C 
ATOM      8  C   UNL     1       1.468  -1.574  -1.267  0.00  0.00    +0.113 C 
ATOM     10  C   UNL     1       2.970  -0.392   1.067  0.00  0.00    +0.192 C 
ATOM     11  C   UNL     1       2.356  -2.292  -0.250  0.00  0.00    +0.175 C 
ENDROOT
BRANCH   7   2
ATOM      2  O   UNL     1       2.607   1.963   0.923  0.00  0.00    -0.376 OA
ATOM     15  C   UNL     1       2.699   3.080   0.054  0.00  0.00    +0.194 C 
ENDBRANCH   7   2
BRANCH   4   9
ATOM      9  C   UNL     1      -0.756  -0.624  -1.318  0.00  0.00    +0.125 C 
BRANCH   9  12
ATOM      3  O   UNL     1      -3.479   1.036   0.549  0.00  0.00    -0.359 OA
ATOM      5  N   UNL     1      -3.569  -0.233   1.107  0.00  0.00    -0.083 NA
ATOM     12  C   UNL     1      -1.897  -0.186  -0.439  0.00  0.00    +0.031 A 
ATOM     13  C   UNL     1      -2.479   1.052  -0.370  0.00  0.00    +0.139 A 
ATOM     14  C   UNL     1      -2.615  -0.945   0.501  0.00  0.00    +0.085 A 
ATOM     16  C   UNL     1      -2.248   2.328  -1.060  0.00  0.00    +0.089 C 
ATOM     17  C   UNL     1      -2.426  -2.361   0.859  0.00  0.00    +0.069 C 
ENDBRANCH   9  12
ENDBRANCH   4   9
TORSDOF 3
