REMARK  Name = 51137246
REMARK  4 active torsions:
REMARK  status: ('A' for Active; 'I' for Inactive)
REMARK    1  A    between atoms: N_3  and  C_11
REMARK    2  A    between atoms: C_7  and  C_12
REMARK    3  A    between atoms: C_11  and  C_13
REMARK    4  A    between atoms: C_14  and  C_16
REMARK                            x       y       z     vdW  Elec       q    Type
REMARK                         _______ _______ _______ _____ _____    ______ ____
ROOT
ATOM      3  N   UNL     1      -2.496  -0.583  -0.184  0.00  0.00    -0.296 NA
ATOM      7  C   UNL     1      -0.617  -1.916   0.253  0.00  0.00    +0.092 C 
ATOM      8  C   UNL     1      -1.119  -1.287   1.565  0.00  0.00    +0.029 C 
ATOM      9  C   UNL     1      -1.303  -1.104  -0.854  0.00  0.00    +0.097 C 
ATOM     10  C   UNL     1      -2.030  -0.146   1.131  0.00  0.00    +0.085 C 
ENDROOT
BRANCH   7  12
ATOM      2  O   UNL     1       1.544  -0.771   0.132  0.00  0.00    -0.420 OA
ATOM      4  N   UNL     1       1.679  -2.997  -0.049  0.00  0.00    -0.112 NA
ATOM      5  N   UNL     1       2.960  -2.483  -0.134  0.00  0.00    -0.107 NA
ATOM     12  C   UNL     1       0.886  -1.963   0.105  0.00  0.00    +0.222 A 
ATOM     14  C   UNL     1       2.832  -1.181  -0.023  0.00  0.00    +0.248 A 
BRANCH  14  16
ATOM      1 CL   UNL     1       6.938   3.117  -0.091  0.00  0.00    -0.084 Cl
ATOM     16  C   UNL     1       3.823  -0.144  -0.039  0.00  0.00    +0.039 A 
ATOM     20  C   UNL     1       5.171  -0.469  -0.193  0.00  0.00    +0.014 A 
ATOM     21  C   UNL     1       3.439   1.190   0.098  0.00  0.00    +0.014 A 
ATOM     22  C   UNL     1       6.134   0.539  -0.209  0.00  0.00    +0.021 A 
ATOM     23  C   UNL     1       4.402   2.198   0.082  0.00  0.00    +0.021 A 
ATOM     24  C   UNL     1       5.750   1.873  -0.072  0.00  0.00    +0.041 A 
ENDBRANCH  14  16
ENDBRANCH   7  12
BRANCH   3  11
ATOM     11  C   UNL     1      -3.128   0.493  -0.934  0.00  0.00    +0.139 C 
BRANCH  11  13
ATOM      6  N   UNL     1      -4.774   1.801   0.289  0.00  0.00    -0.259 NA
ATOM     13  C   UNL     1      -4.549   0.723  -0.494  0.00  0.00    +0.055 A 
ATOM     15  C   UNL     1      -5.537  -0.159  -0.903  0.00  0.00    +0.024 A 
ATOM     17  C   UNL     1      -6.840   0.083  -0.481  0.00  0.00    +0.003 A 
ATOM     18  C   UNL     1      -6.053   2.003   0.680  0.00  0.00    +0.111 A 
ATOM     19  C   UNL     1      -7.111   1.182   0.326  0.00  0.00    +0.020 A 
ENDBRANCH  11  13
ENDBRANCH   3  11
TORSDOF 4
