REMARK  Name = 45783339
REMARK  7 active torsions:
REMARK  status: ('A' for Active; 'I' for Inactive)
REMARK    1  A    between atoms: S_1  and  C_33
REMARK    2  A    between atoms: S_1  and  C_36
REMARK    3  A    between atoms: N_6  and  C_16
REMARK    4  A    between atoms: C_12  and  C_20
REMARK    5  A    between atoms: C_16  and  C_23
REMARK    6  A    between atoms: C_17  and  C_25
REMARK    7  A    between atoms: C_26  and  C_28
REMARK                            x       y       z     vdW  Elec       q    Type
REMARK                         _______ _______ _______ _____ _____    ______ ____
ROOT
ATOM      2  O   UNL     1      -3.672   0.911  -1.984  0.00  0.00    -0.336 OA
ATOM      8  N   UNL     1      -2.000   1.185  -0.519  0.00  0.00    -0.190 NA
ATOM      9  N   UNL     1      -2.487   0.709  -2.704  0.00  0.00    -0.056 NA
ATOM     20  C   UNL     1      -3.295   1.187  -0.708  0.00  0.00    +0.245 A 
ATOM     26  C   UNL     1      -1.546   0.887  -1.772  0.00  0.00    +0.202 A 
ENDROOT
BRANCH  26  28
ATOM      7  N   UNL     1       3.065   1.051  -0.353  0.00  0.00    -0.315 N 
ATOM     10  N   UNL     1       2.586   0.555  -2.618  0.00  0.00    -0.240 NA
ATOM     17  C   UNL     1       5.041   1.492   1.728  0.00  0.00    +0.078 C 
ATOM     18  C   UNL     1       5.010   2.329   0.451  0.00  0.00    +0.031 C 
ATOM     19  C   UNL     1       3.670   0.891   2.031  0.00  0.00    +0.031 C 
ATOM     21  C   UNL     1       4.378   1.590  -0.728  0.00  0.00    +0.107 C 
ATOM     22  C   UNL     1       3.034   0.188   0.830  0.00  0.00    +0.107 C 
ATOM     24  C   UNL     1       2.134   0.851  -1.379  0.00  0.00    +0.122 A 
ATOM     27  C   UNL     1       0.793   0.971  -1.050  0.00  0.00    +0.055 A 
ATOM     28  C   UNL     1      -0.144   0.775  -2.059  0.00  0.00    +0.027 A 
ATOM     34  C   UNL     1       0.282   0.470  -3.347  0.00  0.00    +0.031 A 
ATOM     35  C   UNL     1       1.646   0.373  -3.573  0.00  0.00    +0.113 A 
BRANCH  17  25
ATOM      3  O   UNL     1       5.836  -0.764   1.764  0.00  0.00    -0.276 OA
ATOM     11  N   UNL     1       7.362   0.922   1.420  0.00  0.00    -0.329 N 
ATOM     25  C   UNL     1       6.097   0.429   1.637  0.00  0.00    +0.214 C 
ATOM     37  H   UNL     1       8.155   0.295   1.339  0.00  0.00    +0.145 HD
ATOM     38  H   UNL     1       7.569   1.915   1.380  0.00  0.00    +0.145 HD
ENDBRANCH  17  25
ENDBRANCH  26  28
BRANCH  20  12
ATOM      6  N   UNL     1      -4.029   1.104   1.668  0.00  0.00    -0.287 NA
ATOM     12  C   UNL     1      -4.409   1.447   0.284  0.00  0.00    +0.146 C 
ATOM     13  C   UNL     1      -4.815   2.932   0.346  0.00  0.00    +0.030 C 
ATOM     14  C   UNL     1      -4.688   3.317   1.813  0.00  0.00    +0.017 C 
ATOM     15  C   UNL     1      -4.797   1.993   2.541  0.00  0.00    +0.085 C 
BRANCH   6  16
ATOM     16  C   UNL     1      -4.242  -0.301   1.992  0.00  0.00    +0.120 C 
BRANCH  16  23
ATOM     23  C   UNL     1      -3.136  -1.173   1.460  0.00  0.00    -0.033 A 
ATOM     29  C   UNL     1      -3.429  -2.207   0.571  0.00  0.00    +0.007 A 
ATOM     30  C   UNL     1      -1.818  -0.946   1.856  0.00  0.00    +0.007 A 
ATOM     31  C   UNL     1      -2.405  -3.015   0.079  0.00  0.00    +0.027 A 
ATOM     32  C   UNL     1      -0.793  -1.754   1.363  0.00  0.00    +0.027 A 
ATOM     33  C   UNL     1      -1.087  -2.789   0.475  0.00  0.00    +0.088 A 
BRANCH  33   1
ATOM      1  S   UNL     1       0.196  -3.798  -0.145  0.00  0.00    -0.006 S 
ATOM      4  O   UNL     1       1.315  -3.766   0.788  0.00  0.00    -0.170 OA
ATOM      5  O   UNL     1      -0.386  -5.075  -0.531  0.00  0.00    -0.170 OA
ATOM     36  C   UNL     1       0.733  -2.972  -1.625  0.00  0.00    +0.200 C 
ENDBRANCH  33   1
ENDBRANCH  16  23
ENDBRANCH   6  16
ENDBRANCH  20  12
TORSDOF 6
