REMARK  Name = 25389311
REMARK  6 active torsions:
REMARK  status: ('A' for Active; 'I' for Inactive)
REMARK    1  A    between atoms: N_6  and  C_15
REMARK    2  A    between atoms: N_7  and  C_16
REMARK    3  A    between atoms: C_9  and  C_15
REMARK    4  A    between atoms: C_10  and  C_16
REMARK    5  A    between atoms: C_22  and  C_23
REMARK    6  A    between atoms: C_28  and  C_29
REMARK                            x       y       z     vdW  Elec       q    Type
REMARK                         _______ _______ _______ _____ _____    ______ ____
ROOT
ATOM      5  N   UNL     1       2.340  -2.313   0.589  0.00  0.00    -0.298 NA
ATOM      8  C   UNL     1       2.567  -1.276  -1.786  0.00  0.00    -0.003 C 
ATOM      9  C   UNL     1       3.695  -0.776  -0.855  0.00  0.00    +0.020 C 
ATOM     10  C   UNL     1       1.052  -1.690   0.180  0.00  0.00    +0.074 C 
ATOM     11  C   UNL     1       1.201  -0.936  -1.161  0.00  0.00    +0.024 C 
ATOM     12  C   UNL     1       3.428  -1.306   0.572  0.00  0.00    +0.089 C 
ATOM     13  C   UNL     1       2.676  -2.812  -1.836  0.00  0.00    +0.019 C 
ATOM     14  C   UNL     1       2.670  -3.368  -0.401  0.00  0.00    +0.085 C 
ENDROOT
BRANCH   9  15
ATOM     15  C   UNL     1       3.859   0.742  -0.869  0.00  0.00    +0.089 C 
BRANCH  15   6
ATOM      6  N   UNL     1       4.996   1.152  -0.046  0.00  0.00    -0.302 NA
ATOM     17  C   UNL     1       4.889   2.575   0.307  0.00  0.00    +0.084 C 
ATOM     18  C   UNL     1       6.261   0.871  -0.740  0.00  0.00    +0.084 C 
ATOM     19  C   UNL     1       6.045   3.009   1.209  0.00  0.00    +0.015 C 
ATOM     20  C   UNL     1       7.462   1.249   0.128  0.00  0.00    +0.015 C 
ATOM     21  C   UNL     1       7.394   2.708   0.565  0.00  0.00    +0.002 C 
ENDBRANCH  15   6
ENDBRANCH   9  15
BRANCH  10  16
ATOM     16  C   UNL     1       0.465  -0.793   1.273  0.00  0.00    +0.123 C 
BRANCH  16   7
ATOM      4  O   UNL     1      -2.029  -2.093   1.851  0.00  0.00    -0.270 OA
ATOM      7  N   UNL     1      -0.861  -0.329   0.902  0.00  0.00    -0.310 N 
ATOM     22  C   UNL     1      -2.004  -1.033   1.230  0.00  0.00    +0.244 C 
ATOM     30  H   UNL     1      -0.916   0.568   0.433  0.00  0.00    +0.149 HD
BRANCH  22  23
ATOM     23  C   UNL     1      -3.280  -0.440   0.756  0.00  0.00    +0.037 A 
ATOM     24  C   UNL     1      -4.466  -0.690   1.447  0.00  0.00    +0.013 A 
ATOM     25  C   UNL     1      -3.293   0.367  -0.382  0.00  0.00    +0.013 A 
ATOM     26  C   UNL     1      -5.664  -0.133   1.000  0.00  0.00    +0.013 A 
ATOM     27  C   UNL     1      -4.492   0.924  -0.829  0.00  0.00    +0.013 A 
ATOM     28  C   UNL     1      -5.677   0.674  -0.138  0.00  0.00    +0.055 A 
BRANCH  28  29
ATOM      1  F   UNL     1      -6.950   2.634  -0.645  0.00  0.00    -0.166 F 
ATOM      2  F   UNL     1      -8.021   0.927   0.171  0.00  0.00    -0.166 F 
ATOM      3  F   UNL     1      -7.302   0.886  -1.880  0.00  0.00    -0.166 F 
ATOM     29  C   UNL     1      -6.959   1.269  -0.615  0.00  0.00    +0.417 C 
ENDBRANCH  28  29
ENDBRANCH  22  23
ENDBRANCH  16   7
ENDBRANCH  10  16
TORSDOF 6
