REMARK  Name = 44716470
REMARK  8 active torsions:
REMARK  status: ('A' for Active; 'I' for Inactive)
REMARK    1  A    between atoms: O_2  and  C_21
REMARK    2  A    between atoms: O_2  and  C_35
REMARK    3  A    between atoms: N_6  and  C_12
REMARK    4  A    between atoms: N_6  and  C_22
REMARK    5  A    between atoms: N_8  and  C_26
REMARK    6  A    between atoms: C_10  and  C_18
REMARK    7  A    between atoms: C_14  and  C_21
REMARK    8  A    between atoms: C_22  and  C_26
REMARK                            x       y       z     vdW  Elec       q    Type
REMARK                         _______ _______ _______ _____ _____    ______ ____
ROOT
ATOM      5  N   UNL     1       1.173   0.585   0.132  0.00  0.00    -0.274 NA
ATOM      7  N   UNL     1       2.524  -2.919   0.073  0.00  0.00    -0.356 N 
ATOM      9  C   UNL     1       1.056  -0.850  -0.273  0.00  0.00    +0.106 C 
ATOM     10  C   UNL     1      -0.058   1.353  -0.184  0.00  0.00    +0.090 C 
ATOM     11  C   UNL     1      -0.144  -1.514   0.420  0.00  0.00    +0.044 C 
ATOM     12  C   UNL     1      -1.437  -0.775   0.075  0.00  0.00    +0.057 C 
ATOM     13  C   UNL     1      -1.304   0.697   0.460  0.00  0.00    +0.042 C 
ATOM     14  C   UNL     1       2.439   1.216  -0.331  0.00  0.00    +0.172 C 
ATOM     15  C   UNL     1       2.338  -1.565   0.034  0.00  0.00    +0.038 A 
ATOM     16  C   UNL     1       3.697   0.523   0.251  0.00  0.00    +0.068 C 
ATOM     17  C   UNL     1       3.555  -0.959   0.257  0.00  0.00    -0.016 A 
ATOM     19  C   UNL     1       4.517  -1.982   0.476  0.00  0.00    +0.003 A 
ATOM     20  C   UNL     1       3.844  -3.202   0.355  0.00  0.00    +0.047 A 
ATOM     25  C   UNL     1       5.897  -1.995   0.760  0.00  0.00    +0.010 A 
ATOM     27  C   UNL     1       4.487  -4.435   0.508  0.00  0.00    +0.026 A 
ATOM     28  C   UNL     1       6.551  -3.222   0.917  0.00  0.00    +0.001 A 
ATOM     31  C   UNL     1       5.855  -4.422   0.792  0.00  0.00    +0.002 A 
ATOM     39  H   UNL     1       1.807  -3.615  -0.080  0.00  0.00    +0.166 HD
ENDROOT
BRANCH  10  18
ATOM      1  F   UNL     1       0.093   6.753   1.489  0.00  0.00    -0.205 F 
ATOM     18  C   UNL     1      -0.017   2.811   0.268  0.00  0.00    -0.030 A 
ATOM     23  C   UNL     1      -0.662   3.792  -0.486  0.00  0.00    +0.008 A 
ATOM     24  C   UNL     1       0.664   3.161   1.433  0.00  0.00    +0.008 A 
ATOM     29  C   UNL     1      -0.624   5.124  -0.073  0.00  0.00    +0.038 A 
ATOM     30  C   UNL     1       0.701   4.493   1.846  0.00  0.00    +0.038 A 
ATOM     32  C   UNL     1       0.057   5.474   1.092  0.00  0.00    +0.123 A 
ENDBRANCH  10  18
BRANCH  14  21
ATOM      3  O   UNL     1       1.611   0.808  -2.559  0.00  0.00    -0.249 OA
ATOM     21  C   UNL     1       2.491   1.250  -1.833  0.00  0.00    +0.325 C 
BRANCH  21   2
ATOM      2  O   UNL     1       3.652   1.841  -2.235  0.00  0.00    -0.467 OA
ATOM     35  C   UNL     1       3.833   1.940  -3.651  0.00  0.00    +0.280 C 
ENDBRANCH  21   2
ENDBRANCH  14  21
BRANCH  12   6
ATOM      6  N   UNL     1      -2.568  -1.394   0.764  0.00  0.00    -0.312 NA
ATOM     38  H   UNL     1      -2.459  -2.408   0.768  0.00  0.00    +0.122 HD
BRANCH   6  22
ATOM     22  C   UNL     1      -3.820  -1.060   0.103  0.00  0.00    +0.096 C 
BRANCH  22  26
ATOM     26  C   UNL     1      -4.994  -1.680   0.854  0.00  0.00    +0.099 C 
BRANCH  26   8
ATOM      4  O   UNL     1      -8.856  -1.958  -0.765  0.00  0.00    -0.377 OA
ATOM      8  N   UNL     1      -6.253  -1.329   0.200  0.00  0.00    -0.297 NA
ATOM     33  C   UNL     1      -6.449  -2.131  -1.016  0.00  0.00    +0.112 C 
ATOM     34  C   UNL     1      -7.387  -1.517   1.115  0.00  0.00    +0.112 C 
ATOM     36  C   UNL     1      -7.774  -1.756  -1.675  0.00  0.00    +0.175 C 
ATOM     37  C   UNL     1      -8.690  -1.158   0.406  0.00  0.00    +0.175 C 
ENDBRANCH  26   8
ENDBRANCH  22  26
ENDBRANCH   6  22
ENDBRANCH  12   6
TORSDOF 7
