REMARK  Name = 40777341
REMARK  9 active torsions:
REMARK  status: ('A' for Active; 'I' for Inactive)
REMARK    1  A    between atoms: N_5  and  C_24
REMARK    2  A    between atoms: C_6  and  C_10
REMARK    3  A    between atoms: C_7  and  C_13
REMARK    4  A    between atoms: C_10  and  C_20
REMARK    5  A    between atoms: C_11  and  C_18
REMARK    6  A    between atoms: C_13  and  C_23
REMARK    7  A    between atoms: C_18  and  C_21
REMARK    8  A    between atoms: C_24  and  C_25
REMARK    9  A    between atoms: C_24  and  C_26
REMARK                            x       y       z     vdW  Elec       q    Type
REMARK                         _______ _______ _______ _____ _____    ______ ____
ROOT
ATOM      3  N   UNL     1       0.709   2.773   0.390  0.00  0.00    -0.316 NA
ATOM      6  C   UNL     1       0.920   0.425  -0.390  0.00  0.00    +0.012 C 
ATOM      7  C   UNL     1       2.400   0.656  -0.777  0.00  0.00    +0.004 C 
ATOM      8  C   UNL     1       2.621   2.154  -1.046  0.00  0.00    +0.019 C 
ATOM      9  C   UNL     1       0.474   1.371   0.738  0.00  0.00    +0.085 C 
ATOM     12  C   UNL     1       2.118   3.032   0.099  0.00  0.00    +0.081 C 
ATOM     27  H   UNL     1       0.410   3.367   1.163  0.00  0.00    +0.122 HD
ENDROOT
BRANCH   6  10
ATOM     10  C   UNL     1       0.616  -1.028  -0.023  0.00  0.00    +0.064 C 
BRANCH  10  20
ATOM      1  O   UNL     1      -2.676  -1.968  -1.139  0.00  0.00    -0.359 OA
ATOM      4  N   UNL     1      -1.313  -1.787  -1.342  0.00  0.00    -0.083 NA
ATOM     20  C   UNL     1      -0.846  -1.336  -0.175  0.00  0.00    +0.084 A 
ATOM     21  C   UNL     1      -2.988  -1.622   0.137  0.00  0.00    +0.138 A 
ATOM     22  C   UNL     1      -1.858  -1.212   0.793  0.00  0.00    +0.071 A 
BRANCH  21  18
ATOM     18  C   UNL     1      -4.397  -1.753   0.525  0.00  0.00    +0.080 C 
BRANCH  18  11
ATOM     11  C   UNL     1      -5.276  -0.625  -0.011  0.00  0.00    -0.004 C 
ATOM     14  C   UNL     1      -4.768   0.738   0.480  0.00  0.00    +0.004 C 
ATOM     15  C   UNL     1      -6.741  -0.840   0.392  0.00  0.00    +0.004 C 
ATOM     16  C   UNL     1      -5.662   1.879   0.000  0.00  0.00    +0.000 C 
ATOM     17  C   UNL     1      -7.632   0.304  -0.087  0.00  0.00    +0.000 C 
ATOM     19  C   UNL     1      -7.119   1.657   0.396  0.00  0.00    +0.000 C 
ENDBRANCH  18  11
ENDBRANCH  21  18
ENDBRANCH  10  20
ENDBRANCH   6  10
BRANCH   7  13
ATOM     13  C   UNL     1       3.404   0.133   0.257  0.00  0.00    +0.099 C 
BRANCH  13  23
ATOM      2  O   UNL     1       5.043   0.105  -1.523  0.00  0.00    -0.276 OA
ATOM      5  N   UNL     1       5.672  -0.546   0.618  0.00  0.00    -0.313 N 
ATOM     23  C   UNL     1       4.777  -0.092  -0.340  0.00  0.00    +0.213 C 
ATOM     28  H   UNL     1       5.363  -0.619   1.583  0.00  0.00    +0.149 HD
BRANCH   5  24
ATOM     24  C   UNL     1       7.055  -0.846   0.326  0.00  0.00    +0.067 C 
ATOM     25  C   UNL     1       7.552  -1.974   1.220  0.00  0.00    +0.027 C 
ATOM     26  C   UNL     1       7.916   0.402   0.481  0.00  0.00    +0.027 C 
ENDBRANCH   5  24
ENDBRANCH  13  23
ENDBRANCH   7  13
TORSDOF 7
