REMARK  Name = 38028596
REMARK  14 active torsions:
REMARK  status: ('A' for Active; 'I' for Inactive)
REMARK    1  A    between atoms: S_1  and  N_6
REMARK    2  A    between atoms: S_1  and  C_21
REMARK    3  A    between atoms: O_5  and  C_27
REMARK    4  A    between atoms: O_5  and  C_30
REMARK    5  A    between atoms: N_6  and  C_15
REMARK    6  A    between atoms: N_7  and  C_22
REMARK    7  A    between atoms: C_8  and  C_12
REMARK    8  A    between atoms: C_9  and  C_15
REMARK    9  A    between atoms: C_11  and  C_16
REMARK   10  A    between atoms: C_12  and  C_17
REMARK   11  A    between atoms: C_12  and  C_18
REMARK   12  A    between atoms: C_13  and  C_19
REMARK   13  A    between atoms: C_16  and  C_20
REMARK   14  A    between atoms: C_22  and  C_28
REMARK                            x       y       z     vdW  Elec       q    Type
REMARK                         _______ _______ _______ _____ _____    ______ ____
ROOT
ATOM      8  C   UNL     1      -1.380   0.283  -1.219  0.00  0.00    +0.000 C 
ATOM      9  C   UNL     1      -2.314   1.515  -1.111  0.00  0.00    +0.030 C 
ATOM     10  C   UNL     1      -2.203  -1.014  -1.236  0.00  0.00    +0.012 C 
ATOM     11  C   UNL     1      -3.072  -1.169   0.027  0.00  0.00    +0.023 C 
ATOM     13  C   UNL     1      -3.825   0.105   0.353  0.00  0.00    -0.073 C 
ATOM     14  C   UNL     1      -3.479   1.293  -0.176  0.00  0.00    -0.023 C 
ATOM     19  C   UNL     1      -5.012  -0.024   1.265  0.00  0.00    +0.039 C 
ENDROOT
BRANCH   8  12
ATOM     12  C   UNL     1      -0.492   0.350  -2.465  0.00  0.00    -0.013 C 
ATOM     17  C   UNL     1       0.487  -0.820  -2.484  0.00  0.00    +0.007 C 
ATOM     18  C   UNL     1      -1.347   0.360  -3.728  0.00  0.00    +0.007 C 
ENDBRANCH   8  12
BRANCH   9  15
ATOM     15  C   UNL     1      -1.537   2.761  -0.673  0.00  0.00    +0.113 C 
BRANCH  15   6
ATOM      6  N   UNL     1      -1.042   2.562   0.698  0.00  0.00    -0.189 NA
ATOM     31  H   UNL     1      -1.742   2.341   1.417  0.00  0.00    +0.148 HD
BRANCH   6   1
ATOM      1  S   UNL     1       0.404   3.308   1.204  0.00  0.00    +0.058 S 
ATOM      3  O   UNL     1       0.391   3.446   2.648  0.00  0.00    -0.153 OA
ATOM      4  O   UNL     1       0.663   4.461   0.363  0.00  0.00    -0.153 OA
BRANCH   1  21
ATOM     21  C   UNL     1       1.607   2.083   0.784  0.00  0.00    +0.105 A 
ATOM     23  C   UNL     1       2.208   2.098  -0.475  0.00  0.00    +0.032 A 
ATOM     24  C   UNL     1       1.955   1.100   1.711  0.00  0.00    +0.032 A 
ATOM     25  C   UNL     1       3.155   1.130  -0.807  0.00  0.00    +0.047 A 
ATOM     26  C   UNL     1       2.902   0.132   1.379  0.00  0.00    +0.047 A 
ATOM     27  C   UNL     1       3.502   0.147   0.119  0.00  0.00    +0.120 A 
BRANCH  27   5
ATOM      5  O   UNL     1       4.427  -0.798  -0.205  0.00  0.00    -0.495 OA
ATOM     30  C   UNL     1       5.001  -0.723  -1.509  0.00  0.00    +0.277 C 
ENDBRANCH  27   5
ENDBRANCH   1  21
ENDBRANCH   6   1
ENDBRANCH  15   6
ENDBRANCH   9  15
BRANCH  11  16
ATOM     16  C   UNL     1      -2.232  -1.631   1.222  0.00  0.00    +0.103 C 
BRANCH  16  20
ATOM      2  O   UNL     1      -1.842  -3.759   0.139  0.00  0.00    -0.276 OA
ATOM      7  N   UNL     1      -0.266  -2.928   1.631  0.00  0.00    -0.304 N 
ATOM     20  C   UNL     1      -1.455  -2.892   0.917  0.00  0.00    +0.214 C 
ATOM     32  H   UNL     1      -0.027  -2.156   2.247  0.00  0.00    +0.150 HD
BRANCH   7  22
ATOM     22  C   UNL     1       0.678  -4.018   1.538  0.00  0.00    +0.193 C 
BRANCH  22  28
ATOM     28  C   UNL     1       1.657  -3.778   0.478  0.00  0.00    -0.087 C 
ATOM     29  C   UNL     1       2.462  -3.585  -0.391  0.00  0.00    +0.005 C 
ENDBRANCH  22  28
ENDBRANCH   7  22
ENDBRANCH  16  20
ENDBRANCH  11  16
TORSDOF 10
