REMARK  Name = 45784311
REMARK  7 active torsions:
REMARK  status: ('A' for Active; 'I' for Inactive)
REMARK    1  A    between atoms: S_1  and  C_23
REMARK    2  A    between atoms: S_1  and  C_26
REMARK    3  A    between atoms: O_2  and  C_24
REMARK    4  A    between atoms: O_2  and  C_27
REMARK    5  A    between atoms: N_5  and  C_13
REMARK    6  A    between atoms: C_8  and  C_12
REMARK    7  A    between atoms: C_13  and  C_14
REMARK                            x       y       z     vdW  Elec       q    Type
REMARK                         _______ _______ _______ _____ _____    ______ ____
ROOT
ATOM      5  N   UNL     1      -0.981  -0.125  -0.321  0.00  0.00    -0.297 NA
ATOM      8  C   UNL     1       1.197  -0.723   0.309  0.00  0.00    +0.070 C 
ATOM      9  C   UNL     1       0.438  -0.182   1.533  0.00  0.00    +0.028 C 
ATOM     10  C   UNL     1       0.356  -0.281  -0.896  0.00  0.00    +0.096 C 
ATOM     11  C   UNL     1      -0.765   0.555   0.957  0.00  0.00    +0.085 C 
ENDROOT
BRANCH   8  12
ATOM      6  N   UNL     1       3.660  -1.197   0.203  0.00  0.00    -0.341 N 
ATOM      7  N   UNL     1       3.084   0.949   0.131  0.00  0.00    -0.232 NA
ATOM     12  C   UNL     1       2.640  -0.286   0.212  0.00  0.00    +0.113 A 
ATOM     15  C   UNL     1       4.839  -0.504   0.108  0.00  0.00    +0.070 A 
ATOM     16  C   UNL     1       4.453   0.833   0.065  0.00  0.00    +0.089 A 
ATOM     19  C   UNL     1       6.170  -0.919   0.059  0.00  0.00    +0.073 A 
ATOM     20  C   UNL     1       5.440   1.828  -0.033  0.00  0.00    +0.033 A 
ATOM     24  C   UNL     1       7.140   0.085  -0.039  0.00  0.00    +0.122 A 
ATOM     25  C   UNL     1       6.783   1.435  -0.085  0.00  0.00    +0.048 A 
ATOM     28  H   UNL     1       3.565  -2.202   0.255  0.00  0.00    +0.167 HD
BRANCH  24   2
ATOM      2  O   UNL     1       8.457  -0.263  -0.091  0.00  0.00    -0.495 OA
ATOM     27  C   UNL     1       8.761  -1.655  -0.042  0.00  0.00    +0.277 C 
ENDBRANCH  24   2
ENDBRANCH   8  12
BRANCH   5  13
ATOM     13  C   UNL     1      -1.880   0.614  -1.196  0.00  0.00    +0.119 C 
BRANCH  13  14
ATOM     14  C   UNL     1      -3.324   0.401  -0.826  0.00  0.00    -0.033 A 
ATOM     17  C   UNL     1      -3.963  -0.790  -1.167  0.00  0.00    +0.007 A 
ATOM     18  C   UNL     1      -4.022   1.396  -0.141  0.00  0.00    +0.007 A 
ATOM     21  C   UNL     1      -5.301  -0.987  -0.824  0.00  0.00    +0.027 A 
ATOM     22  C   UNL     1      -5.359   1.200   0.202  0.00  0.00    +0.027 A 
ATOM     23  C   UNL     1      -5.999   0.008  -0.139  0.00  0.00    +0.088 A 
BRANCH  23   1
ATOM      1  S   UNL     1      -7.672  -0.241   0.293  0.00  0.00    -0.006 S 
ATOM      3  O   UNL     1      -8.315   1.056   0.457  0.00  0.00    -0.170 OA
ATOM      4  O   UNL     1      -8.234  -1.214  -0.632  0.00  0.00    -0.170 OA
ATOM     26  C   UNL     1      -7.606  -0.992   1.904  0.00  0.00    +0.200 C 
ENDBRANCH  23   1
ENDBRANCH  13  14
ENDBRANCH   5  13
TORSDOF 5
