REMARK  Name = 11886259
REMARK  7 active torsions:
REMARK  status: ('A' for Active; 'I' for Inactive)
REMARK    1  A    between atoms: O_3  and  C_19
REMARK    2  A    between atoms: O_3  and  C_24
REMARK    3  A    between atoms: N_5  and  C_15
REMARK    4  A    between atoms: N_6  and  C_16
REMARK    5  A    between atoms: N_10  and  C_33
REMARK    6  A    between atoms: C_20  and  C_21
REMARK    7  A    between atoms: C_27  and  C_32
REMARK                            x       y       z     vdW  Elec       q    Type
REMARK                         _______ _______ _______ _____ _____    ______ ____
ROOT
ATOM      1  O   UNL     1       1.999   3.253   0.496  0.00  0.00    -0.370 OA
ATOM      2  O   UNL     1       1.909   1.091  -1.753  0.00  0.00    -0.370 OA
ATOM     13  C   UNL     1       1.500   1.091  -0.372  0.00  0.00    +0.176 C 
ATOM     14  C   UNL     1       2.518   1.917   0.390  0.00  0.00    +0.171 C 
ATOM     15  C   UNL     1       0.199   1.856  -0.223  0.00  0.00    +0.171 C 
ATOM     16  C   UNL     1       3.749   1.903  -0.492  0.00  0.00    +0.130 C 
ATOM     17  C   UNL     1       0.669   3.296  -0.041  0.00  0.00    +0.190 C 
ATOM     18  C   UNL     1       3.136   1.823  -1.880  0.00  0.00    +0.185 C 
ENDROOT
BRANCH  15   5
ATOM      5  N   UNL     1      -0.640   1.332   0.857  0.00  0.00    -0.187 N 
ATOM      7  N   UNL     1      -0.184   1.270   2.112  0.00  0.00    -0.041 NA
ATOM      8  N   UNL     1      -2.270   0.492   2.001  0.00  0.00    -0.071 NA
ATOM      9  N   UNL     1      -1.188   0.754   2.811  0.00  0.00    -0.020 NA
ATOM     19  C   UNL     1      -1.907   0.859   0.794  0.00  0.00    +0.342 A 
BRANCH  19   3
ATOM      3  O   UNL     1      -2.634   0.786  -0.305  0.00  0.00    -0.423 OA
BRANCH   3  24
ATOM     24  C   UNL     1      -3.930   0.288  -0.312  0.00  0.00    +0.132 A 
ATOM     28  C   UNL     1      -4.983   1.159  -0.107  0.00  0.00    +0.048 A 
ATOM     29  C   UNL     1      -4.129  -1.062  -0.525  0.00  0.00    +0.048 A 
ATOM     30  C   UNL     1      -6.286   0.659  -0.114  0.00  0.00    +0.031 A 
ATOM     31  C   UNL     1      -5.431  -1.562  -0.532  0.00  0.00    +0.031 A 
ATOM     33  C   UNL     1      -6.510  -0.701  -0.327  0.00  0.00    +0.067 A 
BRANCH  33  10
ATOM     10  N   UNL     1      -7.801  -1.196  -0.334  0.00  0.00    -0.220 N 
ATOM     11  N   UNL     1      -8.064  -2.500  -0.535  0.00  0.00    -0.154 NA
ATOM     12  N   UNL     1      -9.987  -1.302  -0.224  0.00  0.00    -0.222 NA
ATOM     34  C   UNL     1      -8.956  -0.493  -0.151  0.00  0.00    +0.225 A 
ATOM     35  C   UNL     1      -9.396  -2.510  -0.459  0.00  0.00    +0.245 A 
ENDBRANCH  33  10
ENDBRANCH   3  24
ENDBRANCH  19   3
ENDBRANCH  15   5
BRANCH  16   6
ATOM      4  O   UNL     1       6.571   1.569  -0.975  0.00  0.00    -0.270 OA
ATOM      6  N   UNL     1       4.549   0.707  -0.236  0.00  0.00    -0.304 N 
ATOM     20  C   UNL     1       5.909   0.647  -0.505  0.00  0.00    +0.244 C 
ATOM     36  H   UNL     1       4.045  -0.128   0.044  0.00  0.00    +0.149 HD
BRANCH  20  21
ATOM     21  C   UNL     1       6.573  -0.650  -0.214  0.00  0.00    +0.037 A 
ATOM     22  C   UNL     1       7.702  -0.995  -0.928  0.00  0.00    +0.013 A 
ATOM     23  C   UNL     1       6.040  -1.467   0.761  0.00  0.00    +0.013 A 
ATOM     25  C   UNL     1       8.326  -2.212  -0.655  0.00  0.00    +0.004 A 
ATOM     26  C   UNL     1       6.664  -2.684   1.034  0.00  0.00    +0.004 A 
ATOM     27  C   UNL     1       7.807  -3.057   0.326  0.00  0.00    -0.050 A 
ATOM     32  C   UNL     1       8.474  -4.359   0.618  0.00  0.00    +0.044 C 
ENDBRANCH  20  21
ENDBRANCH  16   6
TORSDOF 6
