REMARK  Name = 11913115
REMARK  7 active torsions:
REMARK  status: ('A' for Active; 'I' for Inactive)
REMARK    1  A    between atoms: O_4  and  C_14
REMARK    2  A    between atoms: O_4  and  C_18
REMARK    3  A    between atoms: O_6  and  C_30
REMARK    4  A    between atoms: O_6  and  C_34
REMARK    5  A    between atoms: N_7  and  C_13
REMARK    6  A    between atoms: N_10  and  C_22
REMARK    7  A    between atoms: C_19  and  C_23
REMARK                            x       y       z     vdW  Elec       q    Type
REMARK                         _______ _______ _______ _____ _____    ______ ____
ROOT
ATOM      2  O   UNL     1      -0.816   0.691   2.248  0.00  0.00    -0.368 OA
ATOM      3  O   UNL     1      -2.617   2.143   0.233  0.00  0.00    -0.368 OA
ATOM     11  C   UNL     1      -2.420   0.739   0.502  0.00  0.00    +0.173 C 
ATOM     12  C   UNL     1      -0.950   0.556   0.824  0.00  0.00    +0.192 C 
ATOM     13  C   UNL     1      -3.124   0.354   1.782  0.00  0.00    +0.130 C 
ATOM     14  C   UNL     1      -0.309   1.709   0.090  0.00  0.00    +0.235 C 
ATOM     15  C   UNL     1      -2.120   0.770   2.843  0.00  0.00    +0.185 C 
ATOM     16  C   UNL     1      -1.342   2.801   0.247  0.00  0.00    +0.207 C 
ENDROOT
BRANCH  13   7
ATOM      7  N   UNL     1      -3.338  -1.077   1.826  0.00  0.00    -0.306 N 
ATOM      8  N   UNL     1      -5.316  -0.915   0.620  0.00  0.00    -0.214 NA
ATOM      9  N   UNL     1      -4.482  -3.047   1.374  0.00  0.00    -0.223 NA
ATOM     17  C   UNL     1      -4.426  -1.707   1.248  0.00  0.00    +0.216 A 
ATOM     19  C   UNL     1      -6.363  -1.562   0.069  0.00  0.00    +0.076 A 
ATOM     20  C   UNL     1      -5.555  -3.628   0.799  0.00  0.00    +0.116 A 
ATOM     21  C   UNL     1      -6.537  -2.930   0.127  0.00  0.00    +0.048 A 
ATOM     40  H   UNL     1      -2.638  -1.672   2.255  0.00  0.00    +0.149 HD
BRANCH  19  23
ATOM      1  F   UNL     1      -7.449   1.645  -3.371  0.00  0.00    -0.205 F 
ATOM     23  C   UNL     1      -7.319  -0.717  -0.607  0.00  0.00    +0.003 A 
ATOM     26  C   UNL     1      -6.914   0.071  -1.684  0.00  0.00    +0.048 A 
ATOM     27  C   UNL     1      -8.647  -0.688  -0.182  0.00  0.00    +0.010 A 
ATOM     31  C   UNL     1      -7.838   0.888  -2.337  0.00  0.00    +0.124 A 
ATOM     32  C   UNL     1      -9.571   0.128  -0.834  0.00  0.00    +0.003 A 
ATOM     33  C   UNL     1      -9.166   0.916  -1.912  0.00  0.00    +0.038 A 
ENDBRANCH  19  23
ENDBRANCH  13   7
BRANCH  14   4
ATOM      4  O   UNL     1       0.944   2.085   0.617  0.00  0.00    -0.442 OA
BRANCH   4  18
ATOM      5  O   UNL     1       1.990   0.707  -0.879  0.00  0.00    -0.226 OA
ATOM     10  N   UNL     1       3.196   1.981   0.671  0.00  0.00    -0.251 N 
ATOM     18  C   UNL     1       2.059   1.509   0.044  0.00  0.00    +0.405 C 
ATOM     41  H   UNL     1       3.050   2.649   1.424  0.00  0.00    +0.158 HD
BRANCH  10  22
ATOM     22  C   UNL     1       4.543   1.650   0.396  0.00  0.00    +0.037 A 
ATOM     24  C   UNL     1       4.844   0.742  -0.619  0.00  0.00    +0.027 A 
ATOM     25  C   UNL     1       5.570   2.232   1.139  0.00  0.00    +0.027 A 
ATOM     28  C   UNL     1       6.173   0.415  -0.890  0.00  0.00    +0.048 A 
ATOM     29  C   UNL     1       6.898   1.905   0.868  0.00  0.00    +0.048 A 
ATOM     30  C   UNL     1       7.200   0.996  -0.146  0.00  0.00    +0.129 A 
BRANCH  30   6
ATOM      6  O   UNL     1       8.496   0.677  -0.411  0.00  0.00    -0.456 OA
BRANCH   6  34
ATOM     34  C   UNL     1       8.806  -0.660  -0.596  0.00  0.00    +0.128 A 
ATOM     35  C   UNL     1       8.294  -1.621   0.275  0.00  0.00    +0.046 A 
ATOM     36  C   UNL     1       9.630  -1.045  -1.653  0.00  0.00    +0.046 A 
ATOM     37  C   UNL     1       8.605  -2.968   0.088  0.00  0.00    +0.004 A 
ATOM     38  C   UNL     1       9.941  -2.392  -1.840  0.00  0.00    +0.004 A 
ATOM     39  C   UNL     1       9.429  -3.353  -0.969  0.00  0.00    +0.000 A 
ENDBRANCH   6  34
ENDBRANCH  30   6
ENDBRANCH  10  22
ENDBRANCH   4  18
ENDBRANCH  14   4
TORSDOF 7
