REMARK  Name = 26742362
REMARK  10 active torsions:
REMARK  status: ('A' for Active; 'I' for Inactive)
REMARK    1  A    between atoms: O_2  and  C_25
REMARK    2  A    between atoms: O_2  and  C_36
REMARK    3  A    between atoms: O_3  and  C_34
REMARK    4  A    between atoms: N_6  and  C_16
REMARK    5  A    between atoms: C_10  and  C_17
REMARK    6  A    between atoms: C_11  and  C_16
REMARK    7  A    between atoms: C_19  and  C_22
REMARK    8  A    between atoms: C_20  and  C_24
REMARK    9  A    between atoms: C_21  and  C_23
REMARK   10  A    between atoms: C_27  and  C_34
REMARK                            x       y       z     vdW  Elec       q    Type
REMARK                         _______ _______ _______ _____ _____    ______ ____
ROOT
ATOM      5  N   UNL     1      -0.772   2.931  -0.862  0.00  0.00    -0.297 NA
ATOM      9  C   UNL     1      -0.211   2.076   1.533  0.00  0.00    +0.002 C 
ATOM     10  C   UNL     1       1.052   2.032   0.630  0.00  0.00    +0.055 C 
ATOM     11  C   UNL     1      -1.764   1.906  -0.443  0.00  0.00    +0.074 C 
ATOM     12  C   UNL     1      -1.333   1.240   0.881  0.00  0.00    +0.024 C 
ATOM     13  C   UNL     1      -0.692   3.543   1.554  0.00  0.00    +0.019 C 
ATOM     14  C   UNL     1       0.597   2.360  -0.821  0.00  0.00    +0.094 C 
ATOM     15  C   UNL     1      -0.837   4.050   0.109  0.00  0.00    +0.085 C 
ENDROOT
BRANCH  10  17
ATOM      7  N   UNL     1       1.546  -0.189   1.528  0.00  0.00    -0.237 NA
ATOM      8  N   UNL     1       3.485  -1.448   0.848  0.00  0.00    -0.232 NA
ATOM     17  C   UNL     1       1.937   0.795   0.692  0.00  0.00    +0.050 A 
ATOM     18  C   UNL     1       3.074   0.732  -0.088  0.00  0.00    +0.052 A 
ATOM     19  C   UNL     1       3.817  -0.425   0.032  0.00  0.00    +0.078 A 
ATOM     20  C   UNL     1       2.354  -1.266   1.556  0.00  0.00    +0.127 A 
ATOM     24  C   UNL     1       1.956  -2.374   2.470  0.00  0.00    +0.088 C 
BRANCH  19  22
ATOM     22  C   UNL     1       5.029  -0.615  -0.728  0.00  0.00    +0.042 A 
ATOM     25  C   UNL     1       6.251  -0.815  -0.087  0.00  0.00    +0.129 A 
ATOM     26  C   UNL     1       4.967  -0.595  -2.121  0.00  0.00    +0.013 A 
ATOM     29  C   UNL     1       7.412  -0.997  -0.839  0.00  0.00    +0.046 A 
ATOM     30  C   UNL     1       6.127  -0.777  -2.874  0.00  0.00    +0.001 A 
ATOM     33  C   UNL     1       7.350  -0.977  -2.233  0.00  0.00    +0.004 A 
BRANCH  25   2
ATOM      2  O   UNL     1       6.342  -0.839   1.274  0.00  0.00    -0.494 OA
ATOM     36  C   UNL     1       7.636  -1.051   1.832  0.00  0.00    +0.277 C 
ENDBRANCH  25   2
ENDBRANCH  19  22
ENDBRANCH  10  17
BRANCH  11  16
ATOM     16  C   UNL     1      -2.034   0.873  -1.539  0.00  0.00    +0.123 C 
BRANCH  16   6
ATOM      1  O   UNL     1      -4.848   1.199  -2.008  0.00  0.00    -0.270 OA
ATOM      6  N   UNL     1      -3.075  -0.026  -1.148  0.00  0.00    -0.310 N 
ATOM     21  C   UNL     1      -4.422   0.210  -1.417  0.00  0.00    +0.245 C 
ATOM     37  H   UNL     1      -2.811  -0.876  -0.657  0.00  0.00    +0.149 HD
BRANCH  21  23
ATOM     23  C   UNL     1      -5.383  -0.808  -0.921  0.00  0.00    +0.051 A 
ATOM     27  C   UNL     1      -5.487  -1.105   0.438  0.00  0.00    +0.071 A 
ATOM     28  C   UNL     1      -6.190  -1.473  -1.844  0.00  0.00    +0.014 A 
ATOM     31  C   UNL     1      -6.398  -2.067   0.874  0.00  0.00    +0.016 A 
ATOM     32  C   UNL     1      -7.101  -2.435  -1.408  0.00  0.00    +0.001 A 
ATOM     35  C   UNL     1      -7.206  -2.732  -0.049  0.00  0.00    +0.001 A 
BRANCH  27  34
ATOM      4  O   UNL     1      -4.643   0.789   1.631  0.00  0.00    -0.245 OA
ATOM     34  C   UNL     1      -4.658  -0.428   1.426  0.00  0.00    +0.338 C 
BRANCH  34   3
ATOM      3  O   UNL     1      -3.875  -1.292   2.126  0.00  0.00    -0.477 OA
ATOM     38  H   UNL     1      -3.319  -0.828   2.787  0.00  0.00    +0.295 HD
ENDBRANCH  34   3
ENDBRANCH  27  34
ENDBRANCH  21  23
ENDBRANCH  16   6
ENDBRANCH  11  16
TORSDOF 8
