REMARK  Name = 26744270
REMARK  4 active torsions:
REMARK  status: ('A' for Active; 'I' for Inactive)
REMARK    1  A    between atoms: O_2  and  C_11
REMARK    2  A    between atoms: N_4  and  C_8
REMARK    3  A    between atoms: C_7  and  C_17
REMARK    4  A    between atoms: C_12  and  C_18
REMARK                            x       y       z     vdW  Elec       q    Type
REMARK                         _______ _______ _______ _____ _____    ______ ____
ROOT
ATOM      4  N   UNL     1      -1.530  -0.410  -0.257  0.00  0.00    -0.286 NA
ATOM      7  C   UNL     1      -0.742  -1.247   0.670  0.00  0.00    +0.149 C 
ATOM      9  C   UNL     1      -1.159  -2.693   0.346  0.00  0.00    +0.061 C 
ATOM     10  C   UNL     1      -2.751  -1.157  -0.553  0.00  0.00    +0.116 C 
ATOM     11  C   UNL     1      -2.217  -2.564  -0.742  0.00  0.00    +0.130 C 
ENDROOT
BRANCH   4   8
ATOM      1  O   UNL     1      -1.579   3.780   0.011  0.00  0.00    -0.380 OA
ATOM      8  C   UNL     1      -1.815   0.923   0.271  0.00  0.00    +0.062 C 
ATOM     15  C   UNL     1      -0.511   1.669   0.567  0.00  0.00    +0.047 C 
ATOM     16  C   UNL     1      -2.672   1.732  -0.708  0.00  0.00    +0.047 C 
ATOM     19  C   UNL     1      -0.806   3.100   1.000  0.00  0.00    +0.161 C 
ATOM     20  C   UNL     1      -2.847   3.160  -0.204  0.00  0.00    +0.161 C 
ENDBRANCH   4   8
BRANCH   7  17
ATOM      3  O   UNL     1       1.502  -1.260   1.639  0.00  0.00    -0.336 OA
ATOM      5  N   UNL     1       1.437  -0.628  -0.509  0.00  0.00    -0.194 NA
ATOM      6  N   UNL     1       2.827  -0.990   1.272  0.00  0.00    -0.061 NA
ATOM     17  C   UNL     1       0.749  -1.022   0.533  0.00  0.00    +0.245 A 
ATOM     18  C   UNL     1       2.706  -0.623  -0.008  0.00  0.00    +0.175 A 
BRANCH  18  12
ATOM     12  C   UNL     1       3.917  -0.223  -0.855  0.00  0.00    +0.060 C 
ATOM     13  C   UNL     1       4.812   0.876  -0.361  0.00  0.00    +0.012 C 
ATOM     14  C   UNL     1       3.910   1.114  -1.536  0.00  0.00    +0.012 C 
ENDBRANCH  18  12
ENDBRANCH   7  17
BRANCH  11   2
ATOM      2  O   UNL     1      -3.230  -3.537  -0.575  0.00  0.00    -0.390 OA
ATOM     21  H   UNL     1      -2.808  -4.411  -0.632  0.00  0.00    +0.210 HD
ENDBRANCH  11   2
TORSDOF 4
