REMARK  Name = 26761883
REMARK  9 active torsions:
REMARK  status: ('A' for Active; 'I' for Inactive)
REMARK    1  A    between atoms: O_3  and  C_29
REMARK    2  A    between atoms: O_3  and  C_30
REMARK    3  A    between atoms: N_9  and  C_21
REMARK    4  A    between atoms: C_11  and  C_16
REMARK    5  A    between atoms: C_19  and  C_20
REMARK    6  A    between atoms: C_20  and  C_22
REMARK    7  A    between atoms: C_20  and  C_23
REMARK    8  A    between atoms: C_28  and  C_29
REMARK    9  A    between atoms: C_30  and  C_31
REMARK                            x       y       z     vdW  Elec       q    Type
REMARK                         _______ _______ _______ _____ _____    ______ ____
ROOT
ATOM      2  O   UNL     1      -0.116   1.100   1.660  0.00  0.00    -0.252 OA
ATOM      5  N   UNL     1       1.211  -0.332   0.402  0.00  0.00    -0.267 N 
ATOM      6  N   UNL     1       2.668  -3.377  -1.215  0.00  0.00    -0.347 N 
ATOM      7  N   UNL     1       3.857  -3.548   0.669  0.00  0.00    -0.240 NA
ATOM      9  N   UNL     1      -0.980   0.205  -0.302  0.00  0.00    -0.269 N 
ATOM     11  C   UNL     1       2.396  -0.101   1.300  0.00  0.00    +0.172 C 
ATOM     12  C   UNL     1       3.022  -1.439   1.794  0.00  0.00    +0.089 C 
ATOM     13  C   UNL     1       1.393  -1.214  -0.789  0.00  0.00    +0.165 C 
ATOM     14  C   UNL     1       3.081  -2.424   0.694  0.00  0.00    +0.066 A 
ATOM     15  C   UNL     1       2.337  -2.296  -0.453  0.00  0.00    +0.056 A 
ATOM     17  C   UNL     1       0.009   0.378   0.668  0.00  0.00    +0.307 C 
ATOM     18  C   UNL     1       3.586  -4.101  -0.496  0.00  0.00    +0.197 A 
ATOM     32  H   UNL     1       2.309  -3.605  -2.133  0.00  0.00    +0.167 HD
ATOM     33  H   UNL     1      -0.682  -0.006  -1.250  0.00  0.00    +0.156 HD
ENDROOT
BRANCH   9  21
ATOM     21  C   UNL     1      -2.384   0.241  -0.117  0.00  0.00    +0.035 A 
ATOM     24  C   UNL     1      -2.915   0.472   1.152  0.00  0.00    +0.024 A 
ATOM     25  C   UNL     1      -3.236   0.045  -1.204  0.00  0.00    +0.024 A 
ATOM     26  C   UNL     1      -4.297   0.506   1.335  0.00  0.00    +0.017 A 
ATOM     27  C   UNL     1      -4.619   0.079  -1.021  0.00  0.00    +0.017 A 
ATOM     28  C   UNL     1      -5.149   0.310   0.248  0.00  0.00    +0.059 A 
BRANCH  28  29
ATOM      4  O   UNL     1      -7.147   0.543   1.528  0.00  0.00    -0.245 OA
ATOM     29  C   UNL     1      -6.590   0.346   0.440  0.00  0.00    +0.339 C 
BRANCH  29   3
ATOM      3  O   UNL     1      -7.259   0.134  -0.735  0.00  0.00    -0.461 OA
BRANCH   3  30
ATOM     30  C   UNL     1      -8.690   0.146  -0.676  0.00  0.00    +0.229 C 
ATOM     31  C   UNL     1      -9.243  -0.104  -2.062  0.00  0.00    +0.048 C 
ENDBRANCH   3  30
ENDBRANCH  29   3
ENDBRANCH  28  29
ENDBRANCH   9  21
BRANCH  11  16
ATOM      1  O   UNL     1       3.075   2.220   0.867  0.00  0.00    -0.336 OA
ATOM      8  N   UNL     1       4.427   0.690  -0.055  0.00  0.00    -0.194 NA
ATOM     10  N   UNL     1       4.077   2.937   0.201  0.00  0.00    -0.061 NA
ATOM     16  C   UNL     1       3.356   0.906   0.667  0.00  0.00    +0.248 A 
ATOM     19  C   UNL     1       4.835   1.966  -0.318  0.00  0.00    +0.174 A 
BRANCH  19  20
ATOM     20  C   UNL     1       6.029   2.256  -1.119  0.00  0.00    +0.054 C 
ATOM     22  C   UNL     1       5.929   1.738  -2.577  0.00  0.00    +0.015 C 
ATOM     23  C   UNL     1       7.338   1.719  -0.486  0.00  0.00    +0.015 C 
ENDBRANCH  19  20
ENDBRANCH  11  16
TORSDOF 6
