REMARK  Name = 75537013
REMARK  4 active torsions:
REMARK  status: ('A' for Active; 'I' for Inactive)
REMARK    1  A    between atoms: O_3  and  C_20
REMARK    2  A    between atoms: O_3  and  C_21
REMARK    3  A    between atoms: N_4  and  C_8
REMARK    4  A    between atoms: C_19  and  C_20
REMARK                            x       y       z     vdW  Elec       q    Type
REMARK                         _______ _______ _______ _____ _____    ______ ____
ROOT
ATOM      1  O   UNL     1       1.837  -2.682   0.234  0.00  0.00    -0.252 OA
ATOM      2  O   UNL     1      -4.898  -0.949  -0.059  0.00  0.00    -0.273 OA
ATOM      4  N   UNL     1       1.907  -0.326   0.155  0.00  0.00    -0.281 N 
ATOM      5  N   UNL     1      -0.094  -1.343   0.273  0.00  0.00    -0.278 N 
ATOM      6  N   UNL     1      -2.650  -0.504  -0.437  0.00  0.00    -0.296 N 
ATOM      7  C   UNL     1      -0.399   0.074   0.359  0.00  0.00    +0.112 C 
ATOM      9  C   UNL     1       0.937   0.752   0.063  0.00  0.00    +0.133 C 
ATOM     12  C   UNL     1      -1.526   0.435  -0.605  0.00  0.00    +0.132 C 
ATOM     13  C   UNL     1       1.286  -1.589   0.226  0.00  0.00    +0.305 C 
ATOM     14  C   UNL     1      -1.167  -2.317   0.349  0.00  0.00    +0.128 C 
ATOM     17  C   UNL     1      -2.295  -1.922  -0.601  0.00  0.00    +0.127 C 
ATOM     19  C   UNL     1      -3.970  -0.144  -0.171  0.00  0.00    +0.241 C 
ENDROOT
BRANCH   4   8
ATOM      8  C   UNL     1       3.325  -0.089   0.043  0.00  0.00    +0.078 C 
ATOM     10  C   UNL     1       3.838   0.686   1.259  0.00  0.00    +0.022 C 
ATOM     11  C   UNL     1       3.651   0.643  -1.262  0.00  0.00    +0.022 C 
ATOM     15  C   UNL     1       5.328   0.996   1.141  0.00  0.00    +0.002 C 
ATOM     16  C   UNL     1       5.142   0.952  -1.376  0.00  0.00    +0.002 C 
ATOM     18  C   UNL     1       5.651   1.723  -0.161  0.00  0.00    +0.000 C 
ENDBRANCH   4   8
BRANCH  19  20
ATOM     20  C   UNL     1      -4.247   1.330  -0.014  0.00  0.00    +0.255 C 
BRANCH  20   3
ATOM      3  O   UNL     1      -5.631   1.457   0.209  0.00  0.00    -0.374 OA
ATOM     21  C   UNL     1      -6.024   2.819   0.376  0.00  0.00    +0.194 C 
ENDBRANCH  20   3
ENDBRANCH  19  20
TORSDOF 3
