REMARK  Name = 51137446
REMARK  7 active torsions:
REMARK  status: ('A' for Active; 'I' for Inactive)
REMARK    1  A    between atoms: S_1  and  C_20
REMARK    2  A    between atoms: S_1  and  C_24
REMARK    3  A    between atoms: N_5  and  C_12
REMARK    4  A    between atoms: C_8  and  C_13
REMARK    5  A    between atoms: C_12  and  C_14
REMARK    6  A    between atoms: C_17  and  C_21
REMARK    7  A    between atoms: C_27  and  C_28
REMARK                            x       y       z     vdW  Elec       q    Type
REMARK                         _______ _______ _______ _____ _____    ______ ____
ROOT
ATOM      5  N   UNL     1      -1.103  -0.871  -0.341  0.00  0.00    -0.297 NA
ATOM      8  C   UNL     1       0.839  -2.045   0.249  0.00  0.00    +0.092 C 
ATOM      9  C   UNL     1       0.238  -1.382   1.501  0.00  0.00    +0.029 C 
ATOM     10  C   UNL     1       0.151  -1.343  -0.930  0.00  0.00    +0.097 C 
ATOM     11  C   UNL     1      -0.727  -0.332   0.966  0.00  0.00    +0.085 C 
ENDROOT
BRANCH   8  13
ATOM      2  O   UNL     1       2.922  -0.760   0.153  0.00  0.00    -0.420 OA
ATOM      6  N   UNL     1       3.214  -2.978   0.104  0.00  0.00    -0.112 NA
ATOM      7  N   UNL     1       4.460  -2.381   0.043  0.00  0.00    -0.107 NA
ATOM     13  C   UNL     1       2.347  -1.994   0.167  0.00  0.00    +0.222 A 
ATOM     17  C   UNL     1       4.240  -1.087   0.074  0.00  0.00    +0.248 A 
BRANCH  17  21
ATOM     21  C   UNL     1       5.159   0.014   0.040  0.00  0.00    +0.038 A 
ATOM     22  C   UNL     1       6.531  -0.225  -0.039  0.00  0.00    +0.013 A 
ATOM     23  C   UNL     1       4.680   1.323   0.085  0.00  0.00    +0.013 A 
ATOM     25  C   UNL     1       7.424   0.846  -0.073  0.00  0.00    +0.004 A 
ATOM     26  C   UNL     1       5.574   2.394   0.051  0.00  0.00    +0.004 A 
ATOM     27  C   UNL     1       6.946   2.155  -0.028  0.00  0.00    -0.050 A 
ATOM     28  C   UNL     1       7.901   3.300  -0.064  0.00  0.00    +0.044 C 
ENDBRANCH  17  21
ENDBRANCH   8  13
BRANCH   5  12
ATOM     12  C   UNL     1      -1.772   0.117  -1.176  0.00  0.00    +0.119 C 
BRANCH  12  14
ATOM     14  C   UNL     1      -3.224   0.271  -0.809  0.00  0.00    -0.033 A 
ATOM     15  C   UNL     1      -4.149  -0.696  -1.203  0.00  0.00    +0.007 A 
ATOM     16  C   UNL     1      -3.644   1.380  -0.075  0.00  0.00    +0.007 A 
ATOM     18  C   UNL     1      -5.494  -0.554  -0.863  0.00  0.00    +0.027 A 
ATOM     19  C   UNL     1      -4.989   1.522   0.265  0.00  0.00    +0.027 A 
ATOM     20  C   UNL     1      -5.914   0.556  -0.129  0.00  0.00    +0.088 A 
BRANCH  20   1
ATOM      1  S   UNL     1      -7.598   0.732   0.299  0.00  0.00    -0.006 S 
ATOM      3  O   UNL     1      -7.882   2.142   0.527  0.00  0.00    -0.170 OA
ATOM      4  O   UNL     1      -8.387  -0.017  -0.668  0.00  0.00    -0.170 OA
ATOM     24  C   UNL     1      -7.742  -0.086   1.872  0.00  0.00    +0.200 C 
ENDBRANCH  20   1
ENDBRANCH  12  14
ENDBRANCH   5  12
TORSDOF 5
