REMARK  Name = 40776907
REMARK  11 active torsions:
REMARK  status: ('A' for Active; 'I' for Inactive)
REMARK    1  A    between atoms: O_2  and  C_26
REMARK    2  A    between atoms: O_2  and  C_32
REMARK    3  A    between atoms: O_3  and  C_30
REMARK    4  A    between atoms: N_6  and  C_16
REMARK    5  A    between atoms: C_10  and  C_17
REMARK    6  A    between atoms: C_11  and  C_16
REMARK    7  A    between atoms: C_19  and  C_23
REMARK    8  A    between atoms: C_20  and  C_22
REMARK    9  A    between atoms: C_21  and  C_24
REMARK   10  A    between atoms: C_22  and  C_25
REMARK   11  A    between atoms: C_25  and  C_30
REMARK                            x       y       z     vdW  Elec       q    Type
REMARK                         _______ _______ _______ _____ _____    ______ ____
ROOT
ATOM      5  N   UNL     1       1.124   2.589   1.318  0.00  0.00    -0.297 NA
ATOM      9  C   UNL     1       0.566   2.531  -1.226  0.00  0.00    +0.002 C 
ATOM     10  C   UNL     1      -0.710   2.256  -0.383  0.00  0.00    +0.055 C 
ATOM     11  C   UNL     1       2.088   1.709   0.606  0.00  0.00    +0.074 C 
ATOM     12  C   UNL     1       1.652   1.498  -0.860  0.00  0.00    +0.024 C 
ATOM     13  C   UNL     1       1.095   3.916  -0.794  0.00  0.00    +0.019 C 
ATOM     14  C   UNL     1      -0.262   2.107   1.100  0.00  0.00    +0.094 C 
ATOM     15  C   UNL     1       1.237   3.949   0.738  0.00  0.00    +0.085 C 
ENDROOT
BRANCH  10  17
ATOM      7  N   UNL     1      -1.263   0.437  -1.921  0.00  0.00    -0.237 NA
ATOM      8  N   UNL     1      -3.251  -0.901  -1.664  0.00  0.00    -0.232 NA
ATOM     17  C   UNL     1      -1.633   1.129  -0.823  0.00  0.00    +0.050 A 
ATOM     18  C   UNL     1      -2.781   0.870  -0.103  0.00  0.00    +0.052 A 
ATOM     19  C   UNL     1      -3.560  -0.168  -0.575  0.00  0.00    +0.078 A 
ATOM     21  C   UNL     1      -2.106  -0.550  -2.280  0.00  0.00    +0.127 A 
ATOM     24  C   UNL     1      -1.732  -1.337  -3.490  0.00  0.00    +0.088 C 
BRANCH  19  23
ATOM     23  C   UNL     1      -4.787  -0.540   0.088  0.00  0.00    +0.042 A 
ATOM     26  C   UNL     1      -4.958  -1.822   0.610  0.00  0.00    +0.129 A 
ATOM     27  C   UNL     1      -5.809   0.402   0.203  0.00  0.00    +0.013 A 
ATOM     28  C   UNL     1      -6.151  -2.162   1.247  0.00  0.00    +0.046 A 
ATOM     29  C   UNL     1      -7.003   0.062   0.840  0.00  0.00    +0.001 A 
ATOM     31  C   UNL     1      -7.174  -1.220   1.362  0.00  0.00    +0.004 A 
BRANCH  26   2
ATOM      2  O   UNL     1      -3.976  -2.763   0.512  0.00  0.00    -0.494 OA
ATOM     32  C   UNL     1      -3.028  -2.821   1.575  0.00  0.00    +0.277 C 
ENDBRANCH  26   2
ENDBRANCH  19  23
ENDBRANCH  10  17
BRANCH  11  16
ATOM     16  C   UNL     1       2.310   0.381   1.332  0.00  0.00    +0.123 C 
BRANCH  16   6
ATOM      1  O   UNL     1       5.152   0.430   1.869  0.00  0.00    -0.276 OA
ATOM      6  N   UNL     1       3.326  -0.391   0.685  0.00  0.00    -0.314 N 
ATOM     20  C   UNL     1       4.681  -0.306   1.006  0.00  0.00    +0.214 C 
ATOM     33  H   UNL     1       3.038  -1.031  -0.049  0.00  0.00    +0.149 HD
BRANCH  20  22
ATOM     22  C   UNL     1       5.527  -1.238   0.157  0.00  0.00    +0.107 C 
BRANCH  22  25
ATOM     25  C   UNL     1       7.011  -1.154   0.500  0.00  0.00    +0.129 C 
BRANCH  25  30
ATOM      4  O   UNL     1       7.407  -2.835  -1.214  0.00  0.00    -0.251 OA
ATOM     30  C   UNL     1       7.842  -2.080  -0.356  0.00  0.00    +0.305 C 
BRANCH  30   3
ATOM      3  O   UNL     1       9.164  -1.978  -0.059  0.00  0.00    -0.481 OA
ATOM     34  H   UNL     1       9.711  -2.576  -0.612  0.00  0.00    +0.295 HD
ENDBRANCH  30   3
ENDBRANCH  25  30
ENDBRANCH  22  25
ENDBRANCH  20  22
ENDBRANCH  16   6
ENDBRANCH  11  16
TORSDOF 9
