REMARK  Name = 71692999
REMARK  8 active torsions:
REMARK  status: ('A' for Active; 'I' for Inactive)
REMARK    1  A    between atoms: N_1  and  C_12
REMARK    2  A    between atoms: C_4  and  C_8
REMARK    3  A    between atoms: C_6  and  C_12
REMARK    4  A    between atoms: C_7  and  C_11
REMARK    5  A    between atoms: C_8  and  C_13
REMARK    6  A    between atoms: C_8  and  C_14
REMARK    7  A    between atoms: C_9  and  C_15
REMARK    8  A    between atoms: C_11  and  C_16
REMARK                            x       y       z     vdW  Elec       q    Type
REMARK                         _______ _______ _______ _____ _____    ______ ____
ROOT
ATOM      4  C   UNL     1      -2.362  -1.046  -0.091  0.00  0.00    +0.000 C 
ATOM      5  C   UNL     1      -1.073  -0.256  -0.354  0.00  0.00    +0.012 C 
ATOM      6  C   UNL     1      -3.603  -0.172  -0.386  0.00  0.00    +0.029 C 
ATOM      7  C   UNL     1      -0.982   1.054   0.458  0.00  0.00    +0.022 C 
ATOM      9  C   UNL     1      -2.312   1.787   0.556  0.00  0.00    -0.073 C 
ATOM     10  C   UNL     1      -3.470   1.226   0.163  0.00  0.00    -0.023 C 
ATOM     15  C   UNL     1      -2.304   3.160   1.171  0.00  0.00    +0.039 C 
ENDROOT
BRANCH   4   8
ATOM      8  C   UNL     1      -2.393  -1.597   1.341  0.00  0.00    -0.013 C 
ATOM     13  C   UNL     1      -1.006  -2.073   1.758  0.00  0.00    +0.007 C 
ATOM     14  C   UNL     1      -3.410  -2.729   1.454  0.00  0.00    +0.007 C 
ENDBRANCH   4   8
BRANCH   7  11
ATOM     11  C   UNL     1       0.135   1.922  -0.136  0.00  0.00    +0.082 C 
BRANCH  11  16
ATOM      2  N   UNL     1       2.195   0.952   0.899  0.00  0.00    -0.342 N 
ATOM      3  N   UNL     1       1.975   0.649  -1.292  0.00  0.00    -0.232 NA
ATOM     16  C   UNL     1       1.432   1.169  -0.214  0.00  0.00    +0.109 A 
ATOM     17  C   UNL     1       3.305   0.245   0.513  0.00  0.00    +0.066 A 
ATOM     18  C   UNL     1       3.144   0.069  -0.858  0.00  0.00    +0.089 A 
ATOM     19  C   UNL     1       4.403  -0.240   1.225  0.00  0.00    +0.028 A 
ATOM     20  C   UNL     1       4.127  -0.631  -1.578  0.00  0.00    +0.030 A 
ATOM     21  C   UNL     1       5.372  -0.934   0.492  0.00  0.00    +0.002 A 
ATOM     22  C   UNL     1       5.238  -1.127  -0.884  0.00  0.00    +0.002 A 
ATOM     25  H   UNL     1       1.981   1.256   1.839  0.00  0.00    +0.167 HD
ENDBRANCH  11  16
ENDBRANCH   7  11
BRANCH   6  12
ATOM     12  C   UNL     1      -3.900  -0.097  -1.887  0.00  0.00    +0.085 C 
BRANCH  12   1
ATOM      1  N   UNL     1      -4.511  -1.331  -2.351  0.00  0.00    -0.329 NA
ATOM     23  H   UNL     1      -3.857  -2.106  -2.261  0.00  0.00    +0.118 HD
ATOM     24  H   UNL     1      -4.719  -1.253  -3.345  0.00  0.00    +0.118 HD
ENDBRANCH  12   1
ENDBRANCH   6  12
TORSDOF 5
