REMARK  Name = 45783416
REMARK  9 active torsions:
REMARK  status: ('A' for Active; 'I' for Inactive)
REMARK    1  A    between atoms: O_2  and  C_25
REMARK    2  A    between atoms: O_2  and  C_29
REMARK    3  A    between atoms: O_3  and  C_30
REMARK    4  A    between atoms: O_3  and  C_31
REMARK    5  A    between atoms: N_4  and  C_13
REMARK    6  A    between atoms: C_9  and  C_14
REMARK    7  A    between atoms: C_13  and  C_15
REMARK    8  A    between atoms: C_19  and  C_23
REMARK    9  A    between atoms: C_29  and  C_30
REMARK                            x       y       z     vdW  Elec       q    Type
REMARK                         _______ _______ _______ _____ _____    ______ ____
ROOT
ATOM      4  N   UNL     1      -3.077  -0.194   0.154  0.00  0.00    -0.287 NA
ATOM      9  C   UNL     1      -2.740  -0.152   1.591  0.00  0.00    +0.146 C 
ATOM     10  C   UNL     1      -3.195  -1.517   2.140  0.00  0.00    +0.030 C 
ATOM     11  C   UNL     1      -4.218  -1.100   0.023  0.00  0.00    +0.085 C 
ATOM     12  C   UNL     1      -3.829  -2.231   0.954  0.00  0.00    +0.017 C 
ENDROOT
BRANCH   9  14
ATOM      1  O   UNL     1      -0.953   0.726   3.009  0.00  0.00    -0.336 OA
ATOM      5  N   UNL     1      -0.238  -0.155   1.078  0.00  0.00    -0.190 NA
ATOM      7  N   UNL     1       0.440   0.866   3.010  0.00  0.00    -0.056 NA
ATOM     14  C   UNL     1      -1.270   0.115   1.837  0.00  0.00    +0.245 A 
ATOM     19  C   UNL     1       0.788   0.323   1.839  0.00  0.00    +0.207 A 
BRANCH  19  23
ATOM      8  N   UNL     1       3.875  -0.892   0.141  0.00  0.00    -0.221 NA
ATOM     23  C   UNL     1       2.152   0.242   1.401  0.00  0.00    +0.084 A 
ATOM     25  C   UNL     1       2.600  -0.777   0.577  0.00  0.00    +0.226 A 
ATOM     26  C   UNL     1       3.070   1.207   1.802  0.00  0.00    +0.018 A 
ATOM     27  C   UNL     1       4.390   1.122   1.374  0.00  0.00    +0.021 A 
ATOM     28  C   UNL     1       4.739   0.063   0.551  0.00  0.00    +0.114 A 
BRANCH  25   2
ATOM      2  O   UNL     1       1.733  -1.752   0.155  0.00  0.00    -0.474 OA
BRANCH   2  29
ATOM     29  C   UNL     1       2.270  -2.764  -0.688  0.00  0.00    +0.258 C 
BRANCH  29  30
ATOM     30  C   UNL     1       1.175  -3.756  -1.029  0.00  0.00    +0.200 C 
BRANCH  30   3
ATOM      3  O   UNL     1       0.114  -3.070  -1.683  0.00  0.00    -0.380 OA
ATOM     31  C   UNL     1      -0.934  -3.958  -2.046  0.00  0.00    +0.194 C 
ENDBRANCH  30   3
ENDBRANCH  29  30
ENDBRANCH   2  29
ENDBRANCH  25   2
ENDBRANCH  19  23
ENDBRANCH   9  14
BRANCH   4  13
ATOM     13  C   UNL     1      -3.353   1.121  -0.409  0.00  0.00    +0.122 C 
BRANCH  13  15
ATOM      6  N   UNL     1      -0.519   3.447  -0.721  0.00  0.00    -0.360 N 
ATOM     15  C   UNL     1      -2.087   1.876  -0.717  0.00  0.00    -0.008 A 
ATOM     16  C   UNL     1      -1.043   1.460  -1.589  0.00  0.00    +0.004 A 
ATOM     17  C   UNL     1      -1.736   3.101  -0.198  0.00  0.00    +0.088 A 
ATOM     18  C   UNL     1      -0.071   2.463  -1.574  0.00  0.00    +0.047 A 
ATOM     20  C   UNL     1      -0.830   0.322  -2.393  0.00  0.00    +0.010 A 
ATOM     21  C   UNL     1       1.107   2.385  -2.325  0.00  0.00    +0.026 A 
ATOM     22  C   UNL     1       0.344   0.231  -3.150  0.00  0.00    +0.001 A 
ATOM     24  C   UNL     1       1.296   1.248  -3.115  0.00  0.00    +0.002 A 
ATOM     32  H   UNL     1      -0.020   4.300  -0.511  0.00  0.00    +0.165 HD
ENDBRANCH  13  15
ENDBRANCH   4  13
TORSDOF 8
