REMARK  Name = 75536512
REMARK  11 active torsions:
REMARK  status: ('A' for Active; 'I' for Inactive)
REMARK    1  A    between atoms: O_2  and  C_7
REMARK    2  A    between atoms: N_4  and  C_6
REMARK    3  A    between atoms: N_4  and  C_13
REMARK    4  A    between atoms: N_4  and  C_14
REMARK    5  A    between atoms: N_5  and  C_10
REMARK    6  A    between atoms: C_8  and  C_10
REMARK    7  A    between atoms: C_11  and  C_12
REMARK    8  A    between atoms: C_11  and  C_16
REMARK    9  A    between atoms: C_11  and  C_17
REMARK   10  A    between atoms: C_11  and  C_18
REMARK   11  A    between atoms: C_12  and  C_15
REMARK                            x       y       z     vdW  Elec       q    Type
REMARK                         _______ _______ _______ _____ _____    ______ ____
ROOT
ATOM      1  O   UNL     1      -0.552   0.576  -0.189  0.00  0.00    -0.371 OA
ATOM      6  C   UNL     1      -2.873   0.459   0.300  0.00  0.00    +0.113 C 
ATOM      7  C   UNL     1      -2.341  -0.946   0.087  0.00  0.00    +0.164 C 
ATOM      8  C   UNL     1      -0.852  -0.734   0.321  0.00  0.00    +0.165 C 
ATOM      9  C   UNL     1      -1.786   1.295  -0.355  0.00  0.00    +0.181 C 
ENDROOT
BRANCH   6   4
ATOM      4  N   UNL     1      -4.186   0.680  -0.283  0.00  0.00    -0.301 NA
ATOM     13  C   UNL     1      -5.187  -0.190   0.342  0.00  0.00    +0.105 C 
ATOM     14  C   UNL     1      -4.586   2.084  -0.148  0.00  0.00    +0.105 C 
ENDBRANCH   6   4
BRANCH   7   2
ATOM      2  O   UNL     1      -2.890  -1.881   0.995  0.00  0.00    -0.388 OA
ATOM     20  H   UNL     1      -2.722  -1.564   1.899  0.00  0.00    +0.210 HD
ENDBRANCH   7   2
BRANCH   8  10
ATOM     10  C   UNL     1       0.018  -1.767  -0.373  0.00  0.00    +0.138 C 
BRANCH  10   5
ATOM      3  O   UNL     1       1.822  -0.135  -1.946  0.00  0.00    -0.276 OA
ATOM      5  N   UNL     1       1.422  -1.527  -0.129  0.00  0.00    -0.313 N 
ATOM     15  C   UNL     1       2.208  -0.727  -0.941  0.00  0.00    +0.214 C 
ATOM     19  H   UNL     1       1.837  -1.966   0.688  0.00  0.00    +0.149 HD
BRANCH  15  12
ATOM     12  C   UNL     1       3.652  -0.643  -0.473  0.00  0.00    +0.102 C 
BRANCH  12  11
ATOM     11  C   UNL     1       3.958   0.545   0.470  0.00  0.00    -0.029 C 
ATOM     16  C   UNL     1       5.440   0.560   0.879  0.00  0.00    +0.011 C 
ATOM     17  C   UNL     1       3.650   1.850  -0.290  0.00  0.00    +0.011 C 
ATOM     18  C   UNL     1       3.083   0.501   1.733  0.00  0.00    +0.011 C 
ENDBRANCH  12  11
ENDBRANCH  15  12
ENDBRANCH  10   5
ENDBRANCH   8  10
TORSDOF 6
