REMARK  Name = 45783493
REMARK  10 active torsions:
REMARK  status: ('A' for Active; 'I' for Inactive)
REMARK    1  A    between atoms: O_5  and  C_31
REMARK    2  A    between atoms: O_5  and  C_32
REMARK    3  A    between atoms: N_6  and  C_15
REMARK    4  A    between atoms: N_10  and  C_29
REMARK    5  A    between atoms: N_10  and  C_30
REMARK    6  A    between atoms: C_11  and  C_16
REMARK    7  A    between atoms: C_15  and  C_17
REMARK    8  A    between atoms: C_20  and  C_24
REMARK    9  A    between atoms: C_23  and  C_25
REMARK   10  A    between atoms: C_30  and  C_31
REMARK                            x       y       z     vdW  Elec       q    Type
REMARK                         _______ _______ _______ _____ _____    ______ ____
ROOT
ATOM      4  O   UNL     1      -2.568  -1.599   2.024  0.00  0.00    -0.336 OA
ATOM      7  N   UNL     1      -1.642  -1.333   0.002  0.00  0.00    -0.190 NA
ATOM      8  N   UNL     1      -1.182  -1.624   2.224  0.00  0.00    -0.056 NA
ATOM     16  C   UNL     1      -2.752  -1.425   0.689  0.00  0.00    +0.245 A 
ATOM     20  C   UNL     1      -0.705  -1.461   0.987  0.00  0.00    +0.204 A 
ENDROOT
BRANCH  20  24
ATOM      9  N   UNL     1       2.976  -1.526   1.507  0.00  0.00    -0.240 NA
ATOM     24  C   UNL     1       0.700  -1.422   0.700  0.00  0.00    +0.041 A 
ATOM     26  C   UNL     1       1.161  -1.252  -0.601  0.00  0.00    +0.016 A 
ATOM     27  C   UNL     1       1.639  -1.553   1.709  0.00  0.00    +0.124 A 
ATOM     28  C   UNL     1       2.529  -1.219  -0.849  0.00  0.00    +0.044 A 
ATOM     29  C   UNL     1       3.387  -1.359   0.230  0.00  0.00    +0.119 A 
BRANCH  29  10
ATOM     10  N   UNL     1       4.777  -1.324  -0.038  0.00  0.00    -0.327 N 
ATOM     33  H   UNL     1       5.394  -1.423   0.759  0.00  0.00    +0.148 HD
BRANCH  10  30
ATOM     30  C   UNL     1       5.304  -1.153  -1.354  0.00  0.00    +0.131 C 
BRANCH  30  31
ATOM     31  C   UNL     1       6.822  -1.193  -1.315  0.00  0.00    +0.178 C 
BRANCH  31   5
ATOM      5  O   UNL     1       7.304  -0.126  -0.508  0.00  0.00    -0.381 OA
ATOM     32  C   UNL     1       8.723  -0.119  -0.446  0.00  0.00    +0.194 C 
ENDBRANCH  31   5
ENDBRANCH  30  31
ENDBRANCH  10  30
ENDBRANCH  29  10
ENDBRANCH  20  24
BRANCH  16  11
ATOM      6  N   UNL     1      -4.337  -0.569  -1.028  0.00  0.00    -0.287 NA
ATOM     11  C   UNL     1      -4.187  -1.363   0.208  0.00  0.00    +0.146 C 
ATOM     12  C   UNL     1      -4.756  -2.749  -0.146  0.00  0.00    +0.030 C 
ATOM     13  C   UNL     1      -5.256  -2.620  -1.577  0.00  0.00    +0.017 C 
ATOM     14  C   UNL     1      -5.483  -1.131  -1.743  0.00  0.00    +0.085 C 
BRANCH   6  15
ATOM     15  C   UNL     1      -4.493   0.858  -0.779  0.00  0.00    +0.120 C 
BRANCH  15  17
ATOM     17  C   UNL     1      -3.173   1.526  -0.498  0.00  0.00    -0.033 A 
ATOM     18  C   UNL     1      -2.974   2.197   0.708  0.00  0.00    +0.005 A 
ATOM     19  C   UNL     1      -2.149   1.472  -1.444  0.00  0.00    +0.005 A 
ATOM     21  C   UNL     1      -1.752   2.816   0.969  0.00  0.00    +0.012 A 
ATOM     22  C   UNL     1      -0.926   2.090  -1.183  0.00  0.00    +0.012 A 
ATOM     23  C   UNL     1      -0.727   2.762   0.023  0.00  0.00    +0.055 A 
BRANCH  23  25
ATOM      1  F   UNL     1       1.640   2.558   0.298  0.00  0.00    -0.166 F 
ATOM      2  F   UNL     1       0.612   4.029   1.525  0.00  0.00    -0.166 F 
ATOM      3  F   UNL     1       0.909   4.392  -0.598  0.00  0.00    -0.166 F 
ATOM     25  C   UNL     1       0.581   3.420   0.304  0.00  0.00    +0.417 C 
ENDBRANCH  23  25
ENDBRANCH  15  17
ENDBRANCH   6  15
ENDBRANCH  16  11
TORSDOF 9
