REMARK  Name = 11943308
REMARK  6 active torsions:
REMARK  status: ('A' for Active; 'I' for Inactive)
REMARK    1  A    between atoms: N_6  and  C_16
REMARK    2  A    between atoms: N_7  and  C_19
REMARK    3  A    between atoms: C_9  and  C_15
REMARK    4  A    between atoms: C_10  and  C_16
REMARK    5  A    between atoms: C_15  and  C_17
REMARK    6  A    between atoms: C_22  and  C_25
REMARK                            x       y       z     vdW  Elec       q    Type
REMARK                         _______ _______ _______ _____ _____    ______ ____
ROOT
ATOM      4  O   UNL     1      -0.736  -0.711   0.915  0.00  0.00    -0.253 OA
ATOM      6  N   UNL     1       0.875   0.937   0.720  0.00  0.00    -0.298 N 
ATOM      7  N   UNL     1      -1.302   1.428   0.131  0.00  0.00    -0.269 N 
ATOM     18  C   UNL     1      -0.437   0.442   0.614  0.00  0.00    +0.304 C 
ATOM     26  H   UNL     1       1.048   1.901   0.449  0.00  0.00    +0.150 HD
ATOM     27  H   UNL     1      -0.889   2.335  -0.072  0.00  0.00    +0.156 HD
ENDROOT
BRANCH   7  19
ATOM     19  C   UNL     1      -2.691   1.320  -0.113  0.00  0.00    +0.035 A 
ATOM     20  C   UNL     1      -3.334   0.119   0.138  0.00  0.00    +0.035 A 
ATOM     21  C   UNL     1      -3.381   2.420  -0.596  0.00  0.00    +0.023 A 
ATOM     22  C   UNL     1      -4.704   0.014  -0.103  0.00  0.00    +0.057 A 
ATOM     23  C   UNL     1      -4.751   2.316  -0.837  0.00  0.00    +0.002 A 
ATOM     24  C   UNL     1      -5.412   1.113  -0.590  0.00  0.00    +0.012 A 
BRANCH  22  25
ATOM      1  F   UNL     1      -6.747  -1.229  -0.121  0.00  0.00    -0.166 F 
ATOM      2  F   UNL     1      -4.928  -2.321  -0.569  0.00  0.00    -0.166 F 
ATOM      3  F   UNL     1      -5.324  -1.662   1.465  0.00  0.00    -0.166 F 
ATOM     25  C   UNL     1      -5.411  -1.272   0.160  0.00  0.00    +0.417 C 
ENDBRANCH  22  25
ENDBRANCH   7  19
BRANCH   6  16
ATOM     16  C   UNL     1       1.980   0.158   1.186  0.00  0.00    +0.124 C 
BRANCH  16  10
ATOM      5  N   UNL     1       3.741  -1.485   0.483  0.00  0.00    -0.298 NA
ATOM      8  C   UNL     1       4.622   0.002  -1.461  0.00  0.00    -0.004 C 
ATOM      9  C   UNL     1       5.572   0.066  -0.244  0.00  0.00    +0.006 C 
ATOM     10  C   UNL     1       2.670  -0.561   0.024  0.00  0.00    +0.074 C 
ATOM     11  C   UNL     1       3.209   0.435  -1.027  0.00  0.00    +0.024 C 
ATOM     12  C   UNL     1       4.930  -0.716   0.924  0.00  0.00    +0.088 C 
ATOM     13  C   UNL     1       4.535  -1.476  -1.885  0.00  0.00    +0.019 C 
ATOM     14  C   UNL     1       4.139  -2.331  -0.668  0.00  0.00    +0.085 C 
BRANCH   9  15
ATOM     15  C   UNL     1       5.935   1.492   0.164  0.00  0.00    +0.002 C 
ATOM     17  C   UNL     1       6.948   1.504   1.292  0.00  0.00    +0.004 C 
ENDBRANCH   9  15
ENDBRANCH  16  10
ENDBRANCH   6  16
TORSDOF 5
