REMARK  Name = 11883077
REMARK  9 active torsions:
REMARK  status: ('A' for Active; 'I' for Inactive)
REMARK    1  A    between atoms: O_2  and  C_15
REMARK    2  A    between atoms: O_3  and  C_20
REMARK    3  A    between atoms: N_8  and  C_26
REMARK    4  A    between atoms: C_10  and  C_18
REMARK    5  A    between atoms: C_12  and  C_20
REMARK    6  A    between atoms: C_12  and  C_21
REMARK    7  A    between atoms: C_13  and  C_23
REMARK    8  A    between atoms: C_23  and  C_24
REMARK    9  A    between atoms: C_32  and  C_33
REMARK                            x       y       z     vdW  Elec       q    Type
REMARK                         _______ _______ _______ _____ _____    ______ ____
ROOT
ATOM      1  S   UNL     1      -0.202  -3.216  -0.318  0.00  0.00    -0.057 S 
ATOM      5  O   UNL     1       3.600  -0.687   0.399  0.00  0.00    -0.266 OA
ATOM      7  N   UNL     1       0.697  -0.838   0.160  0.00  0.00    -0.229 NA
ATOM      9  N   UNL     1       2.331  -2.600  -0.028  0.00  0.00    -0.258 N 
ATOM     10  C   UNL     1      -2.902   0.471  -0.285  0.00  0.00    -0.019 C 
ATOM     11  C   UNL     1      -3.545  -0.882   0.255  0.00  0.00    +0.011 C 
ATOM     12  C   UNL     1      -5.117  -1.001   0.198  0.00  0.00    +0.021 C 
ATOM     13  C   UNL     1      -1.403   0.556   0.260  0.00  0.00    +0.054 C 
ATOM     14  C   UNL     1      -3.696   1.679   0.277  0.00  0.00    +0.010 C 
ATOM     15  C   UNL     1      -5.750   0.306   0.753  0.00  0.00    +0.123 C 
ATOM     16  C   UNL     1      -2.801  -2.129  -0.306  0.00  0.00    +0.049 C 
ATOM     17  C   UNL     1      -5.203   1.567   0.092  0.00  0.00    +0.032 C 
ATOM     18  C   UNL     1      -2.894   0.557  -1.831  0.00  0.00    +0.012 C 
ATOM     19  C   UNL     1      -0.679  -0.751   0.064  0.00  0.00    +0.058 A 
ATOM     21  C   UNL     1      -5.571  -2.164   1.125  0.00  0.00    +0.016 C 
ATOM     22  C   UNL     1      -1.327  -1.947  -0.171  0.00  0.00    +0.015 A 
ATOM     25  C   UNL     1       1.061  -2.088  -0.031  0.00  0.00    +0.165 A 
ATOM     32  C   UNL     1       3.537  -1.895   0.184  0.00  0.00    +0.285 C 
ATOM     40  H   UNL     1       2.390  -3.600  -0.204  0.00  0.00    +0.157 HD
ENDROOT
BRANCH  32  33
ATOM      6  O   UNL     1       4.625  -4.031  -0.197  0.00  0.00    -0.458 OA
ATOM     33  C   UNL     1       4.761  -2.709   0.084  0.00  0.00    +0.189 A 
ATOM     34  C   UNL     1       6.089  -2.379   0.225  0.00  0.00    +0.054 A 
ATOM     35  C   UNL     1       6.816  -3.576   0.018  0.00  0.00    +0.042 A 
ATOM     36  C   UNL     1       5.880  -4.552  -0.235  0.00  0.00    +0.196 A 
ENDBRANCH  32  33
BRANCH  15   2
ATOM      2  O   UNL     1      -7.168   0.284   0.596  0.00  0.00    -0.391 OA
ATOM     37  H   UNL     1      -7.522   1.096   0.997  0.00  0.00    +0.210 HD
ENDBRANCH  15   2
BRANCH  12  20
ATOM     20  C   UNL     1      -5.684  -1.337  -1.199  0.00  0.00    +0.165 C 
BRANCH  20   3
ATOM      3  O   UNL     1      -7.087  -1.420  -1.087  0.00  0.00    -0.394 OA
ATOM     38  H   UNL     1      -7.435  -1.642  -1.967  0.00  0.00    +0.209 HD
ENDBRANCH  20   3
ENDBRANCH  12  20
BRANCH  13  23
ATOM     23  C   UNL     1      -0.590   1.736  -0.291  0.00  0.00    +0.106 C 
BRANCH  23  24
ATOM      4  O   UNL     1       0.714   1.626   1.745  0.00  0.00    -0.276 OA
ATOM      8  N   UNL     1       1.235   3.218   0.133  0.00  0.00    -0.312 N 
ATOM     24  C   UNL     1       0.508   2.159   0.657  0.00  0.00    +0.214 C 
ATOM     39  H   UNL     1       1.014   3.543  -0.803  0.00  0.00    +0.149 HD
BRANCH   8  26
ATOM     26  C   UNL     1       2.347   3.832   0.824  0.00  0.00    +0.073 C 
ATOM     27  C   UNL     1       3.659   3.105   0.511  0.00  0.00    +0.022 C 
ATOM     28  C   UNL     1       2.446   5.324   0.492  0.00  0.00    +0.022 C 
ATOM     29  C   UNL     1       4.143   3.359  -0.916  0.00  0.00    +0.002 C 
ATOM     30  C   UNL     1       2.931   5.575  -0.936  0.00  0.00    +0.002 C 
ATOM     31  C   UNL     1       4.243   4.851  -1.220  0.00  0.00    +0.000 C 
ENDBRANCH   8  26
ENDBRANCH  23  24
ENDBRANCH  13  23
TORSDOF 7
