REMARK  Name = 45361373
REMARK  13 active torsions:
REMARK  status: ('A' for Active; 'I' for Inactive)
REMARK    1  A    between atoms: O_1  and  C_12
REMARK    2  A    between atoms: O_5  and  C_34
REMARK    3  A    between atoms: O_5  and  C_37
REMARK    4  A    between atoms: N_6  and  C_16
REMARK    5  A    between atoms: N_7  and  C_26
REMARK    6  A    between atoms: N_8  and  C_27
REMARK    7  A    between atoms: C_9  and  C_19
REMARK    8  A    between atoms: C_11  and  C_21
REMARK    9  A    between atoms: C_15  and  C_20
REMARK   10  A    between atoms: C_20  and  C_22
REMARK   11  A    between atoms: C_20  and  C_23
REMARK   12  A    between atoms: C_24  and  C_25
REMARK   13  A    between atoms: C_26  and  C_27
REMARK                            x       y       z     vdW  Elec       q    Type
REMARK                         _______ _______ _______ _____ _____    ______ ____
ROOT
ATOM      9  C   UNL     1       0.178  -0.273  -1.697  0.00  0.00    -0.027 C 
ATOM     10  C   UNL     1       0.364  -0.468  -0.155  0.00  0.00    +0.028 C 
ATOM     11  C   UNL     1       1.878  -0.689   0.202  0.00  0.00    +0.012 C 
ATOM     12  C   UNL     1      -0.617  -1.540   0.400  0.00  0.00    +0.122 C 
ATOM     13  C   UNL     1      -1.303   0.055  -2.000  0.00  0.00    +0.007 C 
ATOM     14  C   UNL     1       1.031   0.931  -2.159  0.00  0.00    +0.009 C 
ATOM     15  C   UNL     1      -2.086  -1.263   0.005  0.00  0.00    +0.029 C 
ATOM     16  C   UNL     1       2.736   0.492  -0.334  0.00  0.00    +0.076 C 
ATOM     17  C   UNL     1      -2.264  -1.012  -1.493  0.00  0.00    +0.007 C 
ATOM     18  C   UNL     1       2.506   0.785  -1.817  0.00  0.00    +0.023 C 
ATOM     19  C   UNL     1       0.587  -1.529  -2.508  0.00  0.00    +0.011 C 
ATOM     21  C   UNL     1       2.137  -0.859   1.708  0.00  0.00    +0.010 C 
ENDROOT
BRANCH  16   6
ATOM      3  O   UNL     1       4.737   2.489   0.164  0.00  0.00    -0.270 OA
ATOM      6  N   UNL     1       4.151   0.265  -0.125  0.00  0.00    -0.308 N 
ATOM     24  C   UNL     1       5.040   1.300   0.109  0.00  0.00    +0.244 C 
ATOM     38  H   UNL     1       4.489  -0.680  -0.271  0.00  0.00    +0.149 HD
BRANCH  24  25
ATOM     25  C   UNL     1       6.462   0.904   0.277  0.00  0.00    +0.037 A 
ATOM     28  C   UNL     1       7.478   1.804  -0.043  0.00  0.00    +0.016 A 
ATOM     29  C   UNL     1       6.780  -0.368   0.752  0.00  0.00    +0.016 A 
ATOM     30  C   UNL     1       8.814   1.431   0.113  0.00  0.00    +0.046 A 
ATOM     31  C   UNL     1       8.115  -0.741   0.908  0.00  0.00    +0.046 A 
ATOM     34  C   UNL     1       9.132   0.159   0.588  0.00  0.00    +0.120 A 
BRANCH  34   5
ATOM      5  O   UNL     1      10.435  -0.205   0.741  0.00  0.00    -0.495 OA
ATOM     37  C   UNL     1      11.424   0.764   0.395  0.00  0.00    +0.277 C 
ENDBRANCH  34   5
ENDBRANCH  24  25
ENDBRANCH  16   6
BRANCH  12   1
ATOM      1  O   UNL     1      -0.571  -1.535   1.828  0.00  0.00    -0.391 OA
ATOM     39  H   UNL     1      -0.830  -0.650   2.136  0.00  0.00    +0.210 HD
ENDBRANCH  12   1
BRANCH  15  20
ATOM     20  C   UNL     1      -3.018  -2.397   0.449  0.00  0.00    +0.077 C 
ATOM     22  C   UNL     1      -2.586  -3.712  -0.190  0.00  0.00    +0.017 C 
BRANCH  20  23
ATOM      2  O   UNL     1      -4.980  -2.383  -0.972  0.00  0.00    -0.276 OA
ATOM      7  N   UNL     1      -5.100  -1.337   1.095  0.00  0.00    -0.314 N 
ATOM     23  C   UNL     1      -4.461  -2.053   0.093  0.00  0.00    +0.216 C 
ATOM     40  H   UNL     1      -4.588  -1.088   1.936  0.00  0.00    +0.149 HD
BRANCH   7  26
ATOM     26  C   UNL     1      -6.471  -0.895   0.987  0.00  0.00    +0.119 C 
BRANCH  26  27
ATOM     27  C   UNL     1      -6.557   0.487   0.357  0.00  0.00    +0.103 C 
BRANCH  27   8
ATOM      4  O   UNL     1     -10.010   2.867   0.509  0.00  0.00    -0.377 OA
ATOM      8  N   UNL     1      -7.951   0.918   0.267  0.00  0.00    -0.297 NA
ATOM     32  C   UNL     1      -8.099   2.005  -0.711  0.00  0.00    +0.112 C 
ATOM     33  C   UNL     1      -8.449   1.350   1.580  0.00  0.00    +0.112 C 
ATOM     35  C   UNL     1      -9.558   2.446  -0.778  0.00  0.00    +0.175 C 
ATOM     36  C   UNL     1      -9.901   1.806   1.458  0.00  0.00    +0.175 C 
ENDBRANCH  27   8
ENDBRANCH  26  27
ENDBRANCH   7  26
ENDBRANCH  20  23
ENDBRANCH  15  20
TORSDOF 9
