REMARK  Name = 44716360
REMARK  11 active torsions:
REMARK  status: ('A' for Active; 'I' for Inactive)
REMARK    1  A    between atoms: O_1  and  C_26
REMARK    2  A    between atoms: O_1  and  C_32
REMARK    3  A    between atoms: O_2  and  C_28
REMARK    4  A    between atoms: O_2  and  C_33
REMARK    5  A    between atoms: N_4  and  C_20
REMARK    6  A    between atoms: N_5  and  C_15
REMARK    7  A    between atoms: N_5  and  C_19
REMARK    8  A    between atoms: C_9  and  C_16
REMARK    9  A    between atoms: C_10  and  C_15
REMARK   10  A    between atoms: C_18  and  C_21
REMARK   11  A    between atoms: C_19  and  C_22
REMARK                            x       y       z     vdW  Elec       q    Type
REMARK                         _______ _______ _______ _____ _____    ______ ____
ROOT
ATOM      3  N   UNL     1       2.709   3.486   0.589  0.00  0.00    -0.298 NA
ATOM      8  C   UNL     1       1.212   3.138  -1.513  0.00  0.00    +0.002 C 
ATOM      9  C   UNL     1       0.341   3.502  -0.279  0.00  0.00    +0.055 C 
ATOM     10  C   UNL     1       3.055   2.202  -0.074  0.00  0.00    +0.071 C 
ATOM     11  C   UNL     1       2.045   1.878  -1.196  0.00  0.00    +0.024 C 
ATOM     12  C   UNL     1       2.207   4.301  -1.714  0.00  0.00    +0.019 C 
ATOM     13  C   UNL     1       1.274   3.494   0.966  0.00  0.00    +0.094 C 
ATOM     14  C   UNL     1       2.937   4.578  -0.388  0.00  0.00    +0.085 C 
ENDROOT
BRANCH   9  16
ATOM      4  N   UNL     1      -2.043   3.246   0.553  0.00  0.00    -0.270 N 
ATOM      6  N   UNL     1      -3.069   2.385   0.666  0.00  0.00    -0.171 NA
ATOM     16  C   UNL     1      -0.940   2.713  -0.046  0.00  0.00    +0.044 A 
ATOM     17  C   UNL     1      -1.266   1.413  -0.344  0.00  0.00    +0.053 A 
ATOM     18  C   UNL     1      -2.589   1.267   0.116  0.00  0.00    +0.093 A 
ATOM     20  C   UNL     1      -2.194   4.593   1.053  0.00  0.00    +0.172 C 
BRANCH  18  21
ATOM     21  C   UNL     1      -3.401   0.081   0.042  0.00  0.00    +0.006 A 
ATOM     23  C   UNL     1      -2.801  -1.178   0.078  0.00  0.00    +0.059 A 
ATOM     24  C   UNL     1      -4.787   0.190  -0.066  0.00  0.00    +0.014 A 
ATOM     26  C   UNL     1      -3.588  -2.328   0.006  0.00  0.00    +0.162 A 
ATOM     27  C   UNL     1      -5.574  -0.960  -0.139  0.00  0.00    +0.050 A 
ATOM     28  C   UNL     1      -4.974  -2.219  -0.102  0.00  0.00    +0.162 A 
BRANCH  26   1
ATOM      1  O   UNL     1      -2.991  -3.552   0.043  0.00  0.00    -0.491 OA
ATOM     32  C   UNL     1      -1.569  -3.576   0.155  0.00  0.00    +0.277 C 
ENDBRANCH  26   1
BRANCH  28   2
ATOM      2  O   UNL     1      -5.753  -3.334  -0.173  0.00  0.00    -0.491 OA
ATOM     33  C   UNL     1      -7.161  -3.135  -0.282  0.00  0.00    +0.277 C 
ENDBRANCH  28   2
ENDBRANCH  18  21
ENDBRANCH   9  16
BRANCH  10  15
ATOM     15  C   UNL     1       3.189   1.048   0.923  0.00  0.00    +0.100 C 
BRANCH  15   5
ATOM      5  N   UNL     1       3.669  -0.153   0.261  0.00  0.00    -0.309 NA
ATOM     34  H   UNL     1       4.576   0.033  -0.167  0.00  0.00    +0.122 HD
BRANCH   5  19
ATOM     19  C   UNL     1       3.789  -1.258   1.204  0.00  0.00    +0.136 C 
BRANCH  19  22
ATOM      7  N   UNL     1       5.565  -2.854   0.735  0.00  0.00    -0.259 NA
ATOM     22  C   UNL     1       4.271  -2.517   0.534  0.00  0.00    +0.055 A 
ATOM     25  C   UNL     1       3.389  -3.256  -0.238  0.00  0.00    +0.024 A 
ATOM     29  C   UNL     1       3.865  -4.414  -0.843  0.00  0.00    +0.003 A 
ATOM     30  C   UNL     1       5.992  -3.986   0.132  0.00  0.00    +0.111 A 
ATOM     31  C   UNL     1       5.190  -4.793  -0.659  0.00  0.00    +0.020 A 
ENDBRANCH  19  22
ENDBRANCH   5  19
ENDBRANCH  15   5
ENDBRANCH  10  15
TORSDOF 8
