REMARK  Name = 44716317
REMARK  7 active torsions:
REMARK  status: ('A' for Active; 'I' for Inactive)
REMARK    1  A    between atoms: N_4  and  C_15
REMARK    2  A    between atoms: N_5  and  C_18
REMARK    3  A    between atoms: C_9  and  C_15
REMARK    4  A    between atoms: C_10  and  C_16
REMARK    5  A    between atoms: C_18  and  C_20
REMARK    6  A    between atoms: C_19  and  C_21
REMARK    7  A    between atoms: C_31  and  C_32
REMARK                            x       y       z     vdW  Elec       q    Type
REMARK                         _______ _______ _______ _____ _____    ______ ____
ROOT
ATOM      3  N   UNL     1       4.360   2.538  -0.944  0.00  0.00    -0.297 NA
ATOM      8  C   UNL     1       3.949   2.421   1.623  0.00  0.00    +0.005 C 
ATOM      9  C   UNL     1       2.902   2.617  -0.660  0.00  0.00    +0.078 C 
ATOM     10  C   UNL     1       4.833   1.253   1.146  0.00  0.00    +0.092 C 
ATOM     11  C   UNL     1       2.619   2.396   0.843  0.00  0.00    +0.025 C 
ATOM     12  C   UNL     1       4.681   3.719   1.238  0.00  0.00    +0.020 C 
ATOM     13  C   UNL     1       4.925   1.283  -0.390  0.00  0.00    +0.097 C 
ATOM     14  C   UNL     1       5.019   3.682  -0.265  0.00  0.00    +0.085 C 
ENDROOT
BRANCH  10  16
ATOM      2  O   UNL     1       3.299  -0.155   2.315  0.00  0.00    -0.275 OA
ATOM      5  N   UNL     1       5.134  -1.121   1.258  0.00  0.00    -0.311 N 
ATOM     16  C   UNL     1       4.319  -0.068   1.638  0.00  0.00    +0.218 C 
ATOM     38  H   UNL     1       5.960  -0.936   0.696  0.00  0.00    +0.149 HD
BRANCH   5  18
ATOM     18  C   UNL     1       4.872  -2.495   1.623  0.00  0.00    +0.139 C 
BRANCH  18  20
ATOM      1  F   UNL     1       1.661  -5.116  -2.187  0.00  0.00    -0.205 F 
ATOM     20  C   UNL     1       4.016  -3.194   0.607  0.00  0.00    -0.030 A 
ATOM     22  C   UNL     1       2.627  -3.171   0.732  0.00  0.00    +0.008 A 
ATOM     23  C   UNL     1       4.610  -3.866  -0.461  0.00  0.00    +0.008 A 
ATOM     26  C   UNL     1       1.831  -3.820  -0.212  0.00  0.00    +0.038 A 
ATOM     27  C   UNL     1       3.814  -4.516  -1.405  0.00  0.00    +0.038 A 
ATOM     30  C   UNL     1       2.425  -4.493  -1.280  0.00  0.00    +0.123 A 
ENDBRANCH  18  20
ENDBRANCH   5  18
ENDBRANCH  10  16
BRANCH   9  15
ATOM     15  C   UNL     1       2.084   1.667  -1.538  0.00  0.00    +0.164 C 
BRANCH  15   4
ATOM      4  N   UNL     1       0.608   1.892  -1.367  0.00  0.00    -0.250 N 
ATOM      6  N   UNL     1       0.064   3.093  -1.619  0.00  0.00    -0.065 NA
ATOM      7  N   UNL     1      -1.240   2.993  -1.383  0.00  0.00    -0.130 NA
ATOM     17  C   UNL     1      -0.329   0.991  -0.964  0.00  0.00    +0.138 A 
ATOM     19  C   UNL     1      -1.497   1.711  -0.981  0.00  0.00    +0.113 A 
BRANCH  19  21
ATOM     21  C   UNL     1      -2.788   1.210  -0.635  0.00  0.00    +0.004 A 
ATOM     24  C   UNL     1      -2.910   0.189   0.307  0.00  0.00    +0.011 A 
ATOM     25  C   UNL     1      -3.928   1.743  -1.238  0.00  0.00    +0.011 A 
ATOM     28  C   UNL     1      -4.172  -0.300   0.646  0.00  0.00    +0.009 A 
ATOM     29  C   UNL     1      -5.189   1.254  -0.900  0.00  0.00    +0.009 A 
ATOM     31  C   UNL     1      -5.311   0.233   0.043  0.00  0.00    -0.018 A 
BRANCH  31  32
ATOM     32  C   UNL     1      -6.620  -0.273   0.395  0.00  0.00    -0.018 A 
ATOM     33  C   UNL     1      -7.169  -1.341  -0.315  0.00  0.00    +0.008 A 
ATOM     34  C   UNL     1      -7.332   0.306   1.445  0.00  0.00    +0.008 A 
ATOM     35  C   UNL     1      -8.431  -1.829   0.025  0.00  0.00    +0.001 A 
ATOM     36  C   UNL     1      -8.594  -0.183   1.786  0.00  0.00    +0.001 A 
ATOM     37  C   UNL     1      -9.143  -1.250   1.075  0.00  0.00    +0.000 A 
ENDBRANCH  31  32
ENDBRANCH  19  21
ENDBRANCH  15   4
ENDBRANCH   9  15
TORSDOF 7
