REMARK  Name = 11884130
REMARK  8 active torsions:
REMARK  status: ('A' for Active; 'I' for Inactive)
REMARK    1  A    between atoms: O_3  and  C_13
REMARK    2  A    between atoms: O_3  and  C_17
REMARK    3  A    between atoms: O_6  and  C_25
REMARK    4  A    between atoms: O_6  and  C_26
REMARK    5  A    between atoms: N_7  and  C_12
REMARK    6  A    between atoms: N_8  and  C_18
REMARK    7  A    between atoms: N_9  and  C_19
REMARK    8  A    between atoms: C_19  and  C_22
REMARK                            x       y       z     vdW  Elec       q    Type
REMARK                         _______ _______ _______ _____ _____    ______ ____
ROOT
ATOM      4  O   UNL     1       0.594  -1.963  -0.106  0.00  0.00    -0.252 OA
ATOM      7  N   UNL     1      -1.189  -1.014   1.019  0.00  0.00    -0.292 N 
ATOM      8  N   UNL     1       0.922  -0.191   1.399  0.00  0.00    -0.269 N 
ATOM     16  C   UNL     1       0.168  -1.133   0.694  0.00  0.00    +0.304 C 
ATOM     32  H   UNL     1      -1.471  -0.259   1.638  0.00  0.00    +0.151 HD
ATOM     33  H   UNL     1       0.412   0.425   2.026  0.00  0.00    +0.156 HD
ENDROOT
BRANCH   7  12
ATOM      1  O   UNL     1      -4.315  -0.955   1.107  0.00  0.00    -0.368 OA
ATOM      2  O   UNL     1      -3.495  -2.186  -1.579  0.00  0.00    -0.368 OA
ATOM     10  C   UNL     1      -2.858  -1.193  -0.749  0.00  0.00    +0.173 C 
ATOM     11  C   UNL     1      -3.964  -0.348  -0.148  0.00  0.00    +0.192 C 
ATOM     12  C   UNL     1      -2.215  -1.853   0.448  0.00  0.00    +0.131 C 
ATOM     13  C   UNL     1      -5.071  -0.487  -1.165  0.00  0.00    +0.235 C 
ATOM     14  C   UNL     1      -3.389  -2.013   1.398  0.00  0.00    +0.185 C 
ATOM     15  C   UNL     1      -4.905  -1.918  -1.624  0.00  0.00    +0.207 C 
BRANCH  13   3
ATOM      3  O   UNL     1      -6.355  -0.245  -0.637  0.00  0.00    -0.442 OA
BRANCH   3  17
ATOM      5  O   UNL     1      -6.215   1.958  -1.272  0.00  0.00    -0.226 OA
ATOM      9  N   UNL     1      -8.095   1.133  -0.192  0.00  0.00    -0.281 N 
ATOM     17  C   UNL     1      -6.837   1.040  -0.747  0.00  0.00    +0.401 C 
ATOM     34  H   UNL     1      -8.500   0.297   0.218  0.00  0.00    +0.152 HD
BRANCH   9  19
ATOM     19  C   UNL     1      -8.866   2.355  -0.153  0.00  0.00    +0.104 C 
ATOM     22  C   UNL     1      -8.416   3.260   0.975  0.00  0.00    +0.024 C 
ENDBRANCH   9  19
ENDBRANCH   3  17
ENDBRANCH  13   3
ENDBRANCH   7  12
BRANCH   8  18
ATOM     18  C   UNL     1       2.321   0.012   1.351  0.00  0.00    +0.035 A 
ATOM     20  C   UNL     1       3.114  -0.783   0.523  0.00  0.00    +0.027 A 
ATOM     21  C   UNL     1       2.908   1.008   2.132  0.00  0.00    +0.027 A 
ATOM     23  C   UNL     1       4.493  -0.582   0.476  0.00  0.00    +0.048 A 
ATOM     24  C   UNL     1       4.288   1.208   2.086  0.00  0.00    +0.048 A 
ATOM     25  C   UNL     1       5.080   0.413   1.258  0.00  0.00    +0.129 A 
BRANCH  25   6
ATOM      6  O   UNL     1       6.426   0.607   1.214  0.00  0.00    -0.456 OA
BRANCH   6  26
ATOM     26  C   UNL     1       7.034   0.626  -0.031  0.00  0.00    +0.128 A 
ATOM     27  C   UNL     1       6.459   1.349  -1.076  0.00  0.00    +0.046 A 
ATOM     28  C   UNL     1       8.220  -0.078  -0.239  0.00  0.00    +0.046 A 
ATOM     29  C   UNL     1       7.070   1.368  -2.330  0.00  0.00    +0.004 A 
ATOM     30  C   UNL     1       8.831  -0.059  -1.493  0.00  0.00    +0.004 A 
ATOM     31  C   UNL     1       8.256   0.664  -2.538  0.00  0.00    +0.000 A 
ENDBRANCH   6  26
ENDBRANCH  25   6
ENDBRANCH   8  18
TORSDOF 7
