REMARK  Name = 56774212
REMARK  9 active torsions:
REMARK  status: ('A' for Active; 'I' for Inactive)
REMARK    1  A    between atoms: S_1  and  N_6
REMARK    2  A    between atoms: S_1  and  C_18
REMARK    3  A    between atoms: N_6  and  C_11
REMARK    4  A    between atoms: N_8  and  C_20
REMARK    5  A    between atoms: C_9  and  C_14
REMARK    6  A    between atoms: C_9  and  C_15
REMARK    7  A    between atoms: C_10  and  C_13
REMARK    8  A    between atoms: C_13  and  C_16
REMARK    9  A    between atoms: C_19  and  C_20
REMARK                            x       y       z     vdW  Elec       q    Type
REMARK                         _______ _______ _______ _____ _____    ______ ____
ROOT
ATOM     13  C   UNL     1      -0.908   2.264  -0.553  0.00  0.00    +0.063 C 
ENDROOT
BRANCH  13  10
ATOM      9  C   UNL     1      -3.187   1.528   0.533  0.00  0.00    -0.015 C 
ATOM     10  C   UNL     1      -1.664   1.323   0.396  0.00  0.00    +0.004 C 
ATOM     11  C   UNL     1      -3.312  -0.008   0.590  0.00  0.00    +0.082 C 
ATOM     12  C   UNL     1      -1.982  -0.069  -0.190  0.00  0.00    +0.025 C 
ATOM     14  C   UNL     1      -3.816   2.197  -0.669  0.00  0.00    +0.013 C 
ATOM     15  C   UNL     1      -3.652   2.210   1.806  0.00  0.00    +0.013 C 
BRANCH  11   6
ATOM      6  N   UNL     1      -4.497  -0.636  -0.092  0.00  0.00    -0.191 NA
ATOM     25  H   UNL     1      -5.377  -0.146   0.115  0.00  0.00    +0.148 HD
BRANCH   6   1
ATOM      1  S   UNL     1      -4.676  -2.311  -0.382  0.00  0.00    +0.027 S 
ATOM      2  O   UNL     1      -3.512  -2.810  -1.087  0.00  0.00    -0.158 OA
ATOM      3  O   UNL     1      -6.016  -2.551  -0.883  0.00  0.00    -0.158 OA
ATOM     18  C   UNL     1      -4.609  -2.922   1.285  0.00  0.00    +0.214 C 
ENDBRANCH   6   1
ENDBRANCH  11   6
ENDBRANCH  13  10
BRANCH  13  16
ATOM      4  O   UNL     1       2.559   2.381   0.295  0.00  0.00    -0.358 OA
ATOM      7  N   UNL     1       1.242   2.801   0.444  0.00  0.00    -0.083 NA
ATOM     16  C   UNL     1       0.547   2.078  -0.438  0.00  0.00    +0.084 A 
ATOM     17  C   UNL     1       1.363   1.194  -1.165  0.00  0.00    +0.072 A 
ATOM     19  C   UNL     1       2.618   1.424  -0.666  0.00  0.00    +0.151 A 
BRANCH  19  20
ATOM     20  C   UNL     1       3.978   0.851  -0.962  0.00  0.00    +0.161 C 
BRANCH  20   8
ATOM      5  O   UNL     1       5.687  -2.476   0.943  0.00  0.00    -0.377 OA
ATOM      8  N   UNL     1       4.148  -0.477  -0.376  0.00  0.00    -0.291 NA
ATOM     21  C   UNL     1       5.199  -1.227  -1.079  0.00  0.00    +0.113 C 
ATOM     22  C   UNL     1       4.470  -0.380   1.054  0.00  0.00    +0.113 C 
ATOM     23  C   UNL     1       5.366  -2.604  -0.443  0.00  0.00    +0.175 C 
ATOM     24  C   UNL     1       4.655  -1.777   1.640  0.00  0.00    +0.175 C 
ENDBRANCH  20   8
ENDBRANCH  19  20
ENDBRANCH  13  16
TORSDOF 6
