REMARK  Name = 45361006
REMARK  7 active torsions:
REMARK  status: ('A' for Active; 'I' for Inactive)
REMARK    1  A    between atoms: N_3  and  C_10
REMARK    2  A    between atoms: N_4  and  C_22
REMARK    3  A    between atoms: N_6  and  C_25
REMARK    4  A    between atoms: C_15  and  C_21
REMARK    5  A    between atoms: C_21  and  C_23
REMARK    6  A    between atoms: C_23  and  C_24
REMARK    7  A    between atoms: C_25  and  C_26
REMARK                            x       y       z     vdW  Elec       q    Type
REMARK                         _______ _______ _______ _____ _____    ______ ____
ROOT
ATOM      1  O   UNL     1      -3.350  -1.161   1.635  0.00  0.00    -0.274 OA
ATOM      3  N   UNL     1      -4.453   0.835   0.188  0.00  0.00    -0.287 NA
ATOM      4  N   UNL     1      -0.831   1.345   0.098  0.00  0.00    -0.296 NA
ATOM      5  N   UNL     1      -1.552  -1.445   0.249  0.00  0.00    -0.312 N 
ATOM      8  C   UNL     1      -2.202   1.492  -0.438  0.00  0.00    +0.084 C 
ATOM      9  C   UNL     1      -3.180   0.286  -0.314  0.00  0.00    +0.161 C 
ATOM     11  C   UNL     1      -3.010   2.628   0.216  0.00  0.00    +0.036 C 
ATOM     12  C   UNL     1      -4.446   2.265  -0.097  0.00  0.00    +0.087 C 
ATOM     15  C   UNL     1      -0.010   0.305  -0.585  0.00  0.00    +0.074 C 
ATOM     16  C   UNL     1      -2.724  -0.821   0.633  0.00  0.00    +0.232 C 
ATOM     19  C   UNL     1      -0.749  -1.015  -0.879  0.00  0.00    +0.123 C 
ATOM     22  C   UNL     1      -0.125   2.637   0.092  0.00  0.00    +0.105 C 
ATOM     31  H   UNL     1      -1.205  -2.207   0.824  0.00  0.00    +0.149 HD
ENDROOT
BRANCH   3  10
ATOM     10  C   UNL     1      -5.630   0.169  -0.367  0.00  0.00    +0.057 C 
ATOM     13  C   UNL     1      -5.585  -1.328  -0.038  0.00  0.00    +0.019 C 
ATOM     14  C   UNL     1      -6.904   0.818   0.183  0.00  0.00    +0.019 C 
ATOM     17  C   UNL     1      -6.839  -2.045  -0.537  0.00  0.00    +0.002 C 
ATOM     18  C   UNL     1      -8.156   0.099  -0.316  0.00  0.00    +0.002 C 
ATOM     20  C   UNL     1      -8.111  -1.394  -0.001  0.00  0.00    +0.000 C 
ENDBRANCH   3  10
BRANCH  15  21
ATOM     21  C   UNL     1       1.236  -0.038   0.257  0.00  0.00    +0.029 C 
BRANCH  21  23
ATOM     23  C   UNL     1       2.341  -0.593  -0.622  0.00  0.00    +0.097 C 
BRANCH  23  24
ATOM      2  O   UNL     1       3.657  -0.781   1.402  0.00  0.00    -0.276 OA
ATOM      6  N   UNL     1       4.589  -1.448  -0.617  0.00  0.00    -0.311 N 
ATOM     24  C   UNL     1       3.579  -0.940   0.186  0.00  0.00    +0.213 C 
ATOM     32  H   UNL     1       4.441  -1.527  -1.619  0.00  0.00    +0.149 HD
BRANCH   6  25
ATOM     25  C   UNL     1       5.869  -1.851  -0.084  0.00  0.00    +0.141 C 
BRANCH  25  26
ATOM      7  N   UNL     1       8.062   0.959   1.177  0.00  0.00    -0.263 NA
ATOM     26  C   UNL     1       6.856  -0.720  -0.076  0.00  0.00    -0.012 A 
ATOM     27  C   UNL     1       7.468  -0.295  -1.250  0.00  0.00    +0.008 A 
ATOM     28  C   UNL     1       7.184  -0.066   1.100  0.00  0.00    +0.115 A 
ATOM     29  C   UNL     1       8.377   0.757  -1.212  0.00  0.00    +0.020 A 
ATOM     30  C   UNL     1       8.637   1.345   0.015  0.00  0.00    +0.111 A 
ENDBRANCH  25  26
ENDBRANCH   6  25
ENDBRANCH  23  24
ENDBRANCH  21  23
ENDBRANCH  15  21
TORSDOF 6
