REMARK  Name = 45360937
REMARK  10 active torsions:
REMARK  status: ('A' for Active; 'I' for Inactive)
REMARK    1  A    between atoms: O_3  and  C_31
REMARK    2  A    between atoms: O_3  and  C_32
REMARK    3  A    between atoms: N_4  and  C_17
REMARK    4  A    between atoms: N_5  and  C_19
REMARK    5  A    between atoms: N_9  and  C_25
REMARK    6  A    between atoms: C_14  and  C_18
REMARK    7  A    between atoms: C_17  and  C_21
REMARK    8  A    between atoms: C_18  and  C_20
REMARK    9  A    between atoms: C_20  and  C_22
REMARK   10  A    between atoms: C_25  and  C_26
REMARK                            x       y       z     vdW  Elec       q    Type
REMARK                         _______ _______ _______ _____ _____    ______ ____
ROOT
ATOM      1  O   UNL     1       3.839  -1.645  -1.472  0.00  0.00    -0.274 OA
ATOM      4  N   UNL     1       4.957   0.243   0.102  0.00  0.00    -0.283 NA
ATOM      5  N   UNL     1       1.347   0.842   0.137  0.00  0.00    -0.296 NA
ATOM      6  N   UNL     1       2.001  -1.954  -0.144  0.00  0.00    -0.312 N 
ATOM     10  C   UNL     1       2.708   0.925   0.711  0.00  0.00    +0.084 C 
ATOM     11  C   UNL     1       3.658  -0.298   0.546  0.00  0.00    +0.161 C 
ATOM     12  C   UNL     1       3.560   2.072   0.136  0.00  0.00    +0.036 C 
ATOM     13  C   UNL     1       4.978   1.656   0.462  0.00  0.00    +0.087 C 
ATOM     14  C   UNL     1       0.485  -0.209   0.746  0.00  0.00    +0.074 C 
ATOM     15  C   UNL     1       3.197  -1.341  -0.468  0.00  0.00    +0.232 C 
ATOM     16  C   UNL     1       1.183  -1.562   0.986  0.00  0.00    +0.123 C 
ATOM     19  C   UNL     1       0.673   2.151   0.195  0.00  0.00    +0.105 C 
ATOM     33  H   UNL     1       1.649  -2.675  -0.766  0.00  0.00    +0.149 HD
ENDROOT
BRANCH   4  17
ATOM     17  C   UNL     1       6.099  -0.480   0.646  0.00  0.00    +0.159 C 
BRANCH  17  21
ATOM      7  N   UNL     1       7.844  -0.175  -1.121  0.00  0.00    -0.347 N 
ATOM      8  N   UNL     1       8.247   0.826   0.820  0.00  0.00    -0.239 NA
ATOM     21  C   UNL     1       7.403   0.074   0.149  0.00  0.00    +0.121 A 
ATOM     23  C   UNL     1       9.046   0.458  -1.268  0.00  0.00    +0.104 A 
ATOM     24  C   UNL     1       9.274   1.068  -0.058  0.00  0.00    +0.130 A 
ATOM     34  H   UNL     1       7.369  -0.726  -1.824  0.00  0.00    +0.167 HD
ENDBRANCH  17  21
ENDBRANCH   4  17
BRANCH  14  18
ATOM     18  C   UNL     1      -0.750  -0.475  -0.141  0.00  0.00    +0.029 C 
BRANCH  18  20
ATOM     20  C   UNL     1      -1.889  -1.047   0.682  0.00  0.00    +0.097 C 
BRANCH  20  22
ATOM      2  O   UNL     1      -3.160  -1.094  -1.378  0.00  0.00    -0.276 OA
ATOM      9  N   UNL     1      -4.157  -1.841   0.582  0.00  0.00    -0.311 N 
ATOM     22  C   UNL     1      -3.115  -1.318  -0.171  0.00  0.00    +0.213 C 
ATOM     35  H   UNL     1      -4.034  -1.976   1.581  0.00  0.00    +0.149 HD
BRANCH   9  25
ATOM     25  C   UNL     1      -5.433  -2.182  -0.001  0.00  0.00    +0.139 C 
BRANCH  25  26
ATOM     26  C   UNL     1      -6.391  -1.026   0.029  0.00  0.00    -0.030 A 
ATOM     27  C   UNL     1      -7.011  -0.664   1.225  0.00  0.00    +0.009 A 
ATOM     28  C   UNL     1      -6.661  -0.315  -1.140  0.00  0.00    +0.009 A 
ATOM     29  C   UNL     1      -7.901   0.410   1.252  0.00  0.00    +0.046 A 
ATOM     30  C   UNL     1      -7.551   0.759  -1.113  0.00  0.00    +0.046 A 
ATOM     31  C   UNL     1      -8.171   1.121   0.083  0.00  0.00    +0.120 A 
BRANCH  31   3
ATOM      3  O   UNL     1      -9.039   2.169   0.109  0.00  0.00    -0.495 OA
ATOM     32  C   UNL     1      -9.269   2.853  -1.122  0.00  0.00    +0.277 C 
ENDBRANCH  31   3
ENDBRANCH  25  26
ENDBRANCH   9  25
ENDBRANCH  20  22
ENDBRANCH  18  20
ENDBRANCH  14  18
TORSDOF 8
