REMARK  Name = 25389560
REMARK  9 active torsions:
REMARK  status: ('A' for Active; 'I' for Inactive)
REMARK    1  A    between atoms: O_1  and  C_17
REMARK    2  A    between atoms: O_1  and  C_22
REMARK    3  A    between atoms: N_6  and  C_20
REMARK    4  A    between atoms: N_8  and  C_26
REMARK    5  A    between atoms: C_10  and  C_16
REMARK    6  A    between atoms: C_11  and  C_17
REMARK    7  A    between atoms: C_19  and  C_21
REMARK    8  A    between atoms: C_31  and  C_32
REMARK    9  A    between atoms: C_32  and  C_33
REMARK                            x       y       z     vdW  Elec       q    Type
REMARK                         _______ _______ _______ _____ _____    ______ ____
ROOT
ATOM      5  N   UNL     1       2.408  -3.484   0.672  0.00  0.00    -0.296 NA
ATOM      9  C   UNL     1       3.289  -2.199  -1.415  0.00  0.00    +0.002 C 
ATOM     10  C   UNL     1       3.966  -1.665  -0.122  0.00  0.00    +0.055 C 
ATOM     11  C   UNL     1       1.265  -3.010  -0.153  0.00  0.00    +0.095 C 
ATOM     12  C   UNL     1       1.757  -2.074  -1.278  0.00  0.00    +0.026 C 
ATOM     13  C   UNL     1       3.615  -3.706  -1.499  0.00  0.00    +0.019 C 
ATOM     14  C   UNL     1       3.248  -2.332   1.086  0.00  0.00    +0.094 C 
ATOM     15  C   UNL     1       3.235  -4.381  -0.170  0.00  0.00    +0.085 C 
ENDROOT
BRANCH  10  16
ATOM      6  N   UNL     1       5.127   0.421   0.738  0.00  0.00    -0.270 N 
ATOM      7  N   UNL     1       5.066   1.763   0.772  0.00  0.00    -0.168 NA
ATOM     16  C   UNL     1       4.103  -0.159   0.048  0.00  0.00    +0.044 A 
ATOM     18  C   UNL     1       3.318   0.875  -0.400  0.00  0.00    +0.056 A 
ATOM     19  C   UNL     1       3.959   2.035   0.076  0.00  0.00    +0.128 A 
ATOM     20  C   UNL     1       6.219  -0.252   1.401  0.00  0.00    +0.172 C 
BRANCH  19  21
ATOM      2  O   UNL     1       2.385   3.754  -0.843  0.00  0.00    -0.461 OA
ATOM     21  C   UNL     1       3.500   3.418  -0.143  0.00  0.00    +0.155 A 
ATOM     23  C   UNL     1       4.134   4.545   0.326  0.00  0.00    +0.051 A 
ATOM     24  C   UNL     1       3.357   5.644  -0.114  0.00  0.00    +0.042 A 
ATOM     25  C   UNL     1       2.305   5.110  -0.820  0.00  0.00    +0.196 A 
ENDBRANCH  19  21
ENDBRANCH  10  16
BRANCH  11  17
ATOM     17  C   UNL     1       0.167  -2.360   0.691  0.00  0.00    +0.252 C 
BRANCH  17   1
ATOM      1  O   UNL     1      -0.919  -2.043  -0.158  0.00  0.00    -0.449 OA
BRANCH   1  22
ATOM      3  O   UNL     1      -2.064  -1.190   1.628  0.00  0.00    -0.226 OA
ATOM      8  N   UNL     1      -2.974  -1.202  -0.528  0.00  0.00    -0.251 N 
ATOM     22  C   UNL     1      -2.011  -1.445   0.431  0.00  0.00    +0.405 C 
ATOM     34  H   UNL     1      -2.745  -1.487  -1.478  0.00  0.00    +0.158 HD
BRANCH   8  26
ATOM     26  C   UNL     1      -4.244  -0.606  -0.356  0.00  0.00    +0.036 A 
ATOM     27  C   UNL     1      -4.650  -0.182   0.909  0.00  0.00    +0.024 A 
ATOM     28  C   UNL     1      -5.092  -0.442  -1.452  0.00  0.00    +0.024 A 
ATOM     29  C   UNL     1      -5.904   0.406   1.079  0.00  0.00    +0.013 A 
ATOM     30  C   UNL     1      -6.346   0.145  -1.282  0.00  0.00    +0.013 A 
ATOM     31  C   UNL     1      -6.752   0.570  -0.017  0.00  0.00    +0.017 A 
BRANCH  31  32
ATOM      4  O   UNL     1      -8.601   1.835  -0.752  0.00  0.00    -0.292 OA
ATOM     32  C   UNL     1      -8.059   1.180   0.161  0.00  0.00    +0.160 C 
ATOM     33  C   UNL     1      -8.804   1.031   1.483  0.00  0.00    +0.091 C 
ENDBRANCH  31  32
ENDBRANCH   8  26
ENDBRANCH   1  22
ENDBRANCH  17   1
ENDBRANCH  11  17
TORSDOF 7
