REMARK  Name = 40586229
REMARK  7 active torsions:
REMARK  status: ('A' for Active; 'I' for Inactive)
REMARK    1  A    between atoms: O_3  and  C_12
REMARK    2  A    between atoms: O_3  and  C_21
REMARK    3  A    between atoms: O_6  and  C_28
REMARK    4  A    between atoms: O_6  and  C_29
REMARK    5  A    between atoms: N_7  and  C_11
REMARK    6  A    between atoms: N_8  and  C_15
REMARK    7  A    between atoms: C_22  and  C_23
REMARK                            x       y       z     vdW  Elec       q    Type
REMARK                         _______ _______ _______ _____ _____    ______ ____
ROOT
ATOM      1  O   UNL     1       0.702   1.018   0.950  0.00  0.00    -0.368 OA
ATOM      2  O   UNL     1       0.375   3.516  -0.799  0.00  0.00    -0.368 OA
ATOM      9  C   UNL     1      -0.328   2.256  -0.791  0.00  0.00    +0.173 C 
ATOM     10  C   UNL     1       0.695   1.183  -0.478  0.00  0.00    +0.192 C 
ATOM     11  C   UNL     1      -1.280   2.201   0.381  0.00  0.00    +0.130 C 
ATOM     12  C   UNL     1       1.979   1.803  -0.975  0.00  0.00    +0.235 C 
ATOM     13  C   UNL     1      -0.364   1.792   1.522  0.00  0.00    +0.185 C 
ATOM     14  C   UNL     1       1.779   3.264  -0.641  0.00  0.00    +0.207 C 
ENDROOT
BRANCH  11   7
ATOM      5  O   UNL     1      -3.902   2.196   1.555  0.00  0.00    -0.270 OA
ATOM      7  N   UNL     1      -2.319   1.224   0.166  0.00  0.00    -0.304 N 
ATOM     22  C   UNL     1      -3.561   1.306   0.780  0.00  0.00    +0.244 C 
ATOM     30  H   UNL     1      -2.074   0.402  -0.377  0.00  0.00    +0.149 HD
BRANCH  22  23
ATOM     23  C   UNL     1      -4.512   0.206   0.475  0.00  0.00    +0.037 A 
ATOM     24  C   UNL     1      -5.500  -0.137   1.398  0.00  0.00    +0.016 A 
ATOM     25  C   UNL     1      -4.416  -0.484  -0.733  0.00  0.00    +0.016 A 
ATOM     26  C   UNL     1      -6.392  -1.171   1.113  0.00  0.00    +0.046 A 
ATOM     27  C   UNL     1      -5.308  -1.518  -1.018  0.00  0.00    +0.046 A 
ATOM     28  C   UNL     1      -6.295  -1.861  -0.096  0.00  0.00    +0.120 A 
BRANCH  28   6
ATOM      6  O   UNL     1      -7.165  -2.871  -0.373  0.00  0.00    -0.495 OA
ATOM     29  C   UNL     1      -7.010  -3.534  -1.627  0.00  0.00    +0.277 C 
ENDBRANCH  28   6
ENDBRANCH  22  23
ENDBRANCH  11   7
BRANCH  12   3
ATOM      3  O   UNL     1       3.134   1.272  -0.364  0.00  0.00    -0.442 OA
BRANCH   3  21
ATOM      4  O   UNL     1       3.352  -0.250  -2.070  0.00  0.00    -0.226 OA
ATOM      8  N   UNL     1       4.860  -0.192  -0.308  0.00  0.00    -0.278 N 
ATOM     21  C   UNL     1       3.751   0.227  -1.013  0.00  0.00    +0.401 C 
ATOM     31  H   UNL     1       5.049   0.264   0.579  0.00  0.00    +0.152 HD
BRANCH   8  15
ATOM     15  C   UNL     1       5.720  -1.274  -0.733  0.00  0.00    +0.076 C 
ATOM     16  C   UNL     1       7.169  -1.028  -0.300  0.00  0.00    +0.022 C 
ATOM     17  C   UNL     1       5.207  -2.622  -0.215  0.00  0.00    +0.022 C 
ATOM     18  C   UNL     1       7.366  -1.193   1.207  0.00  0.00    +0.002 C 
ATOM     19  C   UNL     1       5.406  -2.783   1.292  0.00  0.00    +0.002 C 
ATOM     20  C   UNL     1       6.857  -2.545   1.697  0.00  0.00    +0.000 C 
ENDBRANCH   8  15
ENDBRANCH   3  21
ENDBRANCH  12   3
TORSDOF 6
