REMARK  Name = 11882081
REMARK  11 active torsions:
REMARK  status: ('A' for Active; 'I' for Inactive)
REMARK    1  A    between atoms: S_1  and  C_36
REMARK    2  A    between atoms: S_1  and  C_39
REMARK    3  A    between atoms: N_7  and  C_12
REMARK    4  A    between atoms: N_8  and  C_19
REMARK    5  A    between atoms: N_9  and  C_27
REMARK    6  A    between atoms: N_10  and  C_28
REMARK    7  A    between atoms: C_13  and  C_16
REMARK    8  A    between atoms: C_17  and  C_18
REMARK    9  A    between atoms: C_19  and  C_21
REMARK   10  A    between atoms: C_19  and  C_23
REMARK   11  A    between atoms: C_21  and  C_26
REMARK                            x       y       z     vdW  Elec       q    Type
REMARK                         _______ _______ _______ _____ _____    ______ ____
ROOT
ATOM      3  O   UNL     1       3.350  -1.010  -1.641  0.00  0.00    -0.268 OA
ATOM      6  N   UNL     1       2.447  -1.194   0.473  0.00  0.00    -0.283 N 
ATOM     12  C   UNL     1       0.338  -0.598   1.381  0.00  0.00    +0.105 C 
ATOM     13  C   UNL     1       1.280  -0.360   0.200  0.00  0.00    +0.182 C 
ATOM     14  C   UNL     1       1.290  -0.953   2.526  0.00  0.00    +0.043 C 
ATOM     15  C   UNL     1       2.409  -1.723   1.837  0.00  0.00    +0.111 C 
ATOM     17  C   UNL     1       3.389  -1.500  -0.512  0.00  0.00    +0.264 C 
ENDROOT
BRANCH  12   7
ATOM      4  O   UNL     1      -2.308  -0.382   0.307  0.00  0.00    -0.252 OA
ATOM      7  N   UNL     1      -0.575  -1.683   1.111  0.00  0.00    -0.294 N 
ATOM     10  N   UNL     1      -2.507  -2.717   0.429  0.00  0.00    -0.269 N 
ATOM     20  C   UNL     1      -1.856  -1.490   0.583  0.00  0.00    +0.304 C 
ATOM     40  H   UNL     1      -0.251  -2.636   1.249  0.00  0.00    +0.151 HD
ATOM     42  H   UNL     1      -1.990  -3.547   0.709  0.00  0.00    +0.156 HD
BRANCH  10  28
ATOM     28  C   UNL     1      -3.810  -2.953  -0.070  0.00  0.00    +0.036 A 
ATOM     31  C   UNL     1      -4.604  -1.882  -0.480  0.00  0.00    +0.038 A 
ATOM     32  C   UNL     1      -4.300  -4.256  -0.152  0.00  0.00    +0.023 A 
ATOM     36  C   UNL     1      -5.889  -2.114  -0.971  0.00  0.00    +0.009 A 
ATOM     37  C   UNL     1      -5.584  -4.489  -0.643  0.00  0.00    +0.003 A 
ATOM     38  C   UNL     1      -6.379  -3.418  -1.053  0.00  0.00    +0.015 A 
BRANCH  36   1
ATOM      1  S   UNL     1      -6.905  -0.747  -1.495  0.00  0.00    -0.129 S 
ATOM     39  C   UNL     1      -7.030   0.226   0.032  0.00  0.00    +0.090 C 
ENDBRANCH  36   1
ENDBRANCH  10  28
ENDBRANCH  12   7
BRANCH  17  18
ATOM      9  N   UNL     1       5.791  -2.113  -0.156  0.00  0.00    -0.346 N 
ATOM     18  C   UNL     1       4.456  -2.417  -0.129  0.00  0.00    +0.104 A 
ATOM     22  C   UNL     1       4.328  -3.715   0.314  0.00  0.00    +0.032 A 
ATOM     24  C   UNL     1       6.518  -3.196   0.264  0.00  0.00    +0.086 A 
ATOM     25  C   UNL     1       5.633  -4.208   0.562  0.00  0.00    +0.020 A 
ATOM     27  C   UNL     1       6.364  -0.848  -0.561  0.00  0.00    +0.149 C 
ENDBRANCH  17  18
BRANCH  13  16
ATOM      2  O   UNL     1       2.716   1.436   0.844  0.00  0.00    -0.274 OA
ATOM      8  N   UNL     1       1.001   1.853  -0.675  0.00  0.00    -0.302 N 
ATOM     16  C   UNL     1       1.762   1.060   0.168  0.00  0.00    +0.236 C 
ATOM     41  H   UNL     1       0.266   1.421  -1.226  0.00  0.00    +0.150 HD
BRANCH   8  19
ATOM     19  C   UNL     1       1.245   3.264  -0.866  0.00  0.00    +0.163 C 
BRANCH  19  23
ATOM      5  O   UNL     1       2.354   2.638  -2.936  0.00  0.00    -0.274 OA
ATOM     11  N   UNL     1       3.114   4.483  -1.798  0.00  0.00    -0.328 N 
ATOM     23  C   UNL     1       2.285   3.393  -1.969  0.00  0.00    +0.231 C 
ATOM     43  H   UNL     1       3.844   4.692  -2.470  0.00  0.00    +0.145 HD
ATOM     44  H   UNL     1       3.030   5.113  -1.006  0.00  0.00    +0.145 HD
ENDBRANCH  19  23
BRANCH  19  21
ATOM     21  C   UNL     1      -0.030   4.027  -1.242  0.00  0.00    +0.067 C 
BRANCH  21  26
ATOM     26  C   UNL     1      -0.906   4.324  -0.049  0.00  0.00    -0.045 A 
ATOM     29  C   UNL     1      -1.889   3.413   0.338  0.00  0.00    +0.004 A 
ATOM     30  C   UNL     1      -0.733   5.509   0.666  0.00  0.00    +0.004 A 
ATOM     33  C   UNL     1      -2.699   3.687   1.440  0.00  0.00    +0.000 A 
ATOM     34  C   UNL     1      -1.542   5.782   1.768  0.00  0.00    +0.000 A 
ATOM     35  C   UNL     1      -2.525   4.871   2.155  0.00  0.00    +0.000 A 
ENDBRANCH  21  26
ENDBRANCH  19  21
ENDBRANCH   8  19
ENDBRANCH  13  16
TORSDOF 9
