REMARK  Name = 40777397
REMARK  5 active torsions:
REMARK  status: ('A' for Active; 'I' for Inactive)
REMARK    1  A    between atoms: C_8  and  C_12
REMARK    2  A    between atoms: C_9  and  C_14
REMARK    3  A    between atoms: C_12  and  C_15
REMARK    4  A    between atoms: C_14  and  C_16
REMARK    5  A    between atoms: C_23  and  C_25
REMARK                            x       y       z     vdW  Elec       q    Type
REMARK                         _______ _______ _______ _____ _____    ______ ____
ROOT
ATOM      3  N   UNL     1      -1.798   2.850   2.189  0.00  0.00    -0.316 NA
ATOM      8  C   UNL     1      -0.344   2.200  -0.295  0.00  0.00    +0.004 C 
ATOM      9  C   UNL     1      -1.736   1.613   0.038  0.00  0.00    +0.012 C 
ATOM     10  C   UNL     1      -0.165   3.526   0.463  0.00  0.00    +0.019 C 
ATOM     11  C   UNL     1      -1.977   1.544   1.555  0.00  0.00    +0.085 C 
ATOM     13  C   UNL     1      -0.459   3.389   1.956  0.00  0.00    +0.081 C 
ATOM     34  H   UNL     1      -1.956   2.763   3.193  0.00  0.00    +0.122 HD
ENDROOT
BRANCH   8  12
ATOM     12  C   UNL     1       0.821   1.245  -0.006  0.00  0.00    +0.100 C 
BRANCH  12  15
ATOM      1  O   UNL     1       1.970   2.630  -1.555  0.00  0.00    -0.276 OA
ATOM      4  N   UNL     1       3.181   0.880  -0.622  0.00  0.00    -0.298 N 
ATOM      5  N   UNL     1       5.670  -0.527  -0.167  0.00  0.00    -0.312 N 
ATOM      7  N   UNL     1       6.949  -2.512  -0.159  0.00  0.00    -0.240 NA
ATOM     15  C   UNL     1       2.036   1.657  -0.800  0.00  0.00    +0.216 C 
ATOM     17  C   UNL     1       4.398   1.211  -1.359  0.00  0.00    +0.126 C 
ATOM     18  C   UNL     1       3.261  -0.269   0.283  0.00  0.00    +0.126 C 
ATOM     19  C   UNL     1       5.657   0.885  -0.559  0.00  0.00    +0.125 C 
ATOM     20  C   UNL     1       4.389  -1.233  -0.083  0.00  0.00    +0.125 C 
ATOM     22  C   UNL     1       6.872  -1.184   0.084  0.00  0.00    +0.121 A 
ATOM     24  C   UNL     1       7.922  -0.423   0.572  0.00  0.00    +0.043 A 
ATOM     26  C   UNL     1       9.128  -1.065   0.827  0.00  0.00    +0.005 A 
ATOM     27  C   UNL     1       8.137  -3.102   0.101  0.00  0.00    +0.113 A 
ATOM     30  C   UNL     1       9.246  -2.430   0.590  0.00  0.00    +0.020 A 
ENDBRANCH  12  15
ENDBRANCH   8  12
BRANCH   9  14
ATOM     14  C   UNL     1      -1.980   0.247  -0.607  0.00  0.00    +0.064 C 
BRANCH  14  16
ATOM      2  O   UNL     1      -5.421  -0.096  -1.612  0.00  0.00    -0.354 OA
ATOM      6  N   UNL     1      -4.112   0.320  -1.827  0.00  0.00    -0.083 NA
ATOM     16  C   UNL     1      -3.448  -0.046  -0.728  0.00  0.00    +0.085 A 
ATOM     21  C   UNL     1      -4.276  -0.691   0.207  0.00  0.00    +0.076 A 
ATOM     23  C   UNL     1      -5.506  -0.697  -0.398  0.00  0.00    +0.167 A 
BRANCH  23  25
ATOM     25  C   UNL     1      -6.805  -1.182  -0.034  0.00  0.00    +0.020 A 
ATOM     28  C   UNL     1      -6.995  -1.814   1.194  0.00  0.00    +0.011 A 
ATOM     29  C   UNL     1      -7.880  -1.021  -0.909  0.00  0.00    +0.011 A 
ATOM     31  C   UNL     1      -8.259  -2.286   1.548  0.00  0.00    +0.001 A 
ATOM     32  C   UNL     1      -9.144  -1.493  -0.556  0.00  0.00    +0.001 A 
ATOM     33  C   UNL     1      -9.334  -2.126   0.673  0.00  0.00    +0.000 A 
ENDBRANCH  23  25
ENDBRANCH  14  16
ENDBRANCH   9  14
TORSDOF 5
