REMARK  Name = 25338279
REMARK  5 active torsions:
REMARK  status: ('A' for Active; 'I' for Inactive)
REMARK    1  A    between atoms: N_3  and  C_14
REMARK    2  A    between atoms: N_4  and  C_9
REMARK    3  A    between atoms: C_10  and  C_13
REMARK    4  A    between atoms: C_15  and  C_17
REMARK    5  A    between atoms: C_16  and  C_18
REMARK                            x       y       z     vdW  Elec       q    Type
REMARK                         _______ _______ _______ _____ _____    ______ ____
ROOT
ATOM      3  N   UNL     1      -0.185  -2.846   1.141  0.00  0.00    -0.293 NA
ATOM      9  C   UNL     1      -1.959  -2.472  -0.324  0.00  0.00    +0.089 C 
ATOM     10  C   UNL     1       0.458  -2.803  -0.186  0.00  0.00    +0.147 C 
ATOM     11  C   UNL     1      -0.676  -2.405  -1.152  0.00  0.00    +0.052 C 
ATOM     12  C   UNL     1      -1.566  -3.279   0.904  0.00  0.00    +0.107 C 
ATOM     14  C   UNL     1       0.504  -3.719   2.084  0.00  0.00    +0.105 C 
ENDROOT
BRANCH  10  13
ATOM      1  O   UNL     1       2.825  -2.398  -0.635  0.00  0.00    -0.336 OA
ATOM      5  N   UNL     1       1.690  -0.575   0.003  0.00  0.00    -0.189 NA
ATOM      6  N   UNL     1       3.751  -1.347  -0.623  0.00  0.00    -0.054 NA
ATOM     13  C   UNL     1       1.638  -1.857  -0.254  0.00  0.00    +0.245 A 
ATOM     16  C   UNL     1       3.007  -0.307  -0.236  0.00  0.00    +0.222 A 
BRANCH  16  18
ATOM      7  N   UNL     1       4.860   1.165  -0.345  0.00  0.00    -0.249 NA
ATOM      8  N   UNL     1       3.250   3.314   0.465  0.00  0.00    -0.260 NA
ATOM     18  C   UNL     1       3.546   1.013  -0.082  0.00  0.00    +0.129 A 
ATOM     23  C   UNL     1       2.756   2.069   0.316  0.00  0.00    +0.142 A 
ATOM     25  C   UNL     1       5.354   2.410  -0.196  0.00  0.00    +0.131 A 
ATOM     26  C   UNL     1       4.563   3.465   0.203  0.00  0.00    +0.130 A 
ENDBRANCH  16  18
ENDBRANCH  10  13
BRANCH   9   4
ATOM      2  O   UNL     1      -3.833  -0.857  -1.780  0.00  0.00    -0.270 OA
ATOM      4  N   UNL     1      -2.427  -1.156   0.039  0.00  0.00    -0.307 N 
ATOM     15  C   UNL     1      -3.338  -0.451  -0.732  0.00  0.00    +0.244 C 
ATOM     27  H   UNL     1      -1.977  -0.712   0.833  0.00  0.00    +0.149 HD
BRANCH  15  17
ATOM     17  C   UNL     1      -3.698   0.902  -0.236  0.00  0.00    +0.037 A 
ATOM     19  C   UNL     1      -4.114   1.887  -1.132  0.00  0.00    +0.013 A 
ATOM     20  C   UNL     1      -3.620   1.188   1.127  0.00  0.00    +0.013 A 
ATOM     21  C   UNL     1      -4.452   3.158  -0.664  0.00  0.00    +0.001 A 
ATOM     22  C   UNL     1      -3.958   2.458   1.595  0.00  0.00    +0.001 A 
ATOM     24  C   UNL     1      -4.374   3.442   0.699  0.00  0.00    +0.000 A 
ENDBRANCH  15  17
ENDBRANCH   9   4
TORSDOF 4
