REMARK  Name = 45783365
REMARK  9 active torsions:
REMARK  status: ('A' for Active; 'I' for Inactive)
REMARK    1  A    between atoms: O_2  and  C_23
REMARK    2  A    between atoms: O_2  and  C_25
REMARK    3  A    between atoms: O_3  and  C_26
REMARK    4  A    between atoms: O_3  and  C_27
REMARK    5  A    between atoms: N_4  and  C_14
REMARK    6  A    between atoms: C_10  and  C_15
REMARK    7  A    between atoms: C_14  and  C_16
REMARK    8  A    between atoms: C_17  and  C_19
REMARK    9  A    between atoms: C_25  and  C_26
REMARK                            x       y       z     vdW  Elec       q    Type
REMARK                         _______ _______ _______ _____ _____    ______ ____
ROOT
ATOM      1  O   UNL     1      -2.374  -0.946  -1.796  0.00  0.00    -0.336 OA
ATOM      5  N   UNL     1      -0.844   0.357  -0.807  0.00  0.00    -0.190 NA
ATOM      8  N   UNL     1      -1.177  -1.674  -1.805  0.00  0.00    -0.056 NA
ATOM     15  C   UNL     1      -2.090   0.237  -1.191  0.00  0.00    +0.245 A 
ATOM     17  C   UNL     1      -0.323  -0.839  -1.205  0.00  0.00    +0.202 A 
ENDROOT
BRANCH  17  19
ATOM      9  N   UNL     1       3.743  -1.814  -0.569  0.00  0.00    -0.221 NA
ATOM     19  C   UNL     1       1.056  -1.170  -0.989  0.00  0.00    +0.029 A 
ATOM     21  C   UNL     1       1.901  -0.262  -0.360  0.00  0.00    +0.079 A 
ATOM     22  C   UNL     1       1.552  -2.399  -1.408  0.00  0.00    +0.031 A 
ATOM     23  C   UNL     1       3.224  -0.629  -0.176  0.00  0.00    +0.215 A 
ATOM     24  C   UNL     1       2.891  -2.670  -1.177  0.00  0.00    +0.115 A 
BRANCH  23   2
ATOM      2  O   UNL     1       4.077   0.248   0.441  0.00  0.00    -0.474 OA
BRANCH   2  25
ATOM     25  C   UNL     1       5.425  -0.178   0.606  0.00  0.00    +0.258 C 
BRANCH  25  26
ATOM     26  C   UNL     1       6.214   0.926   1.281  0.00  0.00    +0.200 C 
BRANCH  26   3
ATOM      3  O   UNL     1       6.189   2.085   0.457  0.00  0.00    -0.380 OA
ATOM     27  C   UNL     1       6.897   3.163   1.053  0.00  0.00    +0.194 C 
ENDBRANCH  26   3
ENDBRANCH  25  26
ENDBRANCH   2  25
ENDBRANCH  23   2
ENDBRANCH  17  19
BRANCH  15  10
ATOM      4  N   UNL     1      -3.486   1.606   0.348  0.00  0.00    -0.284 NA
ATOM     10  C   UNL     1      -3.236   1.217  -1.054  0.00  0.00    +0.146 C 
ATOM     11  C   UNL     1      -2.973   2.545  -1.788  0.00  0.00    +0.030 C 
ATOM     12  C   UNL     1      -3.157   3.626  -0.732  0.00  0.00    +0.017 C 
ATOM     13  C   UNL     1      -4.035   2.962   0.309  0.00  0.00    +0.085 C 
BRANCH   4  14
ATOM     14  C   UNL     1      -4.362   0.680   1.054  0.00  0.00    +0.159 C 
BRANCH  14  16
ATOM      6  N   UNL     1      -2.546  -0.459   2.352  0.00  0.00    -0.347 N 
ATOM      7  N   UNL     1      -3.893  -1.795   1.198  0.00  0.00    -0.239 NA
ATOM     16  C   UNL     1      -3.624  -0.548   1.515  0.00  0.00    +0.121 A 
ATOM     18  C   UNL     1      -2.100  -1.730   2.583  0.00  0.00    +0.104 A 
ATOM     20  C   UNL     1      -2.947  -2.537   1.861  0.00  0.00    +0.130 A 
ATOM     28  H   UNL     1      -2.149   0.391   2.729  0.00  0.00    +0.167 HD
ENDBRANCH  14  16
ENDBRANCH   4  14
ENDBRANCH  15  10
TORSDOF 8
