REMARK  Name = 38026961
REMARK  10 active torsions:
REMARK  status: ('A' for Active; 'I' for Inactive)
REMARK    1  A    between atoms: N_6  and  C_16
REMARK    2  A    between atoms: C_8  and  C_12
REMARK    3  A    between atoms: C_9  and  C_16
REMARK    4  A    between atoms: C_11  and  C_15
REMARK    5  A    between atoms: C_12  and  C_17
REMARK    6  A    between atoms: C_12  and  C_18
REMARK    7  A    between atoms: C_13  and  C_19
REMARK    8  A    between atoms: C_15  and  C_20
REMARK    9  A    between atoms: C_25  and  C_27
REMARK   10  A    between atoms: C_26  and  C_28
REMARK                            x       y       z     vdW  Elec       q    Type
REMARK                         _______ _______ _______ _____ _____    ______ ____
ROOT
ATOM      8  C   UNL     1      -2.604  -1.463  -0.611  0.00  0.00    +0.000 C 
ATOM      9  C   UNL     1      -3.634  -1.218   0.520  0.00  0.00    +0.032 C 
ATOM     10  C   UNL     1      -1.621  -2.573  -0.210  0.00  0.00    +0.012 C 
ATOM     11  C   UNL     1      -0.855  -2.233   1.082  0.00  0.00    +0.023 C 
ATOM     13  C   UNL     1      -1.780  -1.724   2.169  0.00  0.00    -0.073 C 
ATOM     14  C   UNL     1      -3.024  -1.287   1.900  0.00  0.00    -0.022 C 
ATOM     19  C   UNL     1      -1.260  -1.772   3.579  0.00  0.00    +0.039 C 
ENDROOT
BRANCH   8  12
ATOM     12  C   UNL     1      -3.288  -1.827  -1.933  0.00  0.00    -0.013 C 
ATOM     17  C   UNL     1      -2.384  -1.482  -3.112  0.00  0.00    +0.007 C 
ATOM     18  C   UNL     1      -3.657  -3.307  -1.950  0.00  0.00    +0.007 C 
ENDBRANCH   8  12
BRANCH  11  15
ATOM     15  C   UNL     1       0.273  -1.232   0.809  0.00  0.00    +0.103 C 
BRANCH  15  20
ATOM      1  O   UNL     1       1.335  -3.133  -0.125  0.00  0.00    -0.276 OA
ATOM      4  O   UNL     1       6.231   2.075  -0.092  0.00  0.00    -0.276 OA
ATOM      5  N   UNL     1       2.521  -1.138  -0.208  0.00  0.00    -0.298 N 
ATOM      7  N   UNL     1       5.072   0.067   0.051  0.00  0.00    -0.299 N 
ATOM     20  C   UNL     1       1.418  -1.927   0.116  0.00  0.00    +0.216 C 
ATOM     21  C   UNL     1       3.676  -1.738  -0.880  0.00  0.00    +0.126 C 
ATOM     22  C   UNL     1       2.620   0.313  -0.002  0.00  0.00    +0.126 C 
ATOM     23  C   UNL     1       4.973  -1.384  -0.156  0.00  0.00    +0.126 C 
ATOM     24  C   UNL     1       3.916   0.666   0.723  0.00  0.00    +0.126 C 
ATOM     26  C   UNL     1       6.173   0.856  -0.276  0.00  0.00    +0.213 C 
ATOM     28  C   UNL     1       7.351   0.147  -0.895  0.00  0.00    +0.109 C 
ENDBRANCH  15  20
ENDBRANCH  11  15
BRANCH   9  16
ATOM     16  C   UNL     1      -4.341   0.131   0.342  0.00  0.00    +0.112 C 
BRANCH  16   6
ATOM      2  O   UNL     1      -3.695   2.127  -1.618  0.00  0.00    -0.267 OA
ATOM      6  N   UNL     1      -3.419   1.212   0.496  0.00  0.00    -0.308 N 
ATOM     25  C   UNL     1      -3.163   2.141  -0.511  0.00  0.00    +0.279 C 
ATOM     32  H   UNL     1      -2.958   1.332   1.394  0.00  0.00    +0.149 HD
BRANCH  25  27
ATOM      3  O   UNL     1      -1.569   3.165   1.022  0.00  0.00    -0.458 OA
ATOM     27  C   UNL     1      -2.158   3.190  -0.203  0.00  0.00    +0.189 A 
ATOM     29  C   UNL     1      -1.675   4.239  -0.950  0.00  0.00    +0.054 A 
ATOM     30  C   UNL     1      -0.729   4.901  -0.132  0.00  0.00    +0.042 A 
ATOM     31  C   UNL     1      -0.701   4.210   1.057  0.00  0.00    +0.196 A 
ENDBRANCH  25  27
ENDBRANCH  16   6
ENDBRANCH   9  16
TORSDOF 6
