REMARK  Name = 75536049
REMARK  5 active torsions:
REMARK  status: ('A' for Active; 'I' for Inactive)
REMARK    1  A    between atoms: S_1  and  N_7
REMARK    2  A    between atoms: S_1  and  C_17
REMARK    3  A    between atoms: S_2  and  N_8
REMARK    4  A    between atoms: S_2  and  C_19
REMARK    5  A    between atoms: C_10  and  C_14
REMARK                            x       y       z     vdW  Elec       q    Type
REMARK                         _______ _______ _______ _____ _____    ______ ____
ROOT
ATOM      8  N   UNL     1      -1.149  -0.438  -0.323  0.00  0.00    -0.195 N 
ATOM      9  N   UNL     1       0.532  -0.718   1.103  0.00  0.00    -0.230 NA
ATOM     14  C   UNL     1      -0.176   0.160   0.429  0.00  0.00    +0.136 A 
ATOM     15  C   UNL     1      -1.062  -1.792  -0.120  0.00  0.00    +0.092 A 
ATOM     16  C   UNL     1      -0.006  -1.941   0.774  0.00  0.00    +0.091 A 
ATOM     18  C   UNL     1      -1.796  -2.866  -0.626  0.00  0.00    +0.030 A 
ATOM     20  C   UNL     1       0.355  -3.231   1.199  0.00  0.00    +0.030 A 
ATOM     23  C   UNL     1      -1.423  -4.142  -0.192  0.00  0.00    +0.002 A 
ATOM     24  C   UNL     1      -0.367  -4.324   0.704  0.00  0.00    +0.002 A 
ENDROOT
BRANCH  14  10
ATOM      7  N   UNL     1       2.301   2.466   0.259  0.00  0.00    -0.176 NA
ATOM     10  C   UNL     1       0.028   1.665   0.452  0.00  0.00    +0.074 C 
ATOM     11  C   UNL     1       0.546   2.146   1.809  0.00  0.00    +0.029 C 
ATOM     12  C   UNL     1       1.057   2.241  -0.534  0.00  0.00    +0.120 C 
ATOM     13  C   UNL     1       2.059   2.069   1.667  0.00  0.00    +0.110 C 
BRANCH   7   1
ATOM      1  S   UNL     1       3.799   2.096  -0.442  0.00  0.00    +0.061 S 
ATOM      3  O   UNL     1       4.868   2.600   0.401  0.00  0.00    -0.153 OA
ATOM      4  O   UNL     1       3.765   2.421  -1.856  0.00  0.00    -0.153 OA
BRANCH   1  17
ATOM     17  C   UNL     1       3.796   0.334  -0.298  0.00  0.00    +0.105 A 
ATOM     21  C   UNL     1       3.266  -0.448  -1.325  0.00  0.00    +0.028 A 
ATOM     22  C   UNL     1       4.319  -0.274   0.843  0.00  0.00    +0.028 A 
ATOM     27  C   UNL     1       3.260  -1.838  -1.210  0.00  0.00    +0.002 A 
ATOM     28  C   UNL     1       4.313  -1.664   0.958  0.00  0.00    +0.002 A 
ATOM     29  C   UNL     1       3.783  -2.446  -0.069  0.00  0.00    +0.000 A 
ENDBRANCH   1  17
ENDBRANCH   7   1
ENDBRANCH  14  10
BRANCH   8   2
ATOM      2  S   UNL     1      -2.243   0.334  -1.308  0.00  0.00    +0.086 S 
ATOM      5  O   UNL     1      -2.761  -0.558  -2.378  0.00  0.00    -0.148 OA
ATOM      6  O   UNL     1      -1.678   1.630  -1.752  0.00  0.00    -0.148 OA
BRANCH   2  19
ATOM     19  C   UNL     1      -3.740   0.759  -0.400  0.00  0.00    +0.111 A 
ATOM     25  C   UNL     1      -3.836   1.989   0.250  0.00  0.00    +0.029 A 
ATOM     26  C   UNL     1      -4.802  -0.144  -0.344  0.00  0.00    +0.029 A 
ATOM     30  C   UNL     1      -4.993   2.317   0.956  0.00  0.00    +0.002 A 
ATOM     31  C   UNL     1      -5.959   0.183   0.362  0.00  0.00    +0.002 A 
ATOM     32  C   UNL     1      -6.055   1.414   1.012  0.00  0.00    +0.000 A 
ENDBRANCH   2  19
ENDBRANCH   8   2
TORSDOF 5
