REMARK  Name = 26763115
REMARK  6 active torsions:
REMARK  status: ('A' for Active; 'I' for Inactive)
REMARK    1  A    between atoms: O_4  and  C_26
REMARK    2  A    between atoms: N_8  and  C_13
REMARK    3  A    between atoms: N_10  and  C_27
REMARK    4  A    between atoms: C_12  and  C_17
REMARK    5  A    between atoms: C_17  and  C_19
REMARK    6  A    between atoms: C_19  and  C_20
REMARK                            x       y       z     vdW  Elec       q    Type
REMARK                         _______ _______ _______ _____ _____    ______ ____
ROOT
ATOM      2  O   UNL     1      -0.499   4.470   1.671  0.00  0.00    -0.274 OA
ATOM      6  N   UNL     1       0.293   1.593  -0.228  0.00  0.00    -0.285 NA
ATOM      7  N   UNL     1       1.489   3.332   1.510  0.00  0.00    -0.313 N 
ATOM     11  C   UNL     1      -0.228   2.962  -0.181  0.00  0.00    +0.145 C 
ATOM     12  C   UNL     1       1.754   1.613  -0.304  0.00  0.00    +0.075 C 
ATOM     13  C   UNL     1      -1.841   1.477  -1.180  0.00  0.00    +0.090 C 
ATOM     14  C   UNL     1      -1.726   2.751  -0.333  0.00  0.00    +0.052 C 
ATOM     15  C   UNL     1      -0.404   0.977  -1.357  0.00  0.00    +0.107 C 
ATOM     16  C   UNL     1       2.260   2.199   1.021  0.00  0.00    +0.123 C 
ATOM     18  C   UNL     1       0.204   3.635   1.101  0.00  0.00    +0.230 C 
ATOM     33  H   UNL     1       1.846   3.819   2.326  0.00  0.00    +0.149 HD
ENDROOT
BRANCH  13   8
ATOM      5  O   UNL     1      -4.666   1.146  -1.512  0.00  0.00    -0.253 OA
ATOM      8  N   UNL     1      -2.676   0.496  -0.533  0.00  0.00    -0.295 N 
ATOM     10  N   UNL     1      -4.597  -0.640   0.009  0.00  0.00    -0.269 N 
ATOM     23  C   UNL     1      -4.055   0.400  -0.751  0.00  0.00    +0.304 C 
ATOM     34  H   UNL     1      -2.256  -0.107   0.169  0.00  0.00    +0.151 HD
ATOM     35  H   UNL     1      -3.950  -1.165   0.592  0.00  0.00    +0.156 HD
BRANCH  10  27
ATOM      1 CL   UNL     1      -8.091  -3.855   1.965  0.00  0.00    -0.083 Cl
ATOM     27  C   UNL     1      -5.947  -1.059   0.070  0.00  0.00    +0.036 A 
ATOM     28  C   UNL     1      -6.311  -2.126   0.892  0.00  0.00    +0.043 A 
ATOM     29  C   UNL     1      -6.914  -0.405  -0.693  0.00  0.00    +0.023 A 
ATOM     30  C   UNL     1      -7.642  -2.539   0.952  0.00  0.00    +0.043 A 
ATOM     31  C   UNL     1      -8.245  -0.818  -0.634  0.00  0.00    +0.003 A 
ATOM     32  C   UNL     1      -8.609  -1.885   0.189  0.00  0.00    +0.020 A 
ENDBRANCH  10  27
ENDBRANCH  13   8
BRANCH  12  17
ATOM     17  C   UNL     1       2.363   0.225  -0.516  0.00  0.00    +0.029 C 
BRANCH  17  19
ATOM     19  C   UNL     1       3.884   0.249  -0.498  0.00  0.00    +0.097 C 
BRANCH  19  20
ATOM      3  O   UNL     1       3.680  -2.093  -0.788  0.00  0.00    -0.276 OA
ATOM      9  N   UNL     1       5.841  -1.249  -0.665  0.00  0.00    -0.301 N 
ATOM     20  C   UNL     1       4.451  -1.138  -0.665  0.00  0.00    +0.216 C 
ATOM     21  C   UNL     1       6.782  -0.131  -0.520  0.00  0.00    +0.110 C 
ATOM     22  C   UNL     1       6.467  -2.558  -0.869  0.00  0.00    +0.110 C 
ATOM     24  C   UNL     1       7.773  -0.402   0.608  0.00  0.00    +0.050 C 
ATOM     25  C   UNL     1       7.450  -2.872   0.254  0.00  0.00    +0.050 C 
ATOM     26  C   UNL     1       8.474  -1.748   0.422  0.00  0.00    +0.118 C 
BRANCH  26   4
ATOM      4  O   UNL     1       9.287  -2.003   1.561  0.00  0.00    -0.392 OA
ATOM     36  H   UNL     1       9.719  -2.864   1.426  0.00  0.00    +0.210 HD
ENDBRANCH  26   4
ENDBRANCH  19  20
ENDBRANCH  17  19
ENDBRANCH  12  17
TORSDOF 6
