REMARK  Name = 40781602
REMARK  9 active torsions:
REMARK  status: ('A' for Active; 'I' for Inactive)
REMARK    1  A    between atoms: O_2  and  C_9
REMARK    2  A    between atoms: O_3  and  C_10
REMARK    3  A    between atoms: N_7  and  C_13
REMARK    4  A    between atoms: N_8  and  C_18
REMARK    5  A    between atoms: C_11  and  C_13
REMARK    6  A    between atoms: C_12  and  C_14
REMARK    7  A    between atoms: C_14  and  C_15
REMARK    8  A    between atoms: C_16  and  C_17
REMARK    9  A    between atoms: C_18  and  C_21
REMARK                            x       y       z     vdW  Elec       q    Type
REMARK                         _______ _______ _______ _____ _____    ______ ____
ROOT
ATOM      1  O   UNL     1       1.782   0.778  -0.978  0.00  0.00    -0.366 OA
ATOM      9  C   UNL     1       3.197   0.038   0.757  0.00  0.00    +0.176 C 
ATOM     10  C   UNL     1       2.901   1.505   0.992  0.00  0.00    +0.175 C 
ATOM     11  C   UNL     1       2.892  -0.101  -0.725  0.00  0.00    +0.167 C 
ATOM     12  C   UNL     1       1.678   1.726   0.109  0.00  0.00    +0.158 C 
ENDROOT
BRANCH   9   2
ATOM      2  O   UNL     1       4.529  -0.319   1.060  0.00  0.00    -0.387 OA
ATOM     24  H   UNL     1       4.690  -0.085   1.990  0.00  0.00    +0.210 HD
ENDBRANCH   9   2
BRANCH  10   3
ATOM      3  O   UNL     1       3.964   2.312   0.486  0.00  0.00    -0.387 OA
ATOM     25  H   UNL     1       3.713   3.241   0.624  0.00  0.00    +0.210 HD
ENDBRANCH  10   3
BRANCH  11  13
ATOM     13  C   UNL     1       2.527  -1.517  -1.134  0.00  0.00    +0.138 C 
BRANCH  13   7
ATOM      5  O   UNL     1      -0.206  -1.235  -1.968  0.00  0.00    -0.267 OA
ATOM      7  N   UNL     1       1.366  -1.976  -0.430  0.00  0.00    -0.306 N 
ATOM     16  C   UNL     1       0.071  -1.796  -0.910  0.00  0.00    +0.279 C 
ATOM     26  H   UNL     1       1.512  -2.452   0.454  0.00  0.00    +0.149 HD
BRANCH  16  17
ATOM      6  O   UNL     1      -2.303  -2.149  -0.488  0.00  0.00    -0.458 OA
ATOM     17  C   UNL     1      -1.026  -2.306  -0.050  0.00  0.00    +0.189 A 
ATOM     19  C   UNL     1      -1.009  -2.943   1.170  0.00  0.00    +0.054 A 
ATOM     20  C   UNL     1      -2.362  -3.193   1.502  0.00  0.00    +0.042 A 
ATOM     22  C   UNL     1      -3.110  -2.691   0.462  0.00  0.00    +0.196 A 
ENDBRANCH  16  17
ENDBRANCH  13   7
ENDBRANCH  11  13
BRANCH  12  14
ATOM     14  C   UNL     1       0.364   1.462   0.833  0.00  0.00    +0.130 C 
BRANCH  14  15
ATOM      4  O   UNL     1      -0.752   1.855  -1.276  0.00  0.00    -0.276 OA
ATOM      8  N   UNL     1      -2.019   1.288   0.588  0.00  0.00    -0.304 N 
ATOM     15  C   UNL     1      -0.839   1.563  -0.086  0.00  0.00    +0.216 C 
ATOM     27  H   UNL     1      -1.984   1.070   1.580  0.00  0.00    +0.150 HD
BRANCH   8  18
ATOM     18  C   UNL     1      -3.316   1.314  -0.049  0.00  0.00    +0.193 C 
BRANCH  18  21
ATOM     21  C   UNL     1      -3.917   2.645   0.034  0.00  0.00    -0.087 C 
ATOM     23  C   UNL     1      -4.414   3.736   0.101  0.00  0.00    +0.005 C 
ENDBRANCH  18  21
ENDBRANCH   8  18
ENDBRANCH  14  15
ENDBRANCH  12  14
TORSDOF 9
