REMARK  Name = 11943110
REMARK  5 active torsions:
REMARK  status: ('A' for Active; 'I' for Inactive)
REMARK    1  A    between atoms: N_5  and  C_10
REMARK    2  A    between atoms: C_18  and  C_24
REMARK    3  A    between atoms: C_21  and  C_23
REMARK    4  A    between atoms: C_25  and  C_29
REMARK    5  A    between atoms: C_27  and  C_32
REMARK                            x       y       z     vdW  Elec       q    Type
REMARK                         _______ _______ _______ _____ _____    ______ ____
ROOT
ATOM      1  O   UNL     1       1.509   2.584   1.495  0.00  0.00    -0.273 OA
ATOM      2  O   UNL     1      -1.330   0.747  -2.475  0.00  0.00    -0.270 OA
ATOM      4  N   UNL     1       0.362   0.672  -0.888  0.00  0.00    -0.286 N 
ATOM      6  N   UNL     1      -0.753   2.313   1.307  0.00  0.00    -0.283 N 
ATOM      9  C   UNL     1       0.730   0.522   0.514  0.00  0.00    +0.164 C 
ATOM     10  C   UNL     1       3.189   0.400  -0.211  0.00  0.00    +0.077 C 
ATOM     11  C   UNL     1       2.112  -0.098   0.751  0.00  0.00    +0.054 C 
ATOM     12  C   UNL     1       2.699   0.240  -1.646  0.00  0.00    +0.041 C 
ATOM     13  C   UNL     1       1.408   1.015  -1.855  0.00  0.00    +0.111 C 
ATOM     14  C   UNL     1       0.554   1.901   1.125  0.00  0.00    +0.238 C 
ATOM     15  C   UNL     1      -0.971   0.724  -1.298  0.00  0.00    +0.249 C 
ATOM     16  C   UNL     1      -2.031   0.833  -0.261  0.00  0.00    +0.059 A 
ATOM     17  C   UNL     1      -1.932   1.667   0.869  0.00  0.00    +0.046 A 
ATOM     19  C   UNL     1      -3.257   0.217  -0.563  0.00  0.00    +0.023 A 
ATOM     20  C   UNL     1      -3.085   1.915   1.631  0.00  0.00    +0.024 A 
ATOM     21  C   UNL     1      -4.379   0.436   0.235  0.00  0.00    -0.017 A 
ATOM     22  C   UNL     1      -4.297   1.296   1.324  0.00  0.00    +0.010 A 
ATOM     36  H   UNL     1      -0.883   3.121   1.911  0.00  0.00    +0.155 HD
ENDROOT
BRANCH  21  23
ATOM     23  C   UNL     1      -5.634  -0.210  -0.085  0.00  0.00    -0.015 A 
ATOM     25  C   UNL     1      -5.969  -1.452   0.457  0.00  0.00    -0.040 A 
ATOM     26  C   UNL     1      -6.520   0.430  -0.954  0.00  0.00    +0.009 A 
ATOM     27  C   UNL     1      -7.185  -2.053   0.131  0.00  0.00    -0.047 A 
ATOM     29  C   UNL     1      -5.029  -2.151   1.391  0.00  0.00    +0.044 C 
ATOM     30  C   UNL     1      -7.736  -0.171  -1.280  0.00  0.00    +0.001 A 
ATOM     31  C   UNL     1      -8.069  -1.412  -0.738  0.00  0.00    +0.003 A 
ATOM     32  C   UNL     1      -7.566  -3.381   0.697  0.00  0.00    +0.044 C 
ENDBRANCH  21  23
BRANCH  10   5
ATOM      3  O   UNL     1       5.844   1.415  -0.624  0.00  0.00    -0.268 OA
ATOM      5  N   UNL     1       4.427  -0.315  -0.009  0.00  0.00    -0.307 N 
ATOM     18  C   UNL     1       5.668   0.263  -0.236  0.00  0.00    +0.264 C 
ATOM     35  H   UNL     1       4.381  -1.294   0.261  0.00  0.00    +0.149 HD
BRANCH  18  24
ATOM      7  N   UNL     1       6.561  -1.854   0.393  0.00  0.00    -0.247 NA
ATOM      8  N   UNL     1       9.177  -0.922   0.003  0.00  0.00    -0.259 NA
ATOM     24  C   UNL     1       6.845  -0.614  -0.006  0.00  0.00    +0.143 A 
ATOM     28  C   UNL     1       8.102  -0.136  -0.203  0.00  0.00    +0.143 A 
ATOM     33  C   UNL     1       7.636  -2.640   0.598  0.00  0.00    +0.131 A 
ATOM     34  C   UNL     1       8.921  -2.182   0.407  0.00  0.00    +0.130 A 
ENDBRANCH  18  24
ENDBRANCH  10   5
TORSDOF 3
