REMARK  Name = 51137137
REMARK  6 active torsions:
REMARK  status: ('A' for Active; 'I' for Inactive)
REMARK    1  A    between atoms: S_1  and  C_21
REMARK    2  A    between atoms: S_1  and  C_28
REMARK    3  A    between atoms: N_5  and  C_12
REMARK    4  A    between atoms: C_8  and  C_13
REMARK    5  A    between atoms: C_12  and  C_14
REMARK    6  A    between atoms: C_28  and  C_29
REMARK                            x       y       z     vdW  Elec       q    Type
REMARK                         _______ _______ _______ _____ _____    ______ ____
ROOT
ATOM      5  N   UNL     1      -2.466   0.181   0.057  0.00  0.00    -0.297 NA
ATOM      8  C   UNL     1      -0.407  -0.727   0.718  0.00  0.00    +0.090 C 
ATOM      9  C   UNL     1      -1.242  -0.377  -0.521  0.00  0.00    +0.097 C 
ATOM     10  C   UNL     1      -0.935   0.209   1.820  0.00  0.00    +0.029 C 
ATOM     11  C   UNL     1      -2.010   1.050   1.141  0.00  0.00    +0.085 C 
ENDROOT
BRANCH   8  13
ATOM      2  O   UNL     1       1.783  -1.793   0.656  0.00  0.00    -0.439 OA
ATOM      6  N   UNL     1       1.788   0.405   0.100  0.00  0.00    -0.213 NA
ATOM     13  C   UNL     1       1.081  -0.640   0.471  0.00  0.00    +0.201 A 
ATOM     16  C   UNL     1       3.069  -0.089   0.031  0.00  0.00    +0.111 A 
ATOM     17  C   UNL     1       3.069  -1.434   0.371  0.00  0.00    +0.155 A 
ATOM     20  C   UNL     1       4.283   0.525  -0.308  0.00  0.00    +0.058 A 
ATOM     21  C   UNL     1       5.446  -0.258  -0.286  0.00  0.00    +0.090 A 
ATOM     22  C   UNL     1       4.199  -2.241   0.404  0.00  0.00    +0.050 A 
ATOM     24  C   UNL     1       5.402  -1.614   0.064  0.00  0.00    +0.030 A 
BRANCH  21   1
ATOM      1  S   UNL     1       6.979   0.473  -0.705  0.00  0.00    -0.003 S 
ATOM      3  O   UNL     1       7.886  -0.569  -1.162  0.00  0.00    -0.169 OA
ATOM      4  O   UNL     1       6.706   1.622  -1.555  0.00  0.00    -0.169 OA
BRANCH   1  28
ATOM     28  C   UNL     1       7.616   1.074   0.843  0.00  0.00    +0.168 C 
ATOM     29  C   UNL     1       8.958   1.748   0.665  0.00  0.00    +0.028 C 
ENDBRANCH   1  28
ENDBRANCH  21   1
ENDBRANCH   8  13
BRANCH   5  12
ATOM     12  C   UNL     1      -3.268   0.895  -0.925  0.00  0.00    +0.121 C 
BRANCH  12  14
ATOM      7  N   UNL     1      -6.540   2.008   0.337  0.00  0.00    -0.360 N 
ATOM     14  C   UNL     1      -4.689   1.080  -0.462  0.00  0.00    -0.008 A 
ATOM     15  C   UNL     1      -5.710   0.090  -0.443  0.00  0.00    +0.004 A 
ATOM     18  C   UNL     1      -5.229   2.249   0.024  0.00  0.00    +0.088 A 
ATOM     19  C   UNL     1      -6.862   0.698   0.062  0.00  0.00    +0.047 A 
ATOM     23  C   UNL     1      -5.766  -1.270  -0.809  0.00  0.00    +0.010 A 
ATOM     25  C   UNL     1      -8.071   0.011   0.220  0.00  0.00    +0.026 A 
ATOM     26  C   UNL     1      -6.969  -1.969  -0.657  0.00  0.00    +0.001 A 
ATOM     27  C   UNL     1      -8.102  -1.336  -0.150  0.00  0.00    +0.002 A 
ATOM     30  H   UNL     1      -7.181   2.692   0.716  0.00  0.00    +0.165 HD
ENDBRANCH  12  14
ENDBRANCH   5  12
TORSDOF 5
