REMARK  Name = 75536965
REMARK  1 active torsions:
REMARK  status: ('A' for Active; 'I' for Inactive)
REMARK    1  A    between atoms: C_14  and  C_15
REMARK                            x       y       z     vdW  Elec       q    Type
REMARK                         _______ _______ _______ _____ _____    ______ ____
ROOT
ATOM      1  O   UNL     1      -4.948  -0.207  -0.151  0.00  0.00    -0.253 OA
ATOM      2  O   UNL     1       1.647  -2.522  -0.364  0.00  0.00    -0.268 OA
ATOM      3  N   UNL     1      -2.596  -0.179  -0.209  0.00  0.00    -0.278 N 
ATOM      4  N   UNL     1       0.004  -1.006   0.316  0.00  0.00    -0.293 N 
ATOM      5  N   UNL     1      -3.687   1.730   0.254  0.00  0.00    -0.297 N 
ATOM      8  C   UNL     1      -1.555   0.832  -0.137  0.00  0.00    +0.112 C 
ATOM      9  C   UNL     1      -0.408   0.346   0.743  0.00  0.00    +0.132 C 
ATOM     10  C   UNL     1      -2.288   2.063   0.388  0.00  0.00    +0.129 C 
ATOM     11  C   UNL     1      -2.249  -1.554  -0.526  0.00  0.00    +0.128 C 
ATOM     12  C   UNL     1      -1.071  -2.007   0.336  0.00  0.00    +0.127 C 
ATOM     13  C   UNL     1      -3.873   0.369  -0.052  0.00  0.00    +0.303 C 
ATOM     14  C   UNL     1       1.297  -1.386  -0.045  0.00  0.00    +0.267 C 
ATOM     19  H   UNL     1      -4.449   2.375   0.438  0.00  0.00    +0.150 HD
ENDROOT
BRANCH  14  15
ATOM      6  N   UNL     1       2.148   0.684  -0.904  0.00  0.00    -0.247 NA
ATOM      7  N   UNL     1       4.428   0.490   0.719  0.00  0.00    -0.259 NA
ATOM     15  C   UNL     1       2.342  -0.354  -0.066  0.00  0.00    +0.144 A 
ATOM     16  C   UNL     1       3.461  -0.449   0.731  0.00  0.00    +0.143 A 
ATOM     17  C   UNL     1       3.115   1.623  -0.916  0.00  0.00    +0.131 A 
ATOM     18  C   UNL     1       4.234   1.528  -0.119  0.00  0.00    +0.130 A 
ENDBRANCH  14  15
TORSDOF 1
