REMARK  Name = 51137066
REMARK  4 active torsions:
REMARK  status: ('A' for Active; 'I' for Inactive)
REMARK    1  A    between atoms: N_2  and  C_8
REMARK    2  A    between atoms: C_4  and  C_9
REMARK    3  A    between atoms: C_8  and  C_10
REMARK    4  A    between atoms: C_8  and  C_11
REMARK                            x       y       z     vdW  Elec       q    Type
REMARK                         _______ _______ _______ _____ _____    ______ ____
ROOT
ATOM      1  O   UNL     1       1.421   1.126   0.768  0.00  0.00    -0.439 OA
ATOM      3  N   UNL     1       0.943  -0.534  -0.700  0.00  0.00    -0.213 NA
ATOM      9  C   UNL     1       0.487   0.458   0.034  0.00  0.00    +0.201 A 
ATOM     12  C   UNL     1       2.588   0.486   0.462  0.00  0.00    +0.155 A 
ATOM     13  C   UNL     1       2.291  -0.529  -0.436  0.00  0.00    +0.110 A 
ATOM     14  C   UNL     1       3.860   0.770   0.942  0.00  0.00    +0.048 A 
ATOM     15  C   UNL     1       3.331  -1.342  -0.909  0.00  0.00    +0.031 A 
ATOM     16  C   UNL     1       4.886  -0.050   0.461  0.00  0.00    +0.004 A 
ATOM     17  C   UNL     1       4.630  -1.085  -0.446  0.00  0.00    +0.002 A 
ENDROOT
BRANCH   9   4
ATOM      2  N   UNL     1      -3.170   0.245   0.091  0.00  0.00    -0.299 NA
ATOM      4  C   UNL     1      -0.935   0.950   0.169  0.00  0.00    +0.090 C 
ATOM      5  C   UNL     1      -1.892  -0.123   0.704  0.00  0.00    +0.097 C 
ATOM      6  C   UNL     1      -1.580   1.427  -1.144  0.00  0.00    +0.029 C 
ATOM      7  C   UNL     1      -2.841   0.585  -1.293  0.00  0.00    +0.085 C 
BRANCH   2   8
ATOM      8  C   UNL     1      -4.156  -0.822   0.180  0.00  0.00    +0.050 C 
ATOM     10  C   UNL     1      -4.420  -1.149   1.647  0.00  0.00    +0.024 C 
ATOM     11  C   UNL     1      -5.443  -0.413  -0.530  0.00  0.00    +0.024 C 
ENDBRANCH   2   8
ENDBRANCH   9   4
TORSDOF 2
