REMARK  Name = 26744752
REMARK  4 active torsions:
REMARK  status: ('A' for Active; 'I' for Inactive)
REMARK    1  A    between atoms: N_2  and  C_12
REMARK    2  A    between atoms: C_7  and  C_13
REMARK    3  A    between atoms: C_12  and  C_14
REMARK    4  A    between atoms: C_18  and  C_21
REMARK                            x       y       z     vdW  Elec       q    Type
REMARK                         _______ _______ _______ _____ _____    ______ ____
ROOT
ATOM      2  N   UNL     1       1.654  -0.168  -0.447  0.00  0.00    -0.281 NA
ATOM      3  N   UNL     1       1.206  -3.352   1.432  0.00  0.00    -0.347 N 
ATOM      4  N   UNL     1       0.569  -4.178  -0.546  0.00  0.00    -0.240 NA
ATOM      7  C   UNL     1       0.651  -0.469  -1.513  0.00  0.00    +0.152 C 
ATOM      8  C   UNL     1       0.608  -2.002  -1.853  0.00  0.00    +0.086 C 
ATOM      9  C   UNL     1       1.447  -0.873   0.836  0.00  0.00    +0.140 C 
ATOM     10  C   UNL     1       1.167  -2.300   0.568  0.00  0.00    +0.053 A 
ATOM     11  C   UNL     1       0.769  -2.830  -0.634  0.00  0.00    +0.065 A 
ATOM     15  C   UNL     1       0.839  -4.463   0.713  0.00  0.00    +0.197 A 
ATOM     28  H   UNL     1       1.453  -3.325   2.413  0.00  0.00    +0.167 HD
ENDROOT
BRANCH   7  13
ATOM      1  O   UNL     1      -1.135   1.074  -2.198  0.00  0.00    -0.336 OA
ATOM      5  N   UNL     1      -1.613  -0.108  -0.357  0.00  0.00    -0.190 NA
ATOM      6  N   UNL     1      -2.415   1.478  -1.797  0.00  0.00    -0.056 NA
ATOM     13  C   UNL     1      -0.736   0.139  -1.296  0.00  0.00    +0.245 A 
ATOM     18  C   UNL     1      -2.627   0.737  -0.706  0.00  0.00    +0.202 A 
BRANCH  18  21
ATOM     21  C   UNL     1      -3.839   0.815   0.057  0.00  0.00    +0.022 A 
ATOM     23  C   UNL     1      -4.004   0.015   1.188  0.00  0.00    +0.012 A 
ATOM     24  C   UNL     1      -4.853   1.691  -0.331  0.00  0.00    +0.012 A 
ATOM     25  C   UNL     1      -5.182   0.090   1.930  0.00  0.00    +0.001 A 
ATOM     26  C   UNL     1      -6.031   1.766   0.411  0.00  0.00    +0.001 A 
ATOM     27  C   UNL     1      -6.196   0.966   1.541  0.00  0.00    +0.000 A 
ENDBRANCH  18  21
ENDBRANCH   7  13
BRANCH   2  12
ATOM     12  C   UNL     1       1.895   1.256  -0.240  0.00  0.00    +0.120 C 
BRANCH  12  14
ATOM     14  C   UNL     1       3.318   1.531   0.165  0.00  0.00    -0.033 A 
ATOM     16  C   UNL     1       3.670   1.543   1.515  0.00  0.00    +0.005 A 
ATOM     17  C   UNL     1       4.286   1.775  -0.810  0.00  0.00    +0.005 A 
ATOM     19  C   UNL     1       4.989   1.798   1.890  0.00  0.00    +0.000 A 
ATOM     20  C   UNL     1       5.605   2.030  -0.434  0.00  0.00    +0.000 A 
ATOM     22  C   UNL     1       5.956   2.041   0.916  0.00  0.00    +0.000 A 
ENDBRANCH  12  14
ENDBRANCH   2  12
TORSDOF 4
