REMARK  Name = 40780260
REMARK  8 active torsions:
REMARK  status: ('A' for Active; 'I' for Inactive)
REMARK    1  A    between atoms: O_1  and  C_20
REMARK    2  A    between atoms: O_1  and  C_22
REMARK    3  A    between atoms: N_4  and  C_14
REMARK    4  A    between atoms: N_5  and  C_15
REMARK    5  A    between atoms: N_6  and  C_23
REMARK    6  A    between atoms: C_8  and  C_14
REMARK    7  A    between atoms: C_10  and  C_15
REMARK    8  A    between atoms: C_16  and  C_20
REMARK                            x       y       z     vdW  Elec       q    Type
REMARK                         _______ _______ _______ _____ _____    ______ ____
ROOT
ATOM      3  N   UNL     1       0.948  -2.242   1.204  0.00  0.00    -0.298 NA
ATOM      7  C   UNL     1       1.585  -2.296  -1.318  0.00  0.00    -0.003 C 
ATOM      8  C   UNL     1       2.738  -1.711  -0.470  0.00  0.00    +0.020 C 
ATOM      9  C   UNL     1       0.310  -1.465  -1.086  0.00  0.00    +0.024 C 
ATOM     10  C   UNL     1      -0.112  -1.580   0.396  0.00  0.00    +0.074 C 
ATOM     11  C   UNL     1       2.253  -1.569   0.990  0.00  0.00    +0.089 C 
ATOM     12  C   UNL     1       1.310  -3.714  -0.781  0.00  0.00    +0.019 C 
ATOM     13  C   UNL     1       1.070  -3.644   0.737  0.00  0.00    +0.085 C 
ENDROOT
BRANCH   8  14
ATOM     14  C   UNL     1       3.277  -0.391  -1.015  0.00  0.00    +0.089 C 
BRANCH  14   4
ATOM      4  N   UNL     1       4.402   0.084  -0.218  0.00  0.00    -0.297 NA
ATOM     16  C   UNL     1       4.705   1.506  -0.428  0.00  0.00    +0.082 C 
ATOM     17  C   UNL     1       5.640  -0.621  -0.564  0.00  0.00    +0.085 C 
ATOM     18  C   UNL     1       6.113   1.639   0.156  0.00  0.00    +0.022 C 
ATOM     19  C   UNL     1       6.722   0.244   0.060  0.00  0.00    +0.017 C 
BRANCH  16  20
ATOM     20  C   UNL     1       3.718   2.442   0.258  0.00  0.00    +0.178 C 
BRANCH  20   1
ATOM      1  O   UNL     1       4.167   3.776   0.089  0.00  0.00    -0.381 OA
ATOM     22  C   UNL     1       3.288   4.709   0.707  0.00  0.00    +0.194 C 
ENDBRANCH  20   1
ENDBRANCH  16  20
ENDBRANCH  14   4
ENDBRANCH   8  14
BRANCH  10  15
ATOM     15  C   UNL     1      -0.527  -0.226   0.976  0.00  0.00    +0.124 C 
BRANCH  15   5
ATOM      2  O   UNL     1      -3.308  -0.627   1.533  0.00  0.00    -0.253 OA
ATOM      5  N   UNL     1      -1.632   0.322   0.251  0.00  0.00    -0.298 N 
ATOM      6  N   UNL     1      -3.834   0.744  -0.299  0.00  0.00    -0.269 N 
ATOM     21  C   UNL     1      -2.977   0.080   0.584  0.00  0.00    +0.304 C 
ATOM     29  H   UNL     1      -1.435   0.915  -0.549  0.00  0.00    +0.150 HD
ATOM     30  H   UNL     1      -3.395   1.290  -1.035  0.00  0.00    +0.156 HD
BRANCH   6  23
ATOM     23  C   UNL     1      -5.248   0.750  -0.296  0.00  0.00    +0.035 A 
ATOM     24  C   UNL     1      -5.944   1.475  -1.264  0.00  0.00    +0.023 A 
ATOM     25  C   UNL     1      -5.947   0.032   0.674  0.00  0.00    +0.023 A 
ATOM     26  C   UNL     1      -7.339   1.482  -1.261  0.00  0.00    +0.002 A 
ATOM     27  C   UNL     1      -7.342   0.039   0.677  0.00  0.00    +0.002 A 
ATOM     28  C   UNL     1      -8.038   0.764  -0.291  0.00  0.00    +0.000 A 
ENDBRANCH   6  23
ENDBRANCH  15   5
ENDBRANCH  10  15
TORSDOF 7
