REMARK  Name = 75536597
REMARK  7 active torsions:
REMARK  status: ('A' for Active; 'I' for Inactive)
REMARK    1  A    between atoms: O_3  and  C_9
REMARK    2  A    between atoms: N_5  and  C_8
REMARK    3  A    between atoms: N_5  and  C_13
REMARK    4  A    between atoms: N_6  and  C_12
REMARK    5  A    between atoms: C_10  and  C_12
REMARK    6  A    between atoms: C_13  and  C_14
REMARK    7  A    between atoms: C_15  and  C_17
REMARK                            x       y       z     vdW  Elec       q    Type
REMARK                         _______ _______ _______ _____ _____    ______ ____
ROOT
ATOM      2  O   UNL     1       0.676   0.996  -0.032  0.00  0.00    -0.371 OA
ATOM      8  C   UNL     1      -1.363  -0.177   0.297  0.00  0.00    +0.111 C 
ATOM      9  C   UNL     1      -0.440  -1.020  -0.564  0.00  0.00    +0.164 C 
ATOM     10  C   UNL     1       0.913  -0.408  -0.230  0.00  0.00    +0.165 C 
ATOM     11  C   UNL     1      -0.736   1.200   0.150  0.00  0.00    +0.181 C 
ENDROOT
BRANCH   9   3
ATOM      3  O   UNL     1      -0.493  -2.395  -0.235  0.00  0.00    -0.388 OA
ATOM     25  H   UNL     1      -0.284  -2.492   0.709  0.00  0.00    +0.210 HD
ENDBRANCH   9   3
BRANCH   8   5
ATOM      5  N   UNL     1      -2.753  -0.215  -0.128  0.00  0.00    -0.303 NA
ATOM     24  H   UNL     1      -3.018  -1.181  -0.318  0.00  0.00    +0.123 HD
BRANCH   5  13
ATOM     13  C   UNL     1      -3.632   0.321   0.904  0.00  0.00    +0.137 C 
BRANCH  13  14
ATOM      7  N   UNL     1      -5.856  -0.662   1.006  0.00  0.00    -0.259 NA
ATOM     14  C   UNL     1      -5.075   0.306   0.474  0.00  0.00    +0.055 A 
ATOM     16  C   UNL     1      -5.527   1.261  -0.422  0.00  0.00    +0.024 A 
ATOM     18  C   UNL     1      -6.865   1.220  -0.798  0.00  0.00    +0.003 A 
ATOM     19  C   UNL     1      -7.151  -0.670   0.618  0.00  0.00    +0.111 A 
ATOM     21  C   UNL     1      -7.699   0.239  -0.272  0.00  0.00    +0.020 A 
ENDBRANCH  13  14
ENDBRANCH   5  13
ENDBRANCH   8   5
BRANCH  10  12
ATOM     12  C   UNL     1       1.948  -0.605  -1.323  0.00  0.00    +0.138 C 
BRANCH  12   6
ATOM      4  O   UNL     1       4.108  -1.870   0.082  0.00  0.00    -0.270 OA
ATOM      6  N   UNL     1       3.203  -0.009  -0.967  0.00  0.00    -0.308 N 
ATOM     15  C   UNL     1       4.198  -0.701  -0.282  0.00  0.00    +0.251 C 
ATOM     26  H   UNL     1       3.341   0.962  -1.225  0.00  0.00    +0.149 HD
BRANCH  15  17
ATOM      1  S   UNL     1       6.702  -0.712   0.876  0.00  0.00    -0.092 S 
ATOM     17  C   UNL     1       5.430   0.066   0.035  0.00  0.00    +0.074 A 
ATOM     20  C   UNL     1       5.730   1.379  -0.257  0.00  0.00    +0.021 A 
ATOM     22  C   UNL     1       7.021   1.750   0.217  0.00  0.00    +0.008 A 
ATOM     23  C   UNL     1       7.659   0.708   0.852  0.00  0.00    +0.046 A 
ENDBRANCH  15  17
ENDBRANCH  12   6
ENDBRANCH  10  12
TORSDOF 7
