REMARK  Name = 11883315
REMARK  5 active torsions:
REMARK  status: ('A' for Active; 'I' for Inactive)
REMARK    1  A    between atoms: S_1  and  N_7
REMARK    2  A    between atoms: S_1  and  C_15
REMARK    3  A    between atoms: O_4  and  C_11
REMARK    4  A    between atoms: O_4  and  C_14
REMARK    5  A    between atoms: N_7  and  C_10
REMARK                            x       y       z     vdW  Elec       q    Type
REMARK                         _______ _______ _______ _____ _____    ______ ____
ROOT
ATOM      2  O   UNL     1      -1.079  -1.035  -0.730  0.00  0.00    -0.370 OA
ATOM      3  O   UNL     1      -1.166   1.960  -0.035  0.00  0.00    -0.370 OA
ATOM      8  C   UNL     1      -0.471   0.852   0.575  0.00  0.00    +0.170 C 
ATOM      9  C   UNL     1      -1.396  -0.346   0.491  0.00  0.00    +0.179 C 
ATOM     10  C   UNL     1       0.713   0.458  -0.273  0.00  0.00    +0.133 C 
ATOM     11  C   UNL     1      -2.761   0.296   0.432  0.00  0.00    +0.175 C 
ATOM     12  C   UNL     1       0.092  -0.448  -1.318  0.00  0.00    +0.183 C 
ATOM     13  C   UNL     1      -2.493   1.540  -0.384  0.00  0.00    +0.194 C 
ENDROOT
BRANCH  11   4
ATOM      4  O   UNL     1      -3.744  -0.524  -0.158  0.00  0.00    -0.375 OA
ATOM     14  C   UNL     1      -3.995  -1.696   0.614  0.00  0.00    +0.194 C 
ENDBRANCH  11   4
BRANCH  10   7
ATOM      7  N   UNL     1       1.686  -0.309   0.541  0.00  0.00    -0.187 NA
ATOM     16  H   UNL     1       1.449  -0.468   1.528  0.00  0.00    +0.148 HD
BRANCH   7   1
ATOM      1  S   UNL     1       3.321  -0.328   0.067  0.00  0.00    +0.027 S 
ATOM      5  O   UNL     1       3.421  -0.209  -1.375  0.00  0.00    -0.158 OA
ATOM      6  O   UNL     1       3.984  -1.409   0.770  0.00  0.00    -0.158 OA
ATOM     15  C   UNL     1       3.889   1.198   0.783  0.00  0.00    +0.214 C 
ENDBRANCH   7   1
ENDBRANCH  10   7
TORSDOF 3
