REMARK  Name = 28961487
REMARK  13 active torsions:
REMARK  status: ('A' for Active; 'I' for Inactive)
REMARK    1  A    between atoms: O_3  and  C_12
REMARK    2  A    between atoms: O_4  and  C_15
REMARK    3  A    between atoms: N_6  and  C_10
REMARK    4  A    between atoms: N_6  and  C_16
REMARK    5  A    between atoms: N_6  and  C_17
REMARK    6  A    between atoms: N_7  and  C_14
REMARK    7  A    between atoms: N_8  and  C_18
REMARK    8  A    between atoms: N_8  and  C_20
REMARK    9  A    between atoms: N_8  and  C_21
REMARK   10  A    between atoms: N_9  and  C_22
REMARK   11  A    between atoms: C_11  and  C_14
REMARK   12  A    between atoms: C_13  and  C_15
REMARK   13  A    between atoms: C_16  and  C_18
REMARK                            x       y       z     vdW  Elec       q    Type
REMARK                         _______ _______ _______ _____ _____    ______ ____
ROOT
ATOM      2  O   UNL     1       0.453  -1.500   0.916  0.00  0.00    -0.365 OA
ATOM     10  C   UNL     1       2.767  -1.128   0.495  0.00  0.00    +0.118 C 
ATOM     11  C   UNL     1       1.411  -0.439   0.704  0.00  0.00    +0.155 C 
ATOM     12  C   UNL     1       2.377  -2.498  -0.037  0.00  0.00    +0.165 C 
ATOM     13  C   UNL     1       1.120  -2.770   0.780  0.00  0.00    +0.174 C 
ENDROOT
BRANCH  12   3
ATOM      3  O   UNL     1       2.065  -2.449  -1.424  0.00  0.00    -0.388 OA
ATOM     28  H   UNL     1       1.929  -3.362  -1.727  0.00  0.00    +0.210 HD
ENDBRANCH  12   3
BRANCH  10   6
ATOM      6  N   UNL     1       3.737  -0.405  -0.307  0.00  0.00    -0.296 NA
ATOM     17  C   UNL     1       4.774  -1.309  -0.813  0.00  0.00    +0.105 C 
BRANCH   6  16
ATOM     16  C   UNL     1       4.351   0.679   0.467  0.00  0.00    +0.100 C 
BRANCH  16  18
ATOM     18  C   UNL     1       4.992   1.698  -0.470  0.00  0.00    +0.099 C 
BRANCH  18   8
ATOM      8  N   UNL     1       5.586   2.785   0.299  0.00  0.00    -0.307 NA
ATOM     20  C   UNL     1       5.741   3.980  -0.532  0.00  0.00    +0.104 C 
ATOM     21  C   UNL     1       6.880   2.378   0.850  0.00  0.00    +0.104 C 
ENDBRANCH  18   8
ENDBRANCH  16  18
ENDBRANCH   6  16
ENDBRANCH  10   6
BRANCH  11  14
ATOM     14  C   UNL     1       0.894   0.414  -0.449  0.00  0.00    +0.139 C 
BRANCH  14   7
ATOM      5  O   UNL     1      -1.685  -0.727  -0.950  0.00  0.00    -0.253 OA
ATOM      7  N   UNL     1      -0.376   0.995  -0.131  0.00  0.00    -0.297 N 
ATOM      9  N   UNL     1      -2.671   1.173   0.014  0.00  0.00    -0.269 N 
ATOM     19  C   UNL     1      -1.605   0.372  -0.408  0.00  0.00    +0.304 C 
ATOM     29  H   UNL     1      -0.387   1.899   0.331  0.00  0.00    +0.150 HD
ATOM     31  H   UNL     1      -2.430   2.061   0.447  0.00  0.00    +0.156 HD
BRANCH   9  22
ATOM      1 CL   UNL     1      -7.499   2.689   0.882  0.00  0.00    -0.083 Cl
ATOM     22  C   UNL     1      -4.055   0.899  -0.087  0.00  0.00    +0.036 A 
ATOM     23  C   UNL     1      -4.986   1.822   0.391  0.00  0.00    +0.043 A 
ATOM     24  C   UNL     1      -4.489  -0.293  -0.665  0.00  0.00    +0.023 A 
ATOM     25  C   UNL     1      -6.350   1.552   0.291  0.00  0.00    +0.043 A 
ATOM     26  C   UNL     1      -5.854  -0.564  -0.765  0.00  0.00    +0.003 A 
ATOM     27  C   UNL     1      -6.785   0.358  -0.287  0.00  0.00    +0.020 A 
ENDBRANCH   9  22
ENDBRANCH  14   7
ENDBRANCH  11  14
BRANCH  13  15
ATOM     15  C   UNL     1       0.157  -3.780   0.182  0.00  0.00    +0.190 C 
BRANCH  15   4
ATOM      4  O   UNL     1      -0.949  -3.933   1.056  0.00  0.00    -0.392 OA
ATOM     30  H   UNL     1      -1.547  -4.584   0.651  0.00  0.00    +0.210 HD
ENDBRANCH  15   4
ENDBRANCH  13  15
TORSDOF 10
