REMARK  Name = 45783871
REMARK  14 active torsions:
REMARK  status: ('A' for Active; 'I' for Inactive)
REMARK    1  A    between atoms: O_3  and  C_26
REMARK    2  A    between atoms: N_5  and  C_15
REMARK    3  A    between atoms: N_6  and  C_23
REMARK    4  A    between atoms: C_8  and  C_12
REMARK    5  A    between atoms: C_9  and  C_15
REMARK    6  A    between atoms: C_11  and  C_16
REMARK    7  A    between atoms: C_12  and  C_17
REMARK    8  A    between atoms: C_12  and  C_18
REMARK    9  A    between atoms: C_13  and  C_19
REMARK   10  A    between atoms: C_16  and  C_20
REMARK   11  A    between atoms: C_21  and  C_22
REMARK   12  A    between atoms: C_22  and  C_24
REMARK   13  A    between atoms: C_23  and  C_25
REMARK   14  A    between atoms: C_24  and  C_26
REMARK                            x       y       z     vdW  Elec       q    Type
REMARK                         _______ _______ _______ _____ _____    ______ ____
ROOT
ATOM      8  C   UNL     1      -0.234  -1.936  -1.043  0.00  0.00    +0.000 C 
ATOM      9  C   UNL     1      -1.556  -2.742  -1.089  0.00  0.00    +0.032 C 
ATOM     10  C   UNL     1       0.785  -2.629  -0.127  0.00  0.00    +0.012 C 
ATOM     11  C   UNL     1       0.260  -2.788   1.313  0.00  0.00    +0.023 C 
ATOM     13  C   UNL     1      -1.154  -3.332   1.340  0.00  0.00    -0.073 C 
ATOM     14  C   UNL     1      -1.946  -3.316   0.253  0.00  0.00    -0.022 C 
ATOM     19  C   UNL     1      -1.621  -3.938   2.634  0.00  0.00    +0.039 C 
ENDROOT
BRANCH   8  12
ATOM     12  C   UNL     1       0.366  -1.750  -2.440  0.00  0.00    -0.013 C 
ATOM     17  C   UNL     1       1.142  -2.995  -2.856  0.00  0.00    +0.007 C 
ATOM     18  C   UNL     1       1.265  -0.517  -2.472  0.00  0.00    +0.007 C 
ENDBRANCH   8  12
BRANCH   9  15
ATOM     15  C   UNL     1      -2.707  -1.888  -1.633  0.00  0.00    +0.112 C 
BRANCH  15   5
ATOM      2  O   UNL     1      -2.595   0.947  -2.202  0.00  0.00    -0.276 OA
ATOM      5  N   UNL     1      -3.008  -0.814  -0.739  0.00  0.00    -0.315 N 
ATOM     21  C   UNL     1      -2.929   0.534  -1.095  0.00  0.00    +0.214 C 
ATOM     31  H   UNL     1      -3.350  -1.046   0.189  0.00  0.00    +0.149 HD
BRANCH  21  22
ATOM     22  C   UNL     1      -3.303   1.451   0.055  0.00  0.00    +0.107 C 
BRANCH  22  24
ATOM     24  C   UNL     1      -3.219   2.926  -0.324  0.00  0.00    +0.129 C 
BRANCH  24  26
ATOM      4  O   UNL     1      -3.935   3.453   1.941  0.00  0.00    -0.251 OA
ATOM     26  C   UNL     1      -3.587   3.829   0.830  0.00  0.00    +0.305 C 
BRANCH  26   3
ATOM      3  O   UNL     1      -3.484   5.139   0.488  0.00  0.00    -0.481 OA
ATOM     33  H   UNL     1      -3.721   5.731   1.234  0.00  0.00    +0.295 HD
ENDBRANCH  26   3
ENDBRANCH  24  26
ENDBRANCH  22  24
ENDBRANCH  21  22
ENDBRANCH  15   5
ENDBRANCH   9  15
BRANCH  11  16
ATOM     16  C   UNL     1       0.355  -1.467   2.084  0.00  0.00    +0.103 C 
BRANCH  16  20
ATOM      1  O   UNL     1       2.770  -1.576   1.996  0.00  0.00    -0.276 OA
ATOM      6  N   UNL     1       1.721   0.494   2.110  0.00  0.00    -0.310 N 
ATOM     20  C   UNL     1       1.752  -0.891   2.057  0.00  0.00    +0.214 C 
ATOM     32  H   UNL     1       0.826   0.974   2.157  0.00  0.00    +0.149 HD
BRANCH   6  23
ATOM     23  C   UNL     1       2.912   1.312   2.100  0.00  0.00    +0.159 C 
BRANCH  23  25
ATOM      7  N   UNL     1       4.524   1.338   0.283  0.00  0.00    -0.258 NA
ATOM     25  C   UNL     1       3.301   1.723   0.710  0.00  0.00    +0.058 A 
ATOM     27  C   UNL     1       2.409   2.458  -0.054  0.00  0.00    +0.025 A 
ATOM     28  C   UNL     1       2.799   2.822  -1.339  0.00  0.00    +0.003 A 
ATOM     29  C   UNL     1       4.868   1.709  -0.970  0.00  0.00    +0.111 A 
ATOM     30  C   UNL     1       4.050   2.444  -1.813  0.00  0.00    +0.020 A 
ENDBRANCH  23  25
ENDBRANCH   6  23
ENDBRANCH  16  20
ENDBRANCH  11  16
TORSDOF 11
