REMARK  Name = 26763045
REMARK  11 active torsions:
REMARK  status: ('A' for Active; 'I' for Inactive)
REMARK    1  A    between atoms: N_6  and  C_11
REMARK    2  A    between atoms: N_7  and  C_21
REMARK    3  A    between atoms: N_7  and  C_22
REMARK    4  A    between atoms: N_8  and  C_20
REMARK    5  A    between atoms: C_10  and  C_15
REMARK    6  A    between atoms: C_15  and  C_17
REMARK    7  A    between atoms: C_17  and  C_19
REMARK    8  A    between atoms: C_20  and  C_23
REMARK    9  A    between atoms: C_20  and  C_24
REMARK   10  A    between atoms: C_21  and  C_25
REMARK   11  A    between atoms: C_22  and  C_26
REMARK                            x       y       z     vdW  Elec       q    Type
REMARK                         _______ _______ _______ _____ _____    ______ ____
ROOT
ATOM      1  O   UNL     1       1.478  -4.269   0.534  0.00  0.00    -0.274 OA
ATOM      4  N   UNL     1       0.351  -1.013  -0.265  0.00  0.00    -0.285 NA
ATOM      5  N   UNL     1      -0.604  -3.340   0.808  0.00  0.00    -0.313 N 
ATOM      9  C   UNL     1       0.986  -2.263  -0.694  0.00  0.00    +0.145 C 
ATOM     10  C   UNL     1      -1.106  -1.147  -0.314  0.00  0.00    +0.075 C 
ATOM     11  C   UNL     1       2.416  -0.382  -1.165  0.00  0.00    +0.090 C 
ATOM     12  C   UNL     1       2.452  -1.869  -0.797  0.00  0.00    +0.052 C 
ATOM     13  C   UNL     1       0.935   0.009  -1.133  0.00  0.00    +0.107 C 
ATOM     14  C   UNL     1      -1.491  -2.188   0.747  0.00  0.00    +0.123 C 
ATOM     16  C   UNL     1       0.679  -3.364   0.294  0.00  0.00    +0.230 C 
ATOM     27  H   UNL     1      -0.876  -4.104   1.419  0.00  0.00    +0.149 HD
ENDROOT
BRANCH  11   6
ATOM      2  O   UNL     1       5.202   0.327  -1.412  0.00  0.00    -0.253 OA
ATOM      6  N   UNL     1       3.197   0.403  -0.242  0.00  0.00    -0.295 N 
ATOM      8  N   UNL     1       5.054   1.469   0.602  0.00  0.00    -0.297 N 
ATOM     18  C   UNL     1       4.545   0.698  -0.440  0.00  0.00    +0.300 C 
ATOM     28  H   UNL     1       2.767   0.693   0.631  0.00  0.00    +0.151 HD
ATOM     29  H   UNL     1       4.413   1.791   1.321  0.00  0.00    +0.150 HD
BRANCH   8  20
ATOM     20  C   UNL     1       6.426   1.916   0.648  0.00  0.00    +0.068 C 
ATOM     23  C   UNL     1       6.904   2.013   2.091  0.00  0.00    +0.027 C 
ATOM     24  C   UNL     1       6.578   3.249  -0.075  0.00  0.00    +0.027 C 
ENDBRANCH   8  20
ENDBRANCH  11   6
BRANCH  10  15
ATOM     15  C   UNL     1      -1.838   0.166  -0.031  0.00  0.00    +0.029 C 
BRANCH  15  17
ATOM     17  C   UNL     1      -3.350  -0.018  -0.110  0.00  0.00    +0.097 C 
BRANCH  17  19
ATOM      3  O   UNL     1      -3.489   2.322   0.390  0.00  0.00    -0.276 OA
ATOM      7  N   UNL     1      -5.500   1.204   0.098  0.00  0.00    -0.302 N 
ATOM     19  C   UNL     1      -4.104   1.280   0.150  0.00  0.00    +0.216 C 
BRANCH   7  21
ATOM     21  C   UNL     1      -6.270  -0.005  -0.183  0.00  0.00    +0.104 C 
ATOM     25  C   UNL     1      -6.598  -0.761   1.089  0.00  0.00    +0.024 C 
ENDBRANCH   7  21
BRANCH   7  22
ATOM     22  C   UNL     1      -6.293   2.401   0.345  0.00  0.00    +0.104 C 
ATOM     26  C   UNL     1      -6.561   3.164  -0.936  0.00  0.00    +0.024 C 
ENDBRANCH   7  22
ENDBRANCH  17  19
ENDBRANCH  15  17
ENDBRANCH  10  15
TORSDOF 7
