REMARK  Name = 11866295
REMARK  12 active torsions:
REMARK  status: ('A' for Active; 'I' for Inactive)
REMARK    1  A    between atoms: O_1  and  C_10
REMARK    2  A    between atoms: O_2  and  C_11
REMARK    3  A    between atoms: N_6  and  C_12
REMARK    4  A    between atoms: N_7  and  C_16
REMARK    5  A    between atoms: N_8  and  C_24
REMARK    6  A    between atoms: C_14  and  C_17
REMARK    7  A    between atoms: C_16  and  C_18
REMARK    8  A    between atoms: C_16  and  C_23
REMARK    9  A    between atoms: C_18  and  C_19
REMARK   10  A    between atoms: C_19  and  C_21
REMARK   11  A    between atoms: C_19  and  C_22
REMARK   12  A    between atoms: C_29  and  C_30
REMARK                            x       y       z     vdW  Elec       q    Type
REMARK                         _______ _______ _______ _____ _____    ______ ____
ROOT
ATOM     10  C   UNL     1      -0.142   2.889   0.531  0.00  0.00    +0.167 C 
ATOM     11  C   UNL     1       1.078   3.756   0.198  0.00  0.00    +0.149 C 
ATOM     12  C   UNL     1      -0.244   1.671  -0.407  0.00  0.00    +0.129 C 
ATOM     13  C   UNL     1       2.387   2.949   0.229  0.00  0.00    +0.074 C 
ATOM     14  C   UNL     1       2.246   1.562  -0.332  0.00  0.00    +0.015 C 
ATOM     15  C   UNL     1       1.075   0.981  -0.630  0.00  0.00    +0.006 C 
ENDROOT
BRANCH  12   6
ATOM      4  O   UNL     1      -3.048   1.599  -0.988  0.00  0.00    -0.252 OA
ATOM      6  N   UNL     1      -1.200   0.706   0.076  0.00  0.00    -0.290 N 
ATOM      8  N   UNL     1      -3.238  -0.316   0.356  0.00  0.00    -0.269 N 
ATOM     20  C   UNL     1      -2.559   0.741  -0.256  0.00  0.00    +0.304 C 
ATOM     31  H   UNL     1      -0.885  -0.005   0.731  0.00  0.00    +0.151 HD
ATOM     35  H   UNL     1      -2.682  -0.942   0.934  0.00  0.00    +0.156 HD
BRANCH   8  24
ATOM     24  C   UNL     1      -4.615  -0.629   0.272  0.00  0.00    +0.035 A 
ATOM     25  C   UNL     1      -5.122  -1.733   0.957  0.00  0.00    +0.023 A 
ATOM     26  C   UNL     1      -5.465   0.166  -0.497  0.00  0.00    +0.023 A 
ATOM     27  C   UNL     1      -6.480  -2.042   0.874  0.00  0.00    +0.005 A 
ATOM     28  C   UNL     1      -6.823  -0.143  -0.580  0.00  0.00    +0.005 A 
ATOM     29  C   UNL     1      -7.330  -1.247   0.106  0.00  0.00    -0.050 A 
ATOM     30  C   UNL     1      -8.782  -1.577   0.018  0.00  0.00    +0.044 C 
ENDBRANCH   8  24
ENDBRANCH  12   6
BRANCH  14  17
ATOM      3  O   UNL     1       4.318   1.221  -1.369  0.00  0.00    -0.271 OA
ATOM      7  N   UNL     1       3.516  -0.395   0.109  0.00  0.00    -0.300 N 
ATOM     17  C   UNL     1       3.468   0.796  -0.594  0.00  0.00    +0.241 C 
ATOM     32  H   UNL     1       2.781  -0.608   0.778  0.00  0.00    +0.150 HD
BRANCH   7  16
ATOM     16  C   UNL     1       4.617  -1.318   0.013  0.00  0.00    +0.159 C 
BRANCH  16  23
ATOM      5  O   UNL     1       5.393  -0.367   2.112  0.00  0.00    -0.274 OA
ATOM      9  N   UNL     1       6.953  -1.136   0.612  0.00  0.00    -0.328 N 
ATOM     23  C   UNL     1       5.664  -0.870   1.024  0.00  0.00    +0.231 C 
ATOM     36  H   UNL     1       7.746  -0.900   1.199  0.00  0.00    +0.145 HD
ATOM     37  H   UNL     1       7.162  -1.573  -0.280  0.00  0.00    +0.145 HD
ENDBRANCH  16  23
BRANCH  16  18
ATOM     18  C   UNL     1       4.190  -2.764   0.296  0.00  0.00    +0.034 C 
BRANCH  18  19
ATOM     19  C   UNL     1       3.076  -3.301  -0.627  0.00  0.00    -0.015 C 
ATOM     21  C   UNL     1       3.484  -3.288  -2.101  0.00  0.00    +0.007 C 
ATOM     22  C   UNL     1       2.702  -4.726  -0.208  0.00  0.00    +0.007 C 
ENDBRANCH  18  19
ENDBRANCH  16  18
ENDBRANCH   7  16
ENDBRANCH  14  17
BRANCH  10   1
ATOM      1  O   UNL     1      -0.034   2.444   1.885  0.00  0.00    -0.387 OA
ATOM     33  H   UNL     1      -0.001   3.234   2.451  0.00  0.00    +0.210 HD
ENDBRANCH  10   1
BRANCH  11   2
ATOM      2  O   UNL     1       0.912   4.368  -1.080  0.00  0.00    -0.389 OA
ATOM     34  H   UNL     1       1.682   4.941  -1.234  0.00  0.00    +0.210 HD
ENDBRANCH  11   2
TORSDOF 9
