REMARK  Name = 75367679
REMARK  3 active torsions:
REMARK  status: ('A' for Active; 'I' for Inactive)
REMARK    1  A    between atoms: O_3  and  C_6
REMARK    2  A    between atoms: O_3  and  C_13
REMARK    3  A    between atoms: C_11  and  C_12
REMARK                            x       y       z     vdW  Elec       q    Type
REMARK                         _______ _______ _______ _____ _____    ______ ____
ROOT
ATOM      2  O   UNL     1      -1.406  -3.188  -0.822  0.00  0.00    -0.375 OA
ATOM      4  O   UNL     1       2.973  -2.380   1.043  0.00  0.00    -0.270 OA
ATOM      5  N   UNL     1       0.824  -1.537   0.635  0.00  0.00    -0.292 N 
ATOM      6  C   UNL     1      -1.404  -0.791  -0.363  0.00  0.00    +0.216 C 
ATOM      7  C   UNL     1      -0.020  -0.426   0.180  0.00  0.00    +0.155 C 
ATOM      8  C   UNL     1       0.176  -2.796   1.005  0.00  0.00    +0.136 C 
ATOM      9  C   UNL     1      -1.364  -1.895  -1.418  0.00  0.00    +0.206 C 
ATOM     10  C   UNL     1      -0.182  -3.611  -0.231  0.00  0.00    +0.179 C 
ATOM     11  C   UNL     1       2.226  -1.465   0.699  0.00  0.00    +0.247 C 
ENDROOT
BRANCH  11  12
ATOM      1  F   UNL     1       4.707   3.354  -0.713  0.00  0.00    -0.205 F 
ATOM     12  C   UNL     1       2.877  -0.199   0.328  0.00  0.00    +0.037 A 
ATOM     14  C   UNL     1       3.114   0.774   1.299  0.00  0.00    +0.016 A 
ATOM     15  C   UNL     1       3.258   0.029  -0.995  0.00  0.00    +0.016 A 
ATOM     18  C   UNL     1       3.732   1.974   0.948  0.00  0.00    +0.039 A 
ATOM     19  C   UNL     1       3.876   1.229  -1.346  0.00  0.00    +0.039 A 
ATOM     22  C   UNL     1       4.113   2.202  -0.375  0.00  0.00    +0.123 A 
ENDBRANCH  11  12
BRANCH   6   3
ATOM      3  O   UNL     1      -1.942   0.394  -0.950  0.00  0.00    -0.485 OA
BRANCH   3  13
ATOM     13  C   UNL     1      -3.089   0.886  -0.391  0.00  0.00    +0.121 A 
ATOM     16  C   UNL     1      -4.243   0.102  -0.360  0.00  0.00    +0.045 A 
ATOM     17  C   UNL     1      -3.106   2.173   0.149  0.00  0.00    +0.045 A 
ATOM     20  C   UNL     1      -5.413   0.605   0.210  0.00  0.00    +0.004 A 
ATOM     21  C   UNL     1      -4.276   2.675   0.719  0.00  0.00    +0.004 A 
ATOM     23  C   UNL     1      -5.429   1.891   0.749  0.00  0.00    +0.000 A 
ENDBRANCH   3  13
ENDBRANCH   6   3
TORSDOF 3
