REMARK  Name = 38030616
REMARK  12 active torsions:
REMARK  status: ('A' for Active; 'I' for Inactive)
REMARK    1  A    between atoms: O_1  and  C_23
REMARK    2  A    between atoms: N_3  and  C_10
REMARK    3  A    between atoms: C_6  and  C_11
REMARK    4  A    between atoms: C_7  and  C_10
REMARK    5  A    between atoms: C_9  and  C_17
REMARK    6  A    between atoms: C_11  and  C_20
REMARK    7  A    between atoms: C_11  and  C_21
REMARK    8  A    between atoms: C_13  and  C_22
REMARK    9  A    between atoms: C_16  and  C_23
REMARK   10  A    between atoms: C_17  and  C_24
REMARK   11  A    between atoms: C_25  and  C_26
REMARK   12  A    between atoms: C_31  and  C_32
REMARK                            x       y       z     vdW  Elec       q    Type
REMARK                         _______ _______ _______ _____ _____    ______ ____
ROOT
ATOM      6  C   UNL     1       1.673   1.384  -0.770  0.00  0.00    +0.000 C 
ATOM      7  C   UNL     1       2.719   1.779   0.298  0.00  0.00    +0.029 C 
ATOM      8  C   UNL     1       0.253   1.491  -0.198  0.00  0.00    +0.012 C 
ATOM      9  C   UNL     1      -0.081   2.894   0.353  0.00  0.00    +0.024 C 
ATOM     12  C   UNL     1       2.324   3.015   1.066  0.00  0.00    -0.023 C 
ATOM     13  C   UNL     1       1.083   3.535   1.094  0.00  0.00    -0.073 C 
ATOM     22  C   UNL     1       0.818   4.823   1.823  0.00  0.00    +0.039 C 
ENDROOT
BRANCH   6  11
ATOM     11  C   UNL     1       1.825   2.231  -2.041  0.00  0.00    -0.013 C 
ATOM     20  C   UNL     1       0.822   1.786  -3.100  0.00  0.00    +0.007 C 
ATOM     21  C   UNL     1       3.251   2.140  -2.575  0.00  0.00    +0.007 C 
ENDBRANCH   6  11
BRANCH   7  10
ATOM     10  C   UNL     1       2.981   0.636   1.284  0.00  0.00    +0.092 C 
BRANCH  10   3
ATOM      3  N   UNL     1       3.391  -0.575   0.573  0.00  0.00    -0.302 NA
ATOM     14  C   UNL     1       3.198  -1.759   1.422  0.00  0.00    +0.085 C 
ATOM     15  C   UNL     1       4.787  -0.463   0.129  0.00  0.00    +0.085 C 
ATOM     16  C   UNL     1       5.012  -2.981   0.152  0.00  0.00    +0.017 C 
ATOM     18  C   UNL     1       3.572  -3.041   0.674  0.00  0.00    +0.021 C 
ATOM     19  C   UNL     1       5.214  -1.700  -0.664  0.00  0.00    +0.021 C 
BRANCH  16  23
ATOM     23  C   UNL     1       5.346  -4.218  -0.678  0.00  0.00    +0.159 C 
BRANCH  23   1
ATOM      1  O   UNL     1       5.206  -5.362   0.144  0.00  0.00    -0.395 OA
ATOM     33  H   UNL     1       5.425  -6.136  -0.403  0.00  0.00    +0.209 HD
ENDBRANCH  23   1
ENDBRANCH  16  23
ENDBRANCH  10   3
ENDBRANCH   7  10
BRANCH   9  17
ATOM     17  C   UNL     1      -1.350   2.795   1.209  0.00  0.00    +0.105 C 
BRANCH  17  24
ATOM      2  O   UNL     1      -2.770   0.866   0.743  0.00  0.00    -0.420 OA
ATOM      4  N   UNL     1      -3.247   2.673  -0.487  0.00  0.00    -0.112 NA
ATOM      5  N   UNL     1      -4.120   1.665  -0.852  0.00  0.00    -0.107 NA
ATOM     24  C   UNL     1      -2.478   2.162   0.446  0.00  0.00    +0.218 A 
ATOM     25  C   UNL     1      -3.805   0.630  -0.109  0.00  0.00    +0.248 A 
BRANCH  25  26
ATOM     26  C   UNL     1      -4.373  -0.686  -0.057  0.00  0.00    +0.038 A 
ATOM     27  C   UNL     1      -4.174  -1.487   1.067  0.00  0.00    +0.013 A 
ATOM     28  C   UNL     1      -5.125  -1.164  -1.130  0.00  0.00    +0.013 A 
ATOM     29  C   UNL     1      -4.727  -2.767   1.119  0.00  0.00    +0.004 A 
ATOM     30  C   UNL     1      -5.678  -2.444  -1.079  0.00  0.00    +0.004 A 
ATOM     31  C   UNL     1      -5.479  -3.245   0.045  0.00  0.00    -0.050 A 
ATOM     32  C   UNL     1      -6.070  -4.613   0.100  0.00  0.00    +0.044 C 
ENDBRANCH  25  26
ENDBRANCH  17  24
ENDBRANCH   9  17
TORSDOF 8
