REMARK  Name = 28963061
REMARK  12 active torsions:
REMARK  status: ('A' for Active; 'I' for Inactive)
REMARK    1  A    between atoms: O_1  and  C_10
REMARK    2  A    between atoms: N_4  and  C_14
REMARK    3  A    between atoms: N_5  and  C_23
REMARK    4  A    between atoms: C_7  and  C_17
REMARK    5  A    between atoms: C_9  and  C_19
REMARK    6  A    between atoms: C_12  and  C_18
REMARK    7  A    between atoms: C_18  and  C_20
REMARK    8  A    between atoms: C_18  and  C_21
REMARK    9  A    between atoms: C_22  and  C_24
REMARK   10  A    between atoms: C_23  and  C_25
REMARK   11  A    between atoms: C_23  and  C_26
REMARK   12  A    between atoms: C_23  and  C_27
REMARK                            x       y       z     vdW  Elec       q    Type
REMARK                         _______ _______ _______ _____ _____    ______ ____
ROOT
ATOM      7  C   UNL     1       0.324   1.660   0.309  0.00  0.00    -0.027 C 
ATOM      8  C   UNL     1       0.192   0.132   0.000  0.00  0.00    +0.028 C 
ATOM      9  C   UNL     1      -1.254  -0.384   0.333  0.00  0.00    +0.012 C 
ATOM     10  C   UNL     1       1.355  -0.676   0.647  0.00  0.00    +0.122 C 
ATOM     11  C   UNL     1       1.720   2.158  -0.135  0.00  0.00    +0.007 C 
ATOM     12  C   UNL     1       2.747  -0.109   0.283  0.00  0.00    +0.029 C 
ATOM     13  C   UNL     1      -0.734   2.433  -0.513  0.00  0.00    +0.009 C 
ATOM     14  C   UNL     1      -2.314   0.450  -0.441  0.00  0.00    +0.076 C 
ATOM     15  C   UNL     1       2.860   1.396   0.526  0.00  0.00    +0.007 C 
ATOM     16  C   UNL     1      -2.157   1.959  -0.252  0.00  0.00    +0.023 C 
ATOM     17  C   UNL     1       0.136   1.981   1.813  0.00  0.00    +0.011 C 
ATOM     19  C   UNL     1      -1.462  -1.876   0.026  0.00  0.00    +0.010 C 
ENDROOT
BRANCH  14   4
ATOM      3  O   UNL     1      -4.633   0.499  -2.134  0.00  0.00    -0.269 OA
ATOM      4  N   UNL     1      -3.663   0.079  -0.070  0.00  0.00    -0.307 N 
ATOM     22  C   UNL     1      -4.719   0.138  -0.963  0.00  0.00    +0.263 C 
ATOM     32  H   UNL     1      -3.845  -0.177   0.897  0.00  0.00    +0.149 HD
BRANCH  22  24
ATOM      6  N   UNL     1      -6.063  -0.614   0.882  0.00  0.00    -0.250 NA
ATOM     24  C   UNL     1      -6.046  -0.251  -0.420  0.00  0.00    +0.125 A 
ATOM     28  C   UNL     1      -7.168  -0.227  -1.233  0.00  0.00    +0.033 A 
ATOM     29  C   UNL     1      -8.385  -0.599  -0.674  0.00  0.00    +0.004 A 
ATOM     30  C   UNL     1      -7.264  -0.969   1.391  0.00  0.00    +0.111 A 
ATOM     31  C   UNL     1      -8.443  -0.978   0.663  0.00  0.00    +0.020 A 
ENDBRANCH  22  24
ENDBRANCH  14   4
BRANCH  10   1
ATOM      1  O   UNL     1       1.324  -2.021   0.169  0.00  0.00    -0.391 OA
ATOM     33  H   UNL     1       1.426  -2.001  -0.798  0.00  0.00    +0.210 HD
ENDBRANCH  10   1
BRANCH  12  18
ATOM     18  C   UNL     1       3.870  -0.835   1.032  0.00  0.00    +0.077 C 
ATOM     20  C   UNL     1       3.672  -0.698   2.538  0.00  0.00    +0.017 C 
BRANCH  18  21
ATOM      2  O   UNL     1       5.782   0.644   1.178  0.00  0.00    -0.275 OA
ATOM      5  N   UNL     1       5.738  -0.948  -0.508  0.00  0.00    -0.310 N 
ATOM     21  C   UNL     1       5.225  -0.285   0.598  0.00  0.00    +0.217 C 
ATOM     34  H   UNL     1       5.194  -1.697  -0.928  0.00  0.00    +0.149 HD
BRANCH   5  23
ATOM     23  C   UNL     1       7.008  -0.605  -1.105  0.00  0.00    +0.026 C 
ATOM     25  C   UNL     1       7.270  -1.527  -2.302  0.00  0.00    +0.031 C 
ATOM     26  C   UNL     1       6.963   0.853  -1.574  0.00  0.00    +0.031 C 
ATOM     27  C   UNL     1       8.121  -0.782  -0.066  0.00  0.00    +0.031 C 
ENDBRANCH   5  23
ENDBRANCH  18  21
ENDBRANCH  12  18
TORSDOF 6
