REMARK  Name = 26762014
REMARK  4 active torsions:
REMARK  status: ('A' for Active; 'I' for Inactive)
REMARK    1  A    between atoms: C_11  and  C_16
REMARK    2  A    between atoms: C_17  and  C_19
REMARK    3  A    between atoms: C_20  and  C_21
REMARK    4  A    between atoms: C_31  and  C_33
REMARK                            x       y       z     vdW  Elec       q    Type
REMARK                         _______ _______ _______ _____ _____    ______ ____
ROOT
ATOM      2  O   UNL     1      -2.790  -0.225  -2.727  0.00  0.00    -0.270 OA
ATOM      5  N   UNL     1      -1.806   0.761  -0.841  0.00  0.00    -0.280 N 
ATOM      6  N   UNL     1      -1.395   2.996   2.118  0.00  0.00    -0.347 N 
ATOM      7  N   UNL     1      -0.528   4.428   0.638  0.00  0.00    -0.240 NA
ATOM     11  C   UNL     1      -0.695   1.385  -1.635  0.00  0.00    +0.171 C 
ATOM     12  C   UNL     1      -0.627   2.925  -1.399  0.00  0.00    +0.089 C 
ATOM     13  C   UNL     1      -1.808   0.963   0.636  0.00  0.00    +0.163 C 
ATOM     14  C   UNL     1      -0.832   3.242   0.032  0.00  0.00    +0.066 A 
ATOM     15  C   UNL     1      -1.370   2.344   0.921  0.00  0.00    +0.056 A 
ATOM     17  C   UNL     1      -2.752  -0.030  -1.512  0.00  0.00    +0.248 C 
ATOM     18  C   UNL     1      -0.878   4.247   1.896  0.00  0.00    +0.197 A 
ATOM     34  H   UNL     1      -1.727   2.631   3.001  0.00  0.00    +0.167 HD
ENDROOT
BRANCH  17  19
ATOM     19  C   UNL     1      -3.785  -0.708  -0.715  0.00  0.00    +0.037 A 
ATOM     22  C   UNL     1      -4.996  -0.068  -0.452  0.00  0.00    +0.014 A 
ATOM     23  C   UNL     1      -3.553  -1.992  -0.221  0.00  0.00    +0.014 A 
ATOM     28  C   UNL     1      -5.975  -0.712   0.303  0.00  0.00    +0.019 A 
ATOM     29  C   UNL     1      -4.532  -2.635   0.535  0.00  0.00    +0.019 A 
ATOM     31  C   UNL     1      -5.744  -1.996   0.797  0.00  0.00    +0.052 A 
BRANCH  31  33
ATOM     10  N   UNL     1      -7.562  -3.190   2.201  0.00  0.00    -0.191 NA
ATOM     33  C   UNL     1      -6.747  -2.655   1.572  0.00  0.00    +0.099 C 
ENDBRANCH  31  33
ENDBRANCH  17  19
BRANCH  11  16
ATOM      1  O   UNL     1       0.779  -0.483  -2.237  0.00  0.00    -0.336 OA
ATOM      8  N   UNL     1       1.588   0.824  -0.608  0.00  0.00    -0.190 NA
ATOM      9  N   UNL     1       2.019  -1.028  -1.880  0.00  0.00    -0.056 NA
ATOM     16  C   UNL     1       0.602   0.604  -1.441  0.00  0.00    +0.249 A 
ATOM     20  C   UNL     1       2.433  -0.203  -0.915  0.00  0.00    +0.202 A 
BRANCH  20  21
ATOM      3  O   UNL     1       6.652  -2.531  -0.106  0.00  0.00    -0.453 OA
ATOM      4  O   UNL     1       7.298  -0.977   1.619  0.00  0.00    -0.453 OA
ATOM     21  C   UNL     1       3.687  -0.374  -0.238  0.00  0.00    +0.026 A 
ATOM     24  C   UNL     1       4.522  -1.439  -0.585  0.00  0.00    +0.061 A 
ATOM     25  C   UNL     1       4.063   0.533   0.768  0.00  0.00    +0.015 A 
ATOM     26  C   UNL     1       5.717  -1.562   0.093  0.00  0.00    +0.167 A 
ATOM     27  C   UNL     1       6.086  -0.675   1.078  0.00  0.00    +0.166 A 
ATOM     30  C   UNL     1       5.280   0.385   1.439  0.00  0.00    +0.050 A 
ATOM     32  C   UNL     1       7.651  -2.154   0.864  0.00  0.00    +0.466 C 
ENDBRANCH  20  21
ENDBRANCH  11  16
TORSDOF 4
