REMARK  Name = 45361559
REMARK  9 active torsions:
REMARK  status: ('A' for Active; 'I' for Inactive)
REMARK    1  A    between atoms: O_1  and  C_10
REMARK    2  A    between atoms: N_4  and  C_14
REMARK    3  A    between atoms: N_5  and  C_23
REMARK    4  A    between atoms: C_7  and  C_17
REMARK    5  A    between atoms: C_9  and  C_19
REMARK    6  A    between atoms: C_12  and  C_18
REMARK    7  A    between atoms: C_18  and  C_20
REMARK    8  A    between atoms: C_18  and  C_21
REMARK    9  A    between atoms: C_22  and  C_26
REMARK                            x       y       z     vdW  Elec       q    Type
REMARK                         _______ _______ _______ _____ _____    ______ ____
ROOT
ATOM      7  C   UNL     1      -0.082   0.249   1.640  0.00  0.00    -0.027 C 
ATOM      8  C   UNL     1       0.083   0.345   0.087  0.00  0.00    +0.028 C 
ATOM      9  C   UNL     1       1.574   0.656  -0.299  0.00  0.00    +0.012 C 
ATOM     10  C   UNL     1      -0.980   1.294  -0.536  0.00  0.00    +0.122 C 
ATOM     11  C   UNL     1      -1.532  -0.169   1.980  0.00  0.00    +0.007 C 
ATOM     12  C   UNL     1      -2.422   0.934  -0.108  0.00  0.00    +0.029 C 
ATOM     13  C   UNL     1       0.864  -0.848   2.181  0.00  0.00    +0.009 C 
ATOM     14  C   UNL     1       2.523  -0.413   0.314  0.00  0.00    +0.076 C 
ATOM     15  C   UNL     1      -2.574   0.781   1.406  0.00  0.00    +0.007 C 
ATOM     16  C   UNL     1       2.322  -0.614   1.815  0.00  0.00    +0.023 C 
ATOM     17  C   UNL     1       0.231   1.589   2.354  0.00  0.00    +0.011 C 
ATOM     19  C   UNL     1       1.814   0.735  -1.816  0.00  0.00    +0.010 C 
ENDROOT
BRANCH  14   4
ATOM      3  O   UNL     1       4.672  -2.280  -0.057  0.00  0.00    -0.270 OA
ATOM      4  N   UNL     1       3.915  -0.093   0.075  0.00  0.00    -0.308 N 
ATOM     22  C   UNL     1       4.881  -1.070  -0.091  0.00  0.00    +0.244 C 
ATOM     34  H   UNL     1       4.180   0.884   0.146  0.00  0.00    +0.149 HD
BRANCH  22  26
ATOM      6  N   UNL     1       8.875   0.348  -0.690  0.00  0.00    -0.263 NA
ATOM     26  C   UNL     1       6.267  -0.579  -0.300  0.00  0.00    +0.040 A 
ATOM     30  C   UNL     1       7.351  -1.366   0.072  0.00  0.00    +0.033 A 
ATOM     31  C   UNL     1       6.486   0.672  -0.868  0.00  0.00    +0.033 A 
ATOM     32  C   UNL     1       8.623  -0.862  -0.141  0.00  0.00    +0.111 A 
ATOM     33  C   UNL     1       7.797   1.085  -1.040  0.00  0.00    +0.111 A 
ENDBRANCH  22  26
ENDBRANCH  14   4
BRANCH  10   1
ATOM      1  O   UNL     1      -0.939   1.189  -1.960  0.00  0.00    -0.391 OA
ATOM     35  H   UNL     1      -1.127   0.266  -2.200  0.00  0.00    +0.210 HD
ENDBRANCH  10   1
BRANCH  12  18
ATOM     18  C   UNL     1      -3.442   1.957  -0.624  0.00  0.00    +0.077 C 
ATOM     20  C   UNL     1      -3.111   3.345  -0.086  0.00  0.00    +0.017 C 
BRANCH  18  21
ATOM      2  O   UNL     1      -5.594   2.234   0.450  0.00  0.00    -0.276 OA
ATOM      5  N   UNL     1      -5.185   0.276  -0.724  0.00  0.00    -0.312 N 
ATOM     21  C   UNL     1      -4.852   1.530  -0.231  0.00  0.00    +0.216 C 
ATOM     36  H   UNL     1      -4.516  -0.229  -1.295  0.00  0.00    +0.149 HD
BRANCH   5  23
ATOM     23  C   UNL     1      -6.468  -0.344  -0.481  0.00  0.00    +0.073 C 
ATOM     24  C   UNL     1      -6.886  -1.225  -1.664  0.00  0.00    +0.022 C 
ATOM     25  C   UNL     1      -6.456  -1.141   0.828  0.00  0.00    +0.022 C 
ATOM     27  C   UNL     1      -6.057  -2.505  -1.762  0.00  0.00    +0.002 C 
ATOM     28  C   UNL     1      -5.628  -2.422   0.726  0.00  0.00    +0.002 C 
ATOM     29  C   UNL     1      -6.070  -3.286  -0.451  0.00  0.00    +0.000 C 
ENDBRANCH   5  23
ENDBRANCH  18  21
ENDBRANCH  12  18
TORSDOF 6
