REMARK  Name = 11887582
REMARK  13 active torsions:
REMARK  status: ('A' for Active; 'I' for Inactive)
REMARK    1  A    between atoms: O_4  and  C_20
REMARK    2  A    between atoms: O_4  and  C_30
REMARK    3  A    between atoms: O_5  and  C_23
REMARK    4  A    between atoms: O_5  and  C_35
REMARK    5  A    between atoms: O_7  and  C_33
REMARK    6  A    between atoms: O_7  and  C_36
REMARK    7  A    between atoms: N_10  and  C_19
REMARK    8  A    between atoms: C_12  and  C_16
REMARK    9  A    between atoms: C_17  and  C_20
REMARK   10  A    between atoms: C_18  and  C_22
REMARK   11  A    between atoms: C_19  and  C_21
REMARK   12  A    between atoms: C_19  and  C_23
REMARK   13  A    between atoms: C_21  and  C_24
REMARK                            x       y       z     vdW  Elec       q    Type
REMARK                         _______ _______ _______ _____ _____    ______ ____
ROOT
ATOM      2  O   UNL     1       2.597  -2.546  -1.717  0.00  0.00    -0.273 OA
ATOM      3  O   UNL     1       3.076   4.015   1.149  0.00  0.00    -0.270 OA
ATOM      8  N   UNL     1       3.107  -0.544  -0.646  0.00  0.00    -0.285 N 
ATOM      9  N   UNL     1       2.597   2.235  -0.289  0.00  0.00    -0.294 N 
ATOM     12  C   UNL     1       1.731  -0.042  -0.755  0.00  0.00    +0.179 C 
ATOM     13  C   UNL     1       1.652   1.448  -1.090  0.00  0.00    +0.140 C 
ATOM     14  C   UNL     1       4.056   0.303   0.097  0.00  0.00    +0.127 C 
ATOM     15  C   UNL     1       3.975   1.758  -0.345  0.00  0.00    +0.127 C 
ATOM     17  C   UNL     1       3.393  -1.838  -1.095  0.00  0.00    +0.242 C 
ATOM     18  C   UNL     1       2.281   3.355   0.481  0.00  0.00    +0.248 C 
ENDROOT
BRANCH  18  22
ATOM     11  N   UNL     1      -0.862   5.178  -0.450  0.00  0.00    -0.263 NA
ATOM     22  C   UNL     1       0.883   3.804   0.506  0.00  0.00    +0.055 A 
ATOM     25  C   UNL     1      -0.008   3.319   1.456  0.00  0.00    +0.016 A 
ATOM     26  C   UNL     1       0.411   4.723  -0.417  0.00  0.00    +0.123 A 
ATOM     29  C   UNL     1      -1.326   3.762   1.455  0.00  0.00    +0.020 A 
ATOM     34  C   UNL     1      -1.700   4.684   0.489  0.00  0.00    +0.111 A 
ENDBRANCH  18  22
BRANCH  12  16
ATOM      1  O   UNL     1       1.445   0.141   1.611  0.00  0.00    -0.274 OA
ATOM     10  N   UNL     1       0.012  -1.243   0.406  0.00  0.00    -0.301 N 
ATOM     16  C   UNL     1       1.060  -0.351   0.553  0.00  0.00    +0.236 C 
ATOM     37  H   UNL     1      -0.233  -1.583  -0.519  0.00  0.00    +0.150 HD
BRANCH  10  19
ATOM     19  C   UNL     1      -0.782  -1.720   1.516  0.00  0.00    +0.186 C 
BRANCH  19  23
ATOM      6  O   UNL     1      -1.004  -3.801   0.308  0.00  0.00    -0.249 OA
ATOM     23  C   UNL     1      -1.223  -3.166   1.334  0.00  0.00    +0.328 C 
BRANCH  23   5
ATOM      5  O   UNL     1      -1.889  -3.641   2.424  0.00  0.00    -0.467 OA
ATOM     35  C   UNL     1      -2.355  -4.991   2.328  0.00  0.00    +0.280 C 
ENDBRANCH  23   5
ENDBRANCH  19  23
BRANCH  19  21
ATOM     21  C   UNL     1      -1.970  -0.786   1.793  0.00  0.00    +0.069 C 
BRANCH  21  24
ATOM     24  C   UNL     1      -2.983  -0.703   0.674  0.00  0.00    -0.045 A 
ATOM     27  C   UNL     1      -4.061  -1.587   0.641  0.00  0.00    +0.007 A 
ATOM     28  C   UNL     1      -2.839   0.259  -0.327  0.00  0.00    +0.007 A 
ATOM     31  C   UNL     1      -4.995  -1.510  -0.391  0.00  0.00    +0.046 A 
ATOM     32  C   UNL     1      -3.773   0.336  -1.360  0.00  0.00    +0.046 A 
ATOM     33  C   UNL     1      -4.851  -0.549  -1.392  0.00  0.00    +0.120 A 
BRANCH  33   7
ATOM      7  O   UNL     1      -5.763  -0.474  -2.400  0.00  0.00    -0.495 OA
ATOM     36  C   UNL     1      -5.554   0.532  -3.390  0.00  0.00    +0.277 C 
ENDBRANCH  33   7
ENDBRANCH  21  24
ENDBRANCH  19  21
ENDBRANCH  10  19
ENDBRANCH  12  16
BRANCH  17  20
ATOM     20  C   UNL     1       4.770  -2.372  -0.789  0.00  0.00    +0.255 C 
BRANCH  20   4
ATOM      4  O   UNL     1       4.815  -3.683  -1.298  0.00  0.00    -0.374 OA
ATOM     30  C   UNL     1       6.078  -4.304  -1.069  0.00  0.00    +0.194 C 
ENDBRANCH  20   4
ENDBRANCH  17  20
TORSDOF 10
