REMARK  Name = 26743240
REMARK  8 active torsions:
REMARK  status: ('A' for Active; 'I' for Inactive)
REMARK    1  A    between atoms: N_5  and  C_24
REMARK    2  A    between atoms: C_6  and  C_11
REMARK    3  A    between atoms: C_7  and  C_13
REMARK    4  A    between atoms: C_10  and  C_18
REMARK    5  A    between atoms: C_11  and  C_20
REMARK    6  A    between atoms: C_13  and  C_23
REMARK    7  A    between atoms: C_18  and  C_21
REMARK    8  A    between atoms: C_24  and  C_25
REMARK                            x       y       z     vdW  Elec       q    Type
REMARK                         _______ _______ _______ _____ _____    ______ ____
ROOT
ATOM      3  N   UNL     1       5.743  -0.359  -0.823  0.00  0.00    -0.316 NA
ATOM      6  C   UNL     1       3.759   0.500   0.399  0.00  0.00    +0.012 C 
ATOM      7  C   UNL     1       2.805  -0.196  -0.601  0.00  0.00    +0.004 C 
ATOM      8  C   UNL     1       3.539  -0.398  -1.938  0.00  0.00    +0.019 C 
ATOM      9  C   UNL     1       5.112  -0.225   0.491  0.00  0.00    +0.085 C 
ATOM     12  C   UNL     1       4.892  -1.086  -1.762  0.00  0.00    +0.081 C 
ATOM     31  H   UNL     1       6.631  -0.850  -0.722  0.00  0.00    +0.122 HD
ENDROOT
BRANCH   6  11
ATOM     11  C   UNL     1       3.147   0.673   1.790  0.00  0.00    +0.064 C 
BRANCH  11  20
ATOM      1  O   UNL     1       0.580   3.197   1.749  0.00  0.00    -0.359 OA
ATOM      4  N   UNL     1       1.905   2.792   1.847  0.00  0.00    -0.083 NA
ATOM     20  C   UNL     1       1.871   1.462   1.731  0.00  0.00    +0.084 A 
ATOM     21  C   UNL     1      -0.210   2.106   1.578  0.00  0.00    +0.138 A 
ATOM     22  C   UNL     1       0.563   0.975   1.560  0.00  0.00    +0.071 A 
BRANCH  21  18
ATOM     18  C   UNL     1      -1.652   2.353   1.455  0.00  0.00    +0.080 C 
BRANCH  18  10
ATOM     10  C   UNL     1      -2.157   2.259   0.016  0.00  0.00    -0.004 C 
ATOM     14  C   UNL     1      -3.674   2.485  -0.041  0.00  0.00    +0.004 C 
ATOM     15  C   UNL     1      -1.420   3.260  -0.884  0.00  0.00    +0.004 C 
ATOM     16  C   UNL     1      -4.195   2.449  -1.476  0.00  0.00    +0.000 C 
ATOM     17  C   UNL     1      -1.946   3.222  -2.317  0.00  0.00    +0.000 C 
ATOM     19  C   UNL     1      -3.455   3.439  -2.369  0.00  0.00    +0.000 C 
ENDBRANCH  18  10
ENDBRANCH  21  18
ENDBRANCH  11  20
ENDBRANCH   6  11
BRANCH   7  13
ATOM     13  C   UNL     1       2.226  -1.522  -0.092  0.00  0.00    +0.099 C 
BRANCH  13  23
ATOM      2  O   UNL     1       0.450  -1.231  -1.708  0.00  0.00    -0.276 OA
ATOM      5  N   UNL     1       0.466  -3.123  -0.359  0.00  0.00    -0.311 N 
ATOM     23  C   UNL     1       0.960  -1.913  -0.823  0.00  0.00    +0.214 C 
ATOM     32  H   UNL     1       0.953  -3.603   0.393  0.00  0.00    +0.149 HD
BRANCH   5  24
ATOM     24  C   UNL     1      -0.735  -3.737  -0.877  0.00  0.00    +0.139 C 
BRANCH  24  25
ATOM     25  C   UNL     1      -1.958  -3.301  -0.124  0.00  0.00    -0.030 A 
ATOM     26  C   UNL     1      -2.385  -4.023   0.990  0.00  0.00    +0.005 A 
ATOM     27  C   UNL     1      -2.669  -2.175  -0.539  0.00  0.00    +0.005 A 
ATOM     28  C   UNL     1      -3.522  -3.619   1.690  0.00  0.00    +0.000 A 
ATOM     29  C   UNL     1      -3.806  -1.770   0.161  0.00  0.00    +0.000 A 
ATOM     30  C   UNL     1      -4.232  -2.492   1.275  0.00  0.00    +0.000 A 
ENDBRANCH  24  25
ENDBRANCH   5  24
ENDBRANCH  13  23
ENDBRANCH   7  13
TORSDOF 8
