REMARK  Name = 26744016
REMARK  8 active torsions:
REMARK  status: ('A' for Active; 'I' for Inactive)
REMARK    1  A    between atoms: S_1  and  C_20
REMARK    2  A    between atoms: S_1  and  C_23
REMARK    3  A    between atoms: O_3  and  C_12
REMARK    4  A    between atoms: N_7  and  C_14
REMARK    5  A    between atoms: C_10  and  C_15
REMARK    6  A    between atoms: C_14  and  C_16
REMARK    7  A    between atoms: C_17  and  C_20
REMARK    8  A    between atoms: C_29  and  C_30
REMARK                            x       y       z     vdW  Elec       q    Type
REMARK                         _______ _______ _______ _____ _____    ______ ____
ROOT
ATOM      4  O   UNL     1      -0.699   3.285  -1.229  0.00  0.00    -0.336 OA
ATOM      8  N   UNL     1      -0.290   1.637   0.232  0.00  0.00    -0.193 NA
ATOM      9  N   UNL     1       0.695   3.190  -1.129  0.00  0.00    -0.060 NA
ATOM     15  C   UNL     1      -1.201   2.336  -0.396  0.00  0.00    +0.245 A 
ATOM     17  C   UNL     1       0.857   2.197  -0.249  0.00  0.00    +0.193 A 
ENDROOT
BRANCH  15  10
ATOM      7  N   UNL     1      -3.169   0.873   0.031  0.00  0.00    -0.285 NA
ATOM     10  C   UNL     1      -2.710   2.231  -0.324  0.00  0.00    +0.149 C 
ATOM     11  C   UNL     1      -3.320   3.148   0.753  0.00  0.00    +0.061 C 
ATOM     12  C   UNL     1      -4.141   2.221   1.640  0.00  0.00    +0.130 C 
ATOM     13  C   UNL     1      -4.438   1.037   0.739  0.00  0.00    +0.116 C 
BRANCH  12   3
ATOM      3  O   UNL     1      -5.326   2.861   2.074  0.00  0.00    -0.390 OA
ATOM     31  H   UNL     1      -5.064   3.649   2.579  0.00  0.00    +0.210 HD
ENDBRANCH  12   3
BRANCH   7  14
ATOM     14  C   UNL     1      -3.295  -0.011  -1.120  0.00  0.00    +0.120 C 
BRANCH  14  16
ATOM      2  F   UNL     1      -3.215  -5.440   0.384  0.00  0.00    -0.205 F 
ATOM     16  C   UNL     1      -3.273  -1.462  -0.718  0.00  0.00    -0.033 A 
ATOM     18  C   UNL     1      -2.062  -2.149  -0.651  0.00  0.00    +0.008 A 
ATOM     19  C   UNL     1      -4.466  -2.118  -0.413  0.00  0.00    +0.008 A 
ATOM     21  C   UNL     1      -2.042  -3.493  -0.279  0.00  0.00    +0.038 A 
ATOM     22  C   UNL     1      -4.446  -3.462  -0.041  0.00  0.00    +0.038 A 
ATOM     24  C   UNL     1      -3.234  -4.150   0.026  0.00  0.00    +0.123 A 
ENDBRANCH  14  16
ENDBRANCH   7  14
ENDBRANCH  15  10
BRANCH  17  20
ATOM     20  C   UNL     1       2.187   1.739   0.169  0.00  0.00    +0.251 C 
BRANCH  20   1
ATOM      1  S   UNL     1       2.516   0.177  -0.599  0.00  0.00    +0.004 S 
ATOM      5  O   UNL     1       2.533   0.390  -2.034  0.00  0.00    -0.169 OA
ATOM      6  O   UNL     1       1.639  -0.819  -0.013  0.00  0.00    -0.169 OA
BRANCH   1  23
ATOM     23  C   UNL     1       4.161  -0.210  -0.082  0.00  0.00    +0.089 A 
ATOM     25  C   UNL     1       4.370  -0.932   1.093  0.00  0.00    +0.027 A 
ATOM     26  C   UNL     1       5.249   0.210  -0.847  0.00  0.00    +0.027 A 
ATOM     27  C   UNL     1       5.669  -1.236   1.503  0.00  0.00    +0.005 A 
ATOM     28  C   UNL     1       6.548  -0.093  -0.437  0.00  0.00    +0.005 A 
ATOM     29  C   UNL     1       6.757  -0.816   0.738  0.00  0.00    -0.050 A 
ATOM     30  C   UNL     1       8.145  -1.141   1.176  0.00  0.00    +0.044 C 
ENDBRANCH   1  23
ENDBRANCH  20   1
ENDBRANCH  17  20
TORSDOF 7
