REMARK  Name = 11884262
REMARK  5 active torsions:
REMARK  status: ('A' for Active; 'I' for Inactive)
REMARK    1  A    between atoms: O_5  and  C_22
REMARK    2  A    between atoms: O_6  and  C_25
REMARK    3  A    between atoms: O_6  and  C_30
REMARK    4  A    between atoms: C_18  and  C_22
REMARK    5  A    between atoms: C_21  and  C_24
REMARK                            x       y       z     vdW  Elec       q    Type
REMARK                         _______ _______ _______ _____ _____    ______ ____
ROOT
ATOM      2  O   UNL     1      -3.480  -0.784   1.930  0.00  0.00    -0.273 OA
ATOM      3  O   UNL     1      -0.175   2.105  -1.014  0.00  0.00    -0.270 OA
ATOM      4  O   UNL     1      -6.470  -1.605  -0.560  0.00  0.00    -0.273 OA
ATOM      7  N   UNL     1      -1.925   0.650  -0.597  0.00  0.00    -0.283 N 
ATOM      8  N   UNL     1      -4.738  -0.053  -0.688  0.00  0.00    -0.296 N 
ATOM      9  N   UNL     1      -1.209  -0.638   1.969  0.00  0.00    -0.283 N 
ATOM     10  C   UNL     1      -2.365  -0.683  -0.209  0.00  0.00    +0.180 C 
ATOM     11  C   UNL     1      -3.702  -1.075  -0.850  0.00  0.00    +0.139 C 
ATOM     12  C   UNL     1      -2.902   1.513  -1.263  0.00  0.00    +0.128 C 
ATOM     13  C   UNL     1      -4.298   1.344  -0.682  0.00  0.00    +0.127 C 
ATOM     14  C   UNL     1      -2.420  -0.676   1.310  0.00  0.00    +0.239 C 
ATOM     15  C   UNL     1      -0.597   1.058  -0.518  0.00  0.00    +0.249 C 
ATOM     16  C   UNL     1       0.374   0.212   0.227  0.00  0.00    +0.059 A 
ATOM     17  C   UNL     1       0.079  -0.469   1.418  0.00  0.00    +0.046 A 
ATOM     18  C   UNL     1      -6.075  -0.442  -0.558  0.00  0.00    +0.241 C 
ATOM     19  C   UNL     1       1.706   0.267  -0.224  0.00  0.00    +0.023 A 
ATOM     20  C   UNL     1       1.134  -1.019   2.167  0.00  0.00    +0.024 A 
ATOM     21  C   UNL     1       2.734  -0.327   0.507  0.00  0.00    -0.014 A 
ATOM     23  C   UNL     1       2.450  -0.958   1.710  0.00  0.00    +0.010 A 
ATOM     31  H   UNL     1      -1.244  -0.857   2.962  0.00  0.00    +0.155 HD
ENDROOT
BRANCH  21  24
ATOM      1 CL   UNL     1       6.482  -2.508  -2.276  0.00  0.00    -0.084 Cl
ATOM     24  C   UNL     1       4.097  -0.264   0.025  0.00  0.00    +0.025 A 
ATOM     25  C   UNL     1       4.931   0.802   0.366  0.00  0.00    +0.128 A 
ATOM     26  C   UNL     1       4.579  -1.288  -0.793  0.00  0.00    +0.032 A 
ATOM     27  C   UNL     1       6.242   0.845  -0.108  0.00  0.00    +0.047 A 
ATOM     28  C   UNL     1       5.890  -1.245  -1.268  0.00  0.00    +0.042 A 
ATOM     29  C   UNL     1       6.721  -0.179  -0.925  0.00  0.00    +0.023 A 
BRANCH  25   6
ATOM      6  O   UNL     1       4.488   1.817   1.163  0.00  0.00    -0.495 OA
ATOM     30  C   UNL     1       3.886   2.934   0.513  0.00  0.00    +0.277 C 
ENDBRANCH  25   6
ENDBRANCH  21  24
BRANCH  18  22
ATOM     22  C   UNL     1      -7.091   0.648  -0.425  0.00  0.00    +0.251 C 
BRANCH  22   5
ATOM      5  O   UNL     1      -8.347   0.019  -0.347  0.00  0.00    -0.386 OA
ATOM     32  H   UNL     1      -8.530  -0.390  -1.210  0.00  0.00    +0.210 HD
ENDBRANCH  22   5
ENDBRANCH  18  22
TORSDOF 4
