REMARK  Name = 40780092
REMARK  7 active torsions:
REMARK  status: ('A' for Active; 'I' for Inactive)
REMARK    1  A    between atoms: N_3  and  C_24
REMARK    2  A    between atoms: N_4  and  C_16
REMARK    3  A    between atoms: N_6  and  C_27
REMARK    4  A    between atoms: C_9  and  C_15
REMARK    5  A    between atoms: C_10  and  C_16
REMARK    6  A    between atoms: C_18  and  C_19
REMARK    7  A    between atoms: C_30  and  C_33
REMARK                            x       y       z     vdW  Elec       q    Type
REMARK                         _______ _______ _______ _____ _____    ______ ____
ROOT
ATOM      2  N   UNL     1       0.943   3.501  -0.461  0.00  0.00    -0.297 NA
ATOM      8  C   UNL     1       1.842   2.225   1.623  0.00  0.00    +0.002 C 
ATOM      9  C   UNL     1       2.940   2.318   0.528  0.00  0.00    +0.055 C 
ATOM     10  C   UNL     1      -0.016   2.437  -0.064  0.00  0.00    +0.074 C 
ATOM     11  C   UNL     1       0.591   1.539   1.035  0.00  0.00    +0.024 C 
ATOM     12  C   UNL     1       2.272   2.906  -0.748  0.00  0.00    +0.094 C 
ATOM     13  C   UNL     1       1.441   3.673   1.976  0.00  0.00    +0.019 C 
ATOM     14  C   UNL     1       1.089   4.431   0.684  0.00  0.00    +0.085 C 
ENDROOT
BRANCH   9  15
ATOM      3  N   UNL     1       5.058   1.123  -0.200  0.00  0.00    -0.271 N 
ATOM      5  N   UNL     1       5.607  -0.086  -0.409  0.00  0.00    -0.176 NA
ATOM     15  C   UNL     1       3.763   1.074   0.227  0.00  0.00    +0.044 A 
ATOM     17  C   UNL     1       3.443  -0.260   0.302  0.00  0.00    +0.048 A 
ATOM     18  C   UNL     1       4.616  -0.926  -0.100  0.00  0.00    +0.066 A 
ATOM     24  C   UNL     1       5.849   2.308  -0.436  0.00  0.00    +0.172 C 
BRANCH  18  19
ATOM     19  C   UNL     1       4.838  -2.424  -0.207  0.00  0.00    +0.040 C 
ATOM     20  C   UNL     1       3.907  -3.068  -1.249  0.00  0.00    +0.010 C 
ATOM     21  C   UNL     1       4.702  -3.122   1.158  0.00  0.00    +0.010 C 
ATOM     22  C   UNL     1       4.144  -4.573  -1.357  0.00  0.00    +0.001 C 
ATOM     23  C   UNL     1       4.936  -4.627   1.041  0.00  0.00    +0.001 C 
ATOM     25  C   UNL     1       4.018  -5.261  -0.000  0.00  0.00    +0.000 C 
ENDBRANCH  18  19
ENDBRANCH   9  15
BRANCH  10  16
ATOM     16  C   UNL     1      -0.508   1.619  -1.260  0.00  0.00    +0.124 C 
BRANCH  16   4
ATOM      1  O   UNL     1      -3.336   2.072  -1.188  0.00  0.00    -0.253 OA
ATOM      4  N   UNL     1      -1.514   0.684  -0.861  0.00  0.00    -0.298 N 
ATOM      6  N   UNL     1      -3.628  -0.126  -0.415  0.00  0.00    -0.269 N 
ATOM     26  C   UNL     1      -2.889   0.978  -0.851  0.00  0.00    +0.304 C 
ATOM     34  H   UNL     1      -1.218  -0.241  -0.565  0.00  0.00    +0.150 HD
ATOM     35  H   UNL     1      -3.101  -0.960  -0.172  0.00  0.00    +0.156 HD
BRANCH   6  27
ATOM     27  C   UNL     1      -5.032  -0.227  -0.268  0.00  0.00    +0.036 A 
ATOM     28  C   UNL     1      -5.602  -1.417   0.185  0.00  0.00    +0.042 A 
ATOM     29  C   UNL     1      -5.845   0.864  -0.576  0.00  0.00    +0.023 A 
ATOM     30  C   UNL     1      -6.986  -1.516   0.331  0.00  0.00    +0.054 A 
ATOM     31  C   UNL     1      -7.229   0.764  -0.430  0.00  0.00    +0.003 A 
ATOM     32  C   UNL     1      -7.799  -0.425   0.023  0.00  0.00    +0.019 A 
BRANCH  30  33
ATOM      7  N   UNL     1      -8.045  -3.724   1.171  0.00  0.00    -0.191 NA
ATOM     33  C   UNL     1      -7.570  -2.735   0.795  0.00  0.00    +0.099 C 
ENDBRANCH  30  33
ENDBRANCH   6  27
ENDBRANCH  16   4
ENDBRANCH  10  16
TORSDOF 6
