REMARK  Name = 51136846
REMARK  5 active torsions:
REMARK  status: ('A' for Active; 'I' for Inactive)
REMARK    1  A    between atoms: N_3  and  C_10
REMARK    2  A    between atoms: N_8  and  C_31
REMARK    3  A    between atoms: C_11  and  C_19
REMARK    4  A    between atoms: C_20  and  C_22
REMARK    5  A    between atoms: C_21  and  C_27
REMARK                            x       y       z     vdW  Elec       q    Type
REMARK                         _______ _______ _______ _____ _____    ______ ____
ROOT
ATOM      1  O   UNL     1      -1.785   2.584  -1.776  0.00  0.00    -0.336 OA
ATOM      5  N   UNL     1      -1.109   1.533   0.083  0.00  0.00    -0.190 NA
ATOM      6  N   UNL     1      -0.422   2.316  -1.954  0.00  0.00    -0.056 NA
ATOM     19  C   UNL     1      -2.108   2.091  -0.552  0.00  0.00    +0.245 A 
ATOM     21  C   UNL     1      -0.095   1.695  -0.817  0.00  0.00    +0.204 A 
ENDROOT
BRANCH  21  27
ATOM      7  N   UNL     1       5.084  -0.090   0.144  0.00  0.00    -0.313 N 
ATOM      8  N   UNL     1       7.824  -0.804   0.523  0.00  0.00    -0.302 NA
ATOM      9  N   UNL     1       3.524   0.980  -1.279  0.00  0.00    -0.240 NA
ATOM     23  C   UNL     1       5.903  -0.503  -1.003  0.00  0.00    +0.122 C 
ATOM     24  C   UNL     1       5.825   0.428   1.298  0.00  0.00    +0.122 C 
ATOM     25  C   UNL     1       7.036  -1.425  -0.549  0.00  0.00    +0.103 C 
ATOM     26  C   UNL     1       6.962  -0.524   1.678  0.00  0.00    +0.103 C 
ATOM     27  C   UNL     1       1.233   1.226  -0.548  0.00  0.00    +0.041 A 
ATOM     28  C   UNL     1       3.783   0.361  -0.105  0.00  0.00    +0.121 A 
ATOM     29  C   UNL     1       1.538   0.585   0.648  0.00  0.00    +0.016 A 
ATOM     30  C   UNL     1       2.253   1.398  -1.470  0.00  0.00    +0.124 A 
ATOM     31  C   UNL     1       8.936  -1.670   0.911  0.00  0.00    +0.105 C 
ATOM     32  C   UNL     1       2.835   0.141   0.881  0.00  0.00    +0.044 A 
ENDBRANCH  21  27
BRANCH  19  11
ATOM      3  N   UNL     1      -3.980   1.210   0.832  0.00  0.00    -0.288 NA
ATOM     11  C   UNL     1      -3.550   2.256  -0.117  0.00  0.00    +0.146 C 
ATOM     12  C   UNL     1      -5.011   1.815   1.675  0.00  0.00    +0.085 C 
ATOM     13  C   UNL     1      -3.797   3.583   0.625  0.00  0.00    +0.030 C 
ATOM     16  C   UNL     1      -4.424   3.184   1.954  0.00  0.00    +0.017 C 
BRANCH   3  10
ATOM      2  O   UNL     1      -4.127  -4.935   0.685  0.00  0.00    -0.276 OA
ATOM      4  N   UNL     1      -4.219  -2.847  -0.329  0.00  0.00    -0.302 N 
ATOM     10  C   UNL     1      -4.453  -0.005   0.172  0.00  0.00    +0.060 C 
ATOM     14  C   UNL     1      -3.355  -0.573  -0.736  0.00  0.00    +0.038 C 
ATOM     15  C   UNL     1      -4.871  -1.044   1.221  0.00  0.00    +0.038 C 
ATOM     17  C   UNL     1      -3.792  -1.897  -1.363  0.00  0.00    +0.109 C 
ATOM     18  C   UNL     1      -5.279  -2.357   0.555  0.00  0.00    +0.109 C 
ATOM     20  C   UNL     1      -3.726  -4.142  -0.170  0.00  0.00    +0.212 C 
ATOM     22  C   UNL     1      -2.634  -4.570  -1.118  0.00  0.00    +0.109 C 
ENDBRANCH   3  10
ENDBRANCH  19  11
TORSDOF 3
