REMARK  Name = 11883041
REMARK  12 active torsions:
REMARK  status: ('A' for Active; 'I' for Inactive)
REMARK    1  A    between atoms: O_4  and  C_17
REMARK    2  A    between atoms: O_5  and  C_22
REMARK    3  A    between atoms: O_8  and  C_38
REMARK    4  A    between atoms: O_8  and  C_42
REMARK    5  A    between atoms: N_10  and  C_28
REMARK    6  A    between atoms: C_12  and  C_20
REMARK    7  A    between atoms: C_14  and  C_22
REMARK    8  A    between atoms: C_14  and  C_23
REMARK    9  A    between atoms: C_15  and  C_25
REMARK   10  A    between atoms: C_25  and  C_26
REMARK   11  A    between atoms: C_28  and  C_30
REMARK   12  A    between atoms: C_29  and  C_31
REMARK                            x       y       z     vdW  Elec       q    Type
REMARK                         _______ _______ _______ _____ _____    ______ ____
ROOT
ATOM      1  S   UNL     1      -1.168   2.958   0.133  0.00  0.00    -0.057 S 
ATOM      7  O   UNL     1       2.607   0.260  -0.244  0.00  0.00    -0.270 OA
ATOM      9  N   UNL     1      -0.336   0.520  -0.106  0.00  0.00    -0.229 NA
ATOM     11  N   UNL     1       1.350   2.241  -0.025  0.00  0.00    -0.261 N 
ATOM     12  C   UNL     1      -3.988  -0.632   0.342  0.00  0.00    -0.019 C 
ATOM     13  C   UNL     1      -4.570   0.686  -0.335  0.00  0.00    +0.011 C 
ATOM     14  C   UNL     1      -6.138   0.858  -0.336  0.00  0.00    +0.021 C 
ATOM     15  C   UNL     1      -2.478  -0.812  -0.147  0.00  0.00    +0.054 C 
ATOM     16  C   UNL     1      -4.806  -1.861  -0.136  0.00  0.00    +0.010 C 
ATOM     17  C   UNL     1      -6.799  -0.473  -0.793  0.00  0.00    +0.123 C 
ATOM     18  C   UNL     1      -3.801   1.955   0.138  0.00  0.00    +0.049 C 
ATOM     19  C   UNL     1      -6.313  -1.686  -0.007  0.00  0.00    +0.032 C 
ATOM     20  C   UNL     1      -4.026  -0.581   1.889  0.00  0.00    +0.012 C 
ATOM     21  C   UNL     1      -1.717   0.485  -0.045  0.00  0.00    +0.058 A 
ATOM     23  C   UNL     1      -6.528   1.948  -1.375  0.00  0.00    +0.016 C 
ATOM     24  C   UNL     1      -2.331   1.716   0.064  0.00  0.00    +0.015 A 
ATOM     27  C   UNL     1       0.064   1.770  -0.014  0.00  0.00    +0.165 A 
ATOM     29  C   UNL     1       2.523   1.478  -0.136  0.00  0.00    +0.255 C 
ATOM     46  H   UNL     1       1.423   3.252   0.039  0.00  0.00    +0.157 HD
ENDROOT
BRANCH  29  31
ATOM      2  F   UNL     1       2.811   3.945   1.204  0.00  0.00    -0.205 F 
ATOM      3  F   UNL     1       4.832   0.608  -1.506  0.00  0.00    -0.205 F 
ATOM     31  C   UNL     1       3.790   2.257  -0.151  0.00  0.00    +0.107 A 
ATOM     34  C   UNL     1       3.870   3.471   0.531  0.00  0.00    +0.138 A 
ATOM     35  C   UNL     1       4.898   1.774  -0.847  0.00  0.00    +0.138 A 
ATOM     39  C   UNL     1       5.058   4.202   0.517  0.00  0.00    +0.039 A 
ATOM     40  C   UNL     1       6.086   2.505  -0.861  0.00  0.00    +0.039 A 
ATOM     41  C   UNL     1       6.166   3.719  -0.179  0.00  0.00    +0.006 A 
ENDBRANCH  29  31
BRANCH  17   4
ATOM      4  O   UNL     1      -8.219  -0.394  -0.682  0.00  0.00    -0.391 OA
ATOM     43  H   UNL     1      -8.589  -1.227  -1.021  0.00  0.00    +0.210 HD
ENDBRANCH  17   4
BRANCH  14  22
ATOM     22  C   UNL     1      -6.732   1.335   1.008  0.00  0.00    +0.165 C 
BRANCH  22   5
ATOM      5  O   UNL     1      -8.128   1.450   0.847  0.00  0.00    -0.394 OA
ATOM     44  H   UNL     1      -8.493   1.760   1.693  0.00  0.00    +0.209 HD
ENDBRANCH  22   5
ENDBRANCH  14  22
BRANCH  15  25
ATOM     25  C   UNL     1      -1.721  -1.963   0.529  0.00  0.00    +0.106 C 
BRANCH  25  26
ATOM      6  O   UNL     1      -0.358  -2.075  -1.467  0.00  0.00    -0.276 OA
ATOM     10  N   UNL     1       0.065  -3.532   0.293  0.00  0.00    -0.311 N 
ATOM     26  C   UNL     1      -0.611  -2.502  -0.344  0.00  0.00    +0.214 C 
ATOM     45  H   UNL     1      -0.220  -3.808   1.229  0.00  0.00    +0.149 HD
BRANCH  10  28
ATOM     28  C   UNL     1       1.174  -4.238  -0.306  0.00  0.00    +0.139 C 
BRANCH  28  30
ATOM     30  C   UNL     1       2.491  -3.591   0.011  0.00  0.00    -0.030 A 
ATOM     32  C   UNL     1       2.767  -3.176   1.314  0.00  0.00    +0.009 A 
ATOM     33  C   UNL     1       3.438  -3.405  -0.996  0.00  0.00    +0.009 A 
ATOM     36  C   UNL     1       3.991  -2.576   1.610  0.00  0.00    +0.046 A 
ATOM     37  C   UNL     1       4.662  -2.805  -0.700  0.00  0.00    +0.046 A 
ATOM     38  C   UNL     1       4.938  -2.390   0.603  0.00  0.00    +0.120 A 
BRANCH  38   8
ATOM      8  O   UNL     1       6.132  -1.803   0.892  0.00  0.00    -0.495 OA
ATOM     42  C   UNL     1       7.055  -1.644  -0.184  0.00  0.00    +0.277 C 
ENDBRANCH  38   8
ENDBRANCH  28  30
ENDBRANCH  10  28
ENDBRANCH  25  26
ENDBRANCH  15  25
TORSDOF 9
