REMARK  Name = 7155417
REMARK  3 active torsions:
REMARK  status: ('A' for Active; 'I' for Inactive)
REMARK    1  A    between atoms: C_13  and  C_18
REMARK    2  A    between atoms: C_15  and  C_19
REMARK    3  A    between atoms: C_29  and  C_30
REMARK                            x       y       z     vdW  Elec       q    Type
REMARK                         _______ _______ _______ _____ _____    ______ ____
ROOT
ATOM      1  O   UNL     1      -3.159   0.984  -2.976  0.00  0.00    -0.268 OA
ATOM      2  O   UNL     1      -0.534   3.783   0.345  0.00  0.00    -0.270 OA
ATOM      3  N   UNL     1      -1.059   1.784   1.440  0.00  0.00    -0.297 N 
ATOM      4  N   UNL     1      -2.489   0.186  -0.878  0.00  0.00    -0.311 N 
ATOM      6  C   UNL     1      -3.454   1.150   1.295  0.00  0.00    +0.027 C 
ATOM      7  C   UNL     1      -1.735  -0.607   1.384  0.00  0.00    +0.054 C 
ATOM      8  C   UNL     1      -3.129  -0.219   1.875  0.00  0.00    +0.018 C 
ATOM      9  C   UNL     1      -2.425   2.194   1.760  0.00  0.00    +0.113 C 
ATOM     10  C   UNL     1      -3.502   1.032  -0.230  0.00  0.00    +0.130 C 
ATOM     11  C   UNL     1      -0.704   0.428   1.884  0.00  0.00    +0.117 C 
ATOM     12  C   UNL     1      -1.681  -0.704  -0.142  0.00  0.00    +0.034 A 
ATOM     13  C   UNL     1      -0.870  -1.579  -0.793  0.00  0.00    +0.002 A 
ATOM     14  C   UNL     1      -2.467   0.237  -2.283  0.00  0.00    +0.252 A 
ATOM     15  C   UNL     1      -0.234   2.648   0.715  0.00  0.00    +0.247 C 
ATOM     16  C   UNL     1      -0.818  -1.551  -2.242  0.00  0.00    +0.015 A 
ATOM     17  C   UNL     1      -1.545  -0.699  -2.965  0.00  0.00    +0.071 A 
ENDROOT
BRANCH  13  18
ATOM     18  C   UNL     1      -0.023  -2.547  -0.062  0.00  0.00    -0.016 A 
ATOM     20  C   UNL     1       1.263  -2.185   0.326  0.00  0.00    +0.008 A 
ATOM     21  C   UNL     1      -0.519  -3.814   0.232  0.00  0.00    +0.008 A 
ATOM     24  C   UNL     1       2.061  -3.098   1.016  0.00  0.00    +0.001 A 
ATOM     25  C   UNL     1       0.279  -4.727   0.922  0.00  0.00    +0.001 A 
ATOM     26  C   UNL     1       1.569  -4.369   1.313  0.00  0.00    +0.000 A 
ENDBRANCH  13  18
BRANCH  15  19
ATOM     19  C   UNL     1       1.103   2.177   0.337  0.00  0.00    +0.037 A 
ATOM     22  C   UNL     1       1.288   1.516  -0.875  0.00  0.00    +0.014 A 
ATOM     23  C   UNL     1       2.182   2.395   1.190  0.00  0.00    +0.014 A 
ATOM     27  C   UNL     1       2.559   1.069  -1.235  0.00  0.00    +0.019 A 
ATOM     28  C   UNL     1       3.453   1.949   0.830  0.00  0.00    +0.019 A 
ATOM     29  C   UNL     1       3.642   1.286  -0.382  0.00  0.00    +0.052 A 
BRANCH  29  30
ATOM      5  N   UNL     1       6.003   0.453  -1.050  0.00  0.00    -0.191 NA
ATOM     30  C   UNL     1       4.944   0.826  -0.751  0.00  0.00    +0.099 C 
ENDBRANCH  29  30
ENDBRANCH  15  19
TORSDOF 3
