REMARK  Name = 26744640
REMARK  10 active torsions:
REMARK  status: ('A' for Active; 'I' for Inactive)
REMARK    1  A    between atoms: O_2  and  C_10
REMARK    2  A    between atoms: O_3  and  C_11
REMARK    3  A    between atoms: N_6  and  C_13
REMARK    4  A    between atoms: N_7  and  C_14
REMARK    5  A    between atoms: N_8  and  C_23
REMARK    6  A    between atoms: C_9  and  C_14
REMARK    7  A    between atoms: C_12  and  C_17
REMARK    8  A    between atoms: C_17  and  C_22
REMARK    9  A    between atoms: C_23  and  C_24
REMARK   10  A    between atoms: C_23  and  C_25
REMARK                            x       y       z     vdW  Elec       q    Type
REMARK                         _______ _______ _______ _____ _____    ______ ____
ROOT
ATOM      1  O   UNL     1      -2.447   0.139  -0.967  0.00  0.00    -0.366 OA
ATOM      9  C   UNL     1      -2.952   1.430  -0.584  0.00  0.00    +0.167 C 
ATOM     10  C   UNL     1      -3.257   1.328   0.901  0.00  0.00    +0.176 C 
ATOM     11  C   UNL     1      -3.743  -0.103   1.014  0.00  0.00    +0.175 C 
ATOM     12  C   UNL     1      -2.818  -0.829   0.042  0.00  0.00    +0.158 C 
ENDROOT
BRANCH  10   2
ATOM      2  O   UNL     1      -4.217   2.278   1.312  0.00  0.00    -0.387 OA
ATOM     28  H   UNL     1      -4.457   2.073   2.232  0.00  0.00    +0.210 HD
ENDBRANCH  10   2
BRANCH  11   3
ATOM      3  O   UNL     1      -5.077  -0.213   0.521  0.00  0.00    -0.387 OA
ATOM     29  H   UNL     1      -5.334  -1.149   0.584  0.00  0.00    +0.210 HD
ENDBRANCH  11   3
BRANCH   9  14
ATOM     14  C   UNL     1      -1.926   2.499  -0.915  0.00  0.00    +0.140 C 
BRANCH  14   7
ATOM      4  O   UNL     1       0.274   0.953  -1.935  0.00  0.00    -0.253 OA
ATOM      6  N   UNL     1       1.445   1.383   0.024  0.00  0.00    -0.297 N 
ATOM      7  N   UNL     1      -0.679   2.242  -0.256  0.00  0.00    -0.297 N 
ATOM     21  C   UNL     1       0.344   1.477  -0.824  0.00  0.00    +0.300 C 
ATOM     26  H   UNL     1       1.425   1.913   0.889  0.00  0.00    +0.151 HD
ATOM     27  H   UNL     1      -0.528   2.642   0.666  0.00  0.00    +0.150 HD
BRANCH   6  13
ATOM     13  C   UNL     1       2.644   0.649  -0.316  0.00  0.00    +0.074 C 
ATOM     15  C   UNL     1       3.633   1.534  -1.082  0.00  0.00    +0.022 C 
ATOM     16  C   UNL     1       3.292   0.045   0.935  0.00  0.00    +0.022 C 
ATOM     18  C   UNL     1       4.286   2.590  -0.190  0.00  0.00    +0.002 C 
ATOM     19  C   UNL     1       3.946   1.104   1.823  0.00  0.00    +0.002 C 
ATOM     20  C   UNL     1       4.934   1.964   1.041  0.00  0.00    +0.000 C 
ENDBRANCH   6  13
ENDBRANCH  14   7
ENDBRANCH   9  14
BRANCH  12  17
ATOM     17  C   UNL     1      -1.540  -1.331   0.699  0.00  0.00    +0.130 C 
BRANCH  17  22
ATOM      5  O   UNL     1      -1.219  -2.730  -1.248  0.00  0.00    -0.276 OA
ATOM      8  N   UNL     1       0.373  -2.763   0.445  0.00  0.00    -0.313 N 
ATOM     22  C   UNL     1      -0.804  -2.344  -0.159  0.00  0.00    +0.216 C 
ATOM     30  H   UNL     1       0.654  -2.333   1.322  0.00  0.00    +0.149 HD
BRANCH   8  23
ATOM     23  C   UNL     1       1.267  -3.727  -0.154  0.00  0.00    +0.067 C 
ATOM     24  C   UNL     1       1.962  -4.546   0.926  0.00  0.00    +0.027 C 
ATOM     25  C   UNL     1       2.279  -3.029  -1.055  0.00  0.00    +0.027 C 
ENDBRANCH   8  23
ENDBRANCH  17  22
ENDBRANCH  12  17
TORSDOF 8
