REMARK  Name = 7685235
REMARK  5 active torsions:
REMARK  status: ('A' for Active; 'I' for Inactive)
REMARK    1  A    between atoms: O_4  and  C_21
REMARK    2  A    between atoms: O_4  and  C_25
REMARK    3  A    between atoms: C_14  and  C_19
REMARK    4  A    between atoms: C_16  and  C_20
REMARK    5  A    between atoms: C_20  and  C_21
REMARK                            x       y       z     vdW  Elec       q    Type
REMARK                         _______ _______ _______ _____ _____    ______ ____
ROOT
ATOM      2  O   UNL     1      -0.773   2.758   2.590  0.00  0.00    -0.268 OA
ATOM      3  O   UNL     1      -3.558  -0.150  -0.805  0.00  0.00    -0.276 OA
ATOM      5  N   UNL     1      -1.418   0.193  -1.640  0.00  0.00    -0.300 N 
ATOM      6  N   UNL     1       0.110   1.797   0.645  0.00  0.00    -0.311 N 
ATOM      7  C   UNL     1      -0.639   2.558  -1.685  0.00  0.00    +0.027 C 
ATOM      8  C   UNL     1       1.003   0.744  -1.456  0.00  0.00    +0.054 C 
ATOM      9  C   UNL     1       0.741   2.093  -2.122  0.00  0.00    +0.018 C 
ATOM     10  C   UNL     1      -1.716   1.546  -2.109  0.00  0.00    +0.113 C 
ATOM     11  C   UNL     1      -0.622   2.775  -0.172  0.00  0.00    +0.130 C 
ATOM     12  C   UNL     1      -0.056  -0.275  -1.927  0.00  0.00    +0.117 C 
ATOM     13  C   UNL     1       0.987   0.856   0.071  0.00  0.00    +0.035 A 
ATOM     14  C   UNL     1       1.757   0.073   0.872  0.00  0.00    +0.009 A 
ATOM     15  C   UNL     1      -0.033   1.945   2.037  0.00  0.00    +0.252 A 
ATOM     16  C   UNL     1      -2.420  -0.566  -1.036  0.00  0.00    +0.218 C 
ATOM     17  C   UNL     1       1.634   0.195   2.312  0.00  0.00    +0.016 A 
ATOM     18  C   UNL     1       0.791   1.054   2.884  0.00  0.00    +0.071 A 
ENDROOT
BRANCH  14  19
ATOM      1  S   UNL     1       4.323  -0.445   0.004  0.00  0.00    -0.097 S 
ATOM     19  C   UNL     1       2.706  -0.916   0.315  0.00  0.00    +0.021 A 
ATOM     22  C   UNL     1       2.479  -2.234  -0.012  0.00  0.00    +0.016 A 
ATOM     23  C   UNL     1       3.648  -2.867  -0.525  0.00  0.00    +0.008 A 
ATOM     24  C   UNL     1       4.724  -2.008  -0.570  0.00  0.00    +0.046 A 
ENDBRANCH  14  19
BRANCH  16  20
ATOM     20  C   UNL     1      -2.057  -1.976  -0.645  0.00  0.00    +0.124 C 
BRANCH  20  21
ATOM     21  C   UNL     1      -3.255  -2.649  -0.009  0.00  0.00    +0.168 C 
BRANCH  21   4
ATOM      4  O   UNL     1      -3.623  -1.946   1.171  0.00  0.00    -0.382 OA
ATOM     25  C   UNL     1      -4.735  -2.554   1.813  0.00  0.00    +0.194 C 
ENDBRANCH  21   4
ENDBRANCH  20  21
ENDBRANCH  16  20
TORSDOF 4
