REMARK  Name = 51137796
REMARK  7 active torsions:
REMARK  status: ('A' for Active; 'I' for Inactive)
REMARK    1  A    between atoms: S_1  and  N_6
REMARK    2  A    between atoms: S_1  and  C_14
REMARK    3  A    between atoms: O_5  and  C_27
REMARK    4  A    between atoms: O_5  and  C_28
REMARK    5  A    between atoms: C_9  and  C_13
REMARK    6  A    between atoms: C_14  and  C_15
REMARK    7  A    between atoms: C_16  and  C_19
REMARK                            x       y       z     vdW  Elec       q    Type
REMARK                         _______ _______ _______ _____ _____    ______ ____
ROOT
ATOM      6  N   UNL     1      -3.311   1.384   0.733  0.00  0.00    -0.180 NA
ATOM      9  C   UNL     1      -1.605   3.095   0.824  0.00  0.00    +0.094 C 
ATOM     10  C   UNL     1      -2.182   1.882   1.572  0.00  0.00    +0.122 C 
ATOM     11  C   UNL     1      -2.778   3.550  -0.048  0.00  0.00    +0.031 C 
ATOM     12  C   UNL     1      -3.445   2.248  -0.465  0.00  0.00    +0.110 C 
ENDROOT
BRANCH   9  13
ATOM      2  O   UNL     1       0.533   1.941   0.475  0.00  0.00    -0.420 OA
ATOM      7  N   UNL     1       0.028   3.420  -1.125  0.00  0.00    -0.112 NA
ATOM      8  N   UNL     1       1.246   2.848  -1.442  0.00  0.00    -0.107 NA
ATOM     13  C   UNL     1      -0.350   2.861   0.001  0.00  0.00    +0.222 A 
ATOM     16  C   UNL     1       1.501   1.991  -0.481  0.00  0.00    +0.248 A 
BRANCH  16  19
ATOM     19  C   UNL     1       2.621   1.116  -0.287  0.00  0.00    +0.039 A 
ATOM     23  C   UNL     1       3.661   1.098  -1.216  0.00  0.00    +0.017 A 
ATOM     24  C   UNL     1       2.670   0.284   0.831  0.00  0.00    +0.017 A 
ATOM     25  C   UNL     1       4.750   0.248  -1.027  0.00  0.00    +0.046 A 
ATOM     26  C   UNL     1       3.759  -0.567   1.020  0.00  0.00    +0.046 A 
ATOM     27  C   UNL     1       4.799  -0.585   0.091  0.00  0.00    +0.120 A 
BRANCH  27   5
ATOM      5  O   UNL     1       5.864  -1.413   0.278  0.00  0.00    -0.495 OA
ATOM     28  C   UNL     1       5.849  -2.237   1.442  0.00  0.00    +0.277 C 
ENDBRANCH  27   5
ENDBRANCH  16  19
ENDBRANCH   9  13
BRANCH   6   1
ATOM      1  S   UNL     1      -3.527  -0.287   0.555  0.00  0.00    +0.036 S 
ATOM      3  O   UNL     1      -4.795  -0.539  -0.103  0.00  0.00    -0.158 OA
ATOM      4  O   UNL     1      -3.184  -0.949   1.800  0.00  0.00    -0.158 OA
BRANCH   1  14
ATOM     14  C   UNL     1      -2.234  -0.631  -0.613  0.00  0.00    +0.220 C 
BRANCH  14  15
ATOM     15  C   UNL     1      -1.929  -2.096  -0.539  0.00  0.00    -0.025 A 
ATOM     17  C   UNL     1      -2.818  -3.022  -1.085  0.00  0.00    +0.005 A 
ATOM     18  C   UNL     1      -0.757  -2.533   0.077  0.00  0.00    +0.005 A 
ATOM     20  C   UNL     1      -2.533  -4.386  -1.016  0.00  0.00    +0.000 A 
ATOM     21  C   UNL     1      -0.472  -3.897   0.146  0.00  0.00    +0.000 A 
ATOM     22  C   UNL     1      -1.361  -4.823  -0.400  0.00  0.00    +0.000 A 
ENDBRANCH  14  15
ENDBRANCH   1  14
ENDBRANCH   6   1
TORSDOF 6
