REMARK  Name = 38028701
REMARK  11 active torsions:
REMARK  status: ('A' for Active; 'I' for Inactive)
REMARK    1  A    between atoms: N_4  and  C_13
REMARK    2  A    between atoms: N_5  and  C_21
REMARK    3  A    between atoms: C_6  and  C_10
REMARK    4  A    between atoms: C_7  and  C_13
REMARK    5  A    between atoms: C_9  and  C_14
REMARK    6  A    between atoms: C_10  and  C_15
REMARK    7  A    between atoms: C_10  and  C_16
REMARK    8  A    between atoms: C_11  and  C_17
REMARK    9  A    between atoms: C_14  and  C_18
REMARK   10  A    between atoms: C_19  and  C_20
REMARK   11  A    between atoms: C_21  and  C_24
REMARK                            x       y       z     vdW  Elec       q    Type
REMARK                         _______ _______ _______ _____ _____    ______ ____
ROOT
ATOM      6  C   UNL     1      -0.970  -2.032   0.579  0.00  0.00    +0.000 C 
ATOM      7  C   UNL     1      -0.224  -2.989  -0.384  0.00  0.00    +0.032 C 
ATOM      8  C   UNL     1      -2.314  -1.601  -0.028  0.00  0.00    +0.012 C 
ATOM      9  C   UNL     1      -2.140  -0.891  -1.384  0.00  0.00    +0.023 C 
ATOM     11  C   UNL     1      -1.197  -1.646  -2.298  0.00  0.00    -0.073 C 
ATOM     12  C   UNL     1      -0.357  -2.590  -1.835  0.00  0.00    -0.022 C 
ATOM     17  C   UNL     1      -1.272  -1.324  -3.764  0.00  0.00    +0.039 C 
ENDROOT
BRANCH   6  10
ATOM     10  C   UNL     1      -1.202  -2.672   1.951  0.00  0.00    -0.013 C 
ATOM     15  C   UNL     1      -1.363  -1.597   3.020  0.00  0.00    +0.007 C 
ATOM     16  C   UNL     1      -2.424  -3.584   1.913  0.00  0.00    +0.007 C 
ENDBRANCH   6  10
BRANCH   7  13
ATOM     13  C   UNL     1       1.261  -3.096  -0.018  0.00  0.00    +0.112 C 
BRANCH  13   4
ATOM      3  O   UNL     1       2.622  -1.540   1.974  0.00  0.00    -0.270 OA
ATOM      4  N   UNL     1       1.924  -1.846  -0.218  0.00  0.00    -0.311 N 
ATOM     19  C   UNL     1       2.563  -1.153   0.810  0.00  0.00    +0.244 C 
ATOM     29  H   UNL     1       1.998  -1.509  -1.172  0.00  0.00    +0.149 HD
BRANCH  19  20
ATOM      1  F   UNL     1       2.774   2.813  -1.997  0.00  0.00    -0.205 F 
ATOM     20  C   UNL     1       3.184   0.146   0.444  0.00  0.00    +0.039 A 
ATOM     22  C   UNL     1       2.678   0.884  -0.626  0.00  0.00    +0.051 A 
ATOM     23  C   UNL     1       4.272   0.628   1.171  0.00  0.00    +0.013 A 
ATOM     25  C   UNL     1       3.260   2.104  -0.970  0.00  0.00    +0.124 A 
ATOM     26  C   UNL     1       4.855   1.848   0.827  0.00  0.00    +0.004 A 
ATOM     27  C   UNL     1       4.349   2.586  -0.243  0.00  0.00    +0.038 A 
ENDBRANCH  19  20
ENDBRANCH  13   4
ENDBRANCH   7  13
BRANCH   9  14
ATOM     14  C   UNL     1      -1.678   0.558  -1.194  0.00  0.00    +0.103 C 
BRANCH  14  18
ATOM      2  O   UNL     1      -3.937   1.056  -0.483  0.00  0.00    -0.276 OA
ATOM      5  N   UNL     1      -2.348   2.751  -0.517  0.00  0.00    -0.304 N 
ATOM     18  C   UNL     1      -2.793   1.450  -0.695  0.00  0.00    +0.214 C 
ATOM     30  H   UNL     1      -1.374   2.972  -0.706  0.00  0.00    +0.150 HD
BRANCH   5  21
ATOM     21  C   UNL     1      -3.200   3.820  -0.050  0.00  0.00    +0.193 C 
BRANCH  21  24
ATOM     24  C   UNL     1      -3.172   3.917   1.409  0.00  0.00    -0.087 C 
ATOM     28  C   UNL     1      -3.151   4.000   2.606  0.00  0.00    +0.005 C 
ENDBRANCH  21  24
ENDBRANCH   5  21
ENDBRANCH  14  18
ENDBRANCH   9  14
TORSDOF 8
