REMARK  Name = 7662574
REMARK  12 active torsions:
REMARK  status: ('A' for Active; 'I' for Inactive)
REMARK    1  A    between atoms: O_5  and  C_27
REMARK    2  A    between atoms: O_5  and  C_34
REMARK    3  A    between atoms: N_6  and  C_18
REMARK    4  A    between atoms: N_10  and  C_33
REMARK    5  A    between atoms: N_10  and  C_35
REMARK    6  A    between atoms: N_10  and  C_36
REMARK    7  A    between atoms: C_11  and  C_14
REMARK    8  A    between atoms: C_14  and  C_18
REMARK    9  A    between atoms: C_18  and  C_24
REMARK   10  A    between atoms: C_19  and  C_21
REMARK   11  A    between atoms: C_25  and  C_27
REMARK   12  A    between atoms: C_26  and  C_28
REMARK                            x       y       z     vdW  Elec       q    Type
REMARK                         _______ _______ _______ _____ _____    ______ ____
ROOT
ATOM      3  O   UNL     1      -2.855   1.060  -2.457  0.00  0.00    -0.273 OA
ATOM      4  O   UNL     1       2.827  -2.557  -1.242  0.00  0.00    -0.270 OA
ATOM      7  N   UNL     1      -0.691   0.846  -1.629  0.00  0.00    -0.285 N 
ATOM      8  N   UNL     1       1.818  -0.492  -1.666  0.00  0.00    -0.294 N 
ATOM     19  C   UNL     1      -0.638  -0.594  -1.919  0.00  0.00    +0.179 C 
ATOM     20  C   UNL     1       0.720  -1.056  -2.447  0.00  0.00    +0.140 C 
ATOM     22  C   UNL     1       0.474   1.420  -0.930  0.00  0.00    +0.127 C 
ATOM     23  C   UNL     1       1.786   0.968  -1.558  0.00  0.00    +0.127 C 
ATOM     25  C   UNL     1      -1.881   1.541  -1.872  0.00  0.00    +0.242 C 
ATOM     26  C   UNL     1       2.806  -1.331  -1.147  0.00  0.00    +0.247 C 
ENDROOT
BRANCH  26  28
ATOM     28  C   UNL     1       3.915  -0.717  -0.406  0.00  0.00    +0.037 A 
ATOM     29  C   UNL     1       3.814  -0.529   0.972  0.00  0.00    +0.015 A 
ATOM     30  C   UNL     1       5.070  -0.322  -1.081  0.00  0.00    +0.015 A 
ATOM     31  C   UNL     1       4.868   0.054   1.676  0.00  0.00    +0.024 A 
ATOM     32  C   UNL     1       6.125   0.261  -0.378  0.00  0.00    +0.024 A 
ATOM     33  C   UNL     1       6.023   0.449   1.001  0.00  0.00    +0.029 A 
BRANCH  33  10
ATOM     10  N   UNL     1       7.090   1.037   1.712  0.00  0.00    -0.336 N 
ATOM     35  C   UNL     1       6.995   1.235   3.145  0.00  0.00    +0.129 C 
ATOM     36  C   UNL     1       8.300   1.438   1.022  0.00  0.00    +0.129 C 
ENDBRANCH  33  10
ENDBRANCH  26  28
BRANCH  19  21
ATOM      1  O   UNL     1      -0.152  -1.668   0.159  0.00  0.00    -0.274 OA
ATOM      6  N   UNL     1      -2.370  -1.483  -0.521  0.00  0.00    -0.302 N 
ATOM     21  C   UNL     1      -1.004  -1.298  -0.644  0.00  0.00    +0.236 C 
ATOM     37  H   UNL     1      -2.980  -1.194  -1.280  0.00  0.00    +0.150 HD
BRANCH   6  18
ATOM     18  C   UNL     1      -2.979  -2.155   0.605  0.00  0.00    +0.159 C 
BRANCH  18  24
ATOM      2  O   UNL     1      -3.145  -4.146  -0.778  0.00  0.00    -0.274 OA
ATOM      9  N   UNL     1      -2.812  -4.405   1.480  0.00  0.00    -0.328 N 
ATOM     24  C   UNL     1      -2.981  -3.654   0.336  0.00  0.00    +0.231 C 
ATOM     38  H   UNL     1      -2.802  -5.419   1.439  0.00  0.00    +0.145 HD
ATOM     39  H   UNL     1      -2.697  -3.986   2.397  0.00  0.00    +0.145 HD
ENDBRANCH  18  24
BRANCH  18  14
ATOM     14  C   UNL     1      -4.374  -1.607   0.921  0.00  0.00    +0.035 C 
BRANCH  14  11
ATOM     11  C   UNL     1      -4.415  -0.099   1.164  0.00  0.00    -0.009 C 
ATOM     12  C   UNL     1      -3.492   0.288   2.327  0.00  0.00    +0.003 C 
ATOM     13  C   UNL     1      -5.852   0.369   1.427  0.00  0.00    +0.003 C 
ATOM     15  C   UNL     1      -3.556   1.784   2.624  0.00  0.00    +0.000 C 
ATOM     16  C   UNL     1      -5.912   1.865   1.726  0.00  0.00    +0.000 C 
ATOM     17  C   UNL     1      -4.987   2.247   2.877  0.00  0.00    +0.000 C 
ENDBRANCH  14  11
ENDBRANCH  18  14
ENDBRANCH   6  18
ENDBRANCH  19  21
BRANCH  25  27
ATOM     27  C   UNL     1      -1.945   2.965  -1.381  0.00  0.00    +0.255 C 
BRANCH  27   5
ATOM      5  O   UNL     1      -3.203   3.466  -1.764  0.00  0.00    -0.374 OA
ATOM     34  C   UNL     1      -3.389   4.819  -1.354  0.00  0.00    +0.194 C 
ENDBRANCH  27   5
ENDBRANCH  25  27
TORSDOF 9
