REMARK  Name = 11867156
REMARK  5 active torsions:
REMARK  status: ('A' for Active; 'I' for Inactive)
REMARK    1  A    between atoms: S_1  and  N_10
REMARK    2  A    between atoms: S_1  and  C_24
REMARK    3  A    between atoms: O_4  and  C_23
REMARK    4  A    between atoms: N_10  and  C_21
REMARK    5  A    between atoms: C_20  and  C_23
REMARK                            x       y       z     vdW  Elec       q    Type
REMARK                         _______ _______ _______ _____ _____    ______ ____
ROOT
ATOM      2  O   UNL     1       0.221  -1.706  -2.025  0.00  0.00    -0.266 OA
ATOM      3  O   UNL     1      -2.093   2.454   0.917  0.00  0.00    -0.263 OA
ATOM      8  N   UNL     1      -1.335  -1.608  -0.276  0.00  0.00    -0.310 N 
ATOM      9  N   UNL     1      -3.508   0.653   0.449  0.00  0.00    -0.291 N 
ATOM     11  C   UNL     1      -3.864  -1.565  -0.656  0.00  0.00    +0.027 C 
ATOM     12  C   UNL     1      -2.975  -1.472   1.633  0.00  0.00    +0.054 C 
ATOM     13  C   UNL     1      -3.945  -2.215   0.719  0.00  0.00    +0.018 C 
ATOM     14  C   UNL     1      -2.450  -1.766  -1.216  0.00  0.00    +0.130 C 
ATOM     15  C   UNL     1      -4.248  -0.075  -0.584  0.00  0.00    +0.113 C 
ATOM     16  C   UNL     1      -3.414  -0.002   1.756  0.00  0.00    +0.118 C 
ATOM     17  C   UNL     1      -1.554  -1.544   1.107  0.00  0.00    +0.027 A 
ATOM     18  C   UNL     1      -0.514  -1.520   1.961  0.00  0.00    +0.024 A 
ATOM     19  C   UNL     1      -0.035  -1.633  -0.824  0.00  0.00    +0.274 A 
ATOM     20  C   UNL     1      -3.021   1.947   0.297  0.00  0.00    +0.324 C 
ATOM     21  C   UNL     1       1.069  -1.580   0.167  0.00  0.00    +0.112 A 
ATOM     22  C   UNL     1       0.841  -1.537   1.480  0.00  0.00    +0.031 A 
ENDROOT
BRANCH  20  23
ATOM      5  O   UNL     1      -4.530   2.648  -1.391  0.00  0.00    -0.240 OA
ATOM     23  C   UNL     1      -3.595   2.923  -0.666  0.00  0.00    +0.392 C 
BRANCH  23   4
ATOM      4  O   UNL     1      -2.926   4.080  -0.576  0.00  0.00    -0.474 OA
ATOM     31  H   UNL     1      -3.272   4.758  -1.194  0.00  0.00    +0.296 HD
ENDBRANCH  23   4
ENDBRANCH  20  23
BRANCH  21  10
ATOM     10  N   UNL     1       2.408  -1.590  -0.263  0.00  0.00    -0.211 N 
ATOM     30  H   UNL     1       3.067  -1.833   0.489  0.00  0.00    +0.174 HD
BRANCH  10   1
ATOM      1  S   UNL     1       2.908  -0.312  -1.254  0.00  0.00    +0.072 S 
ATOM      6  O   UNL     1       3.526  -0.839  -2.456  0.00  0.00    -0.150 OA
ATOM      7  O   UNL     1       1.850   0.676  -1.349  0.00  0.00    -0.150 OA
BRANCH   1  24
ATOM     24  C   UNL     1       4.196   0.387  -0.263  0.00  0.00    +0.108 A 
ATOM     25  C   UNL     1       5.491  -0.073  -0.417  0.00  0.00    +0.029 A 
ATOM     26  C   UNL     1       3.882   1.381   0.647  0.00  0.00    +0.029 A 
ATOM     27  C   UNL     1       6.506   0.477   0.365  0.00  0.00    +0.002 A 
ATOM     28  C   UNL     1       4.897   1.932   1.429  0.00  0.00    +0.002 A 
ATOM     29  C   UNL     1       6.210   1.480   1.288  0.00  0.00    +0.000 A 
ENDBRANCH   1  24
ENDBRANCH  10   1
ENDBRANCH  21  10
TORSDOF 5
