REMARK  Name = 28960258
REMARK  10 active torsions:
REMARK  status: ('A' for Active; 'I' for Inactive)
REMARK    1  A    between atoms: O_3  and  C_11
REMARK    2  A    between atoms: O_4  and  C_27
REMARK    3  A    between atoms: O_4  and  C_32
REMARK    4  A    between atoms: N_5  and  C_8
REMARK    5  A    between atoms: N_5  and  C_14
REMARK    6  A    between atoms: N_5  and  C_15
REMARK    7  A    between atoms: N_6  and  C_13
REMARK    8  A    between atoms: N_7  and  C_26
REMARK    9  A    between atoms: C_9  and  C_14
REMARK   10  A    between atoms: C_10  and  C_15
REMARK                            x       y       z     vdW  Elec       q    Type
REMARK                         _______ _______ _______ _____ _____    ______ ____
ROOT
ATOM      1  O   UNL     1      -1.286  -0.689   1.781  0.00  0.00    -0.343 OA
ATOM      2  O   UNL     1      -1.367  -2.972   1.334  0.00  0.00    -0.347 OA
ATOM      8  C   UNL     1      -3.014  -0.773   0.081  0.00  0.00    +0.118 C 
ATOM     11  C   UNL     1      -1.755  -0.542  -0.784  0.00  0.00    +0.156 C 
ATOM     12  C   UNL     1      -2.659  -1.044   1.562  0.00  0.00    +0.167 C 
ATOM     13  C   UNL     1      -0.608  -1.500  -0.398  0.00  0.00    +0.143 C 
ATOM     20  C   UNL     1      -0.608  -1.768   1.116  0.00  0.00    +0.270 C 
ATOM     21  C   UNL     1      -2.609  -2.526   1.885  0.00  0.00    +0.196 C 
ENDROOT
BRANCH  13   6
ATOM      6  N   UNL     1       0.668  -0.908  -0.815  0.00  0.00    -0.290 NA
ATOM      7  N   UNL     1       3.434  -0.239  -0.572  0.00  0.00    -0.325 N 
ATOM     22  C   UNL     1       1.698  -1.945  -0.948  0.00  0.00    +0.104 C 
ATOM     23  C   UNL     1       1.104   0.108   0.152  0.00  0.00    +0.104 C 
ATOM     24  C   UNL     1       3.020  -1.348  -1.436  0.00  0.00    +0.120 C 
ATOM     25  C   UNL     1       2.406   0.773  -0.301  0.00  0.00    +0.120 C 
BRANCH   7  26
ATOM     26  C   UNL     1       4.774   0.164  -0.554  0.00  0.00    +0.072 A 
ATOM     27  C   UNL     1       5.335   0.715   0.598  0.00  0.00    +0.141 A 
ATOM     28  C   UNL     1       5.551   0.010  -1.703  0.00  0.00    +0.027 A 
ATOM     29  C   UNL     1       6.673   1.111   0.602  0.00  0.00    +0.047 A 
ATOM     30  C   UNL     1       6.888   0.406  -1.699  0.00  0.00    +0.002 A 
ATOM     31  C   UNL     1       7.449   0.957  -0.547  0.00  0.00    +0.004 A 
BRANCH  27   4
ATOM      4  O   UNL     1       4.594   0.874   1.730  0.00  0.00    -0.493 OA
ATOM     32  C   UNL     1       4.584  -0.211   2.656  0.00  0.00    +0.277 C 
ENDBRANCH  27   4
ENDBRANCH   7  26
ENDBRANCH  13   6
BRANCH  11   3
ATOM      3  O   UNL     1      -2.067  -0.741  -2.163  0.00  0.00    -0.388 OA
ATOM     33  H   UNL     1      -2.396  -1.650  -2.269  0.00  0.00    +0.210 HD
ENDBRANCH  11   3
BRANCH   8   5
ATOM      5  N   UNL     1      -3.854   0.431   0.004  0.00  0.00    -0.294 NA
BRANCH   5  14
ATOM     14  C   UNL     1      -3.372   1.445   0.939  0.00  0.00    +0.088 C 
BRANCH  14   9
ATOM      9  C   UNL     1      -3.864   2.806   0.566  0.00  0.00    +0.003 C 
ATOM     16  C   UNL     1      -3.134   4.014   1.074  0.00  0.00    +0.005 C 
ATOM     17  C   UNL     1      -3.053   3.644  -0.378  0.00  0.00    +0.005 C 
ENDBRANCH  14   9
ENDBRANCH   5  14
BRANCH   5  15
ATOM     15  C   UNL     1      -5.247   0.095   0.281  0.00  0.00    +0.088 C 
BRANCH  15  10
ATOM     10  C   UNL     1      -5.914  -0.494  -0.920  0.00  0.00    +0.003 C 
ATOM     18  C   UNL     1      -6.386   0.415  -2.016  0.00  0.00    +0.005 C 
ATOM     19  C   UNL     1      -7.383  -0.268  -1.126  0.00  0.00    +0.005 C 
ENDBRANCH  15  10
ENDBRANCH   5  15
ENDBRANCH   8   5
TORSDOF 9
