REMARK  Name = 45784337
REMARK  3 active torsions:
REMARK  status: ('A' for Active; 'I' for Inactive)
REMARK    1  A    between atoms: N_3  and  C_9
REMARK    2  A    between atoms: C_5  and  C_10
REMARK    3  A    between atoms: C_9  and  C_11
REMARK                            x       y       z     vdW  Elec       q    Type
REMARK                         _______ _______ _______ _____ _____    ______ ____
ROOT
ATOM      3  N   UNL     1      -2.012  -0.262  -0.120  0.00  0.00    -0.297 NA
ATOM      5  C   UNL     1       0.175  -0.866   0.470  0.00  0.00    +0.090 C 
ATOM      6  C   UNL     1      -0.516  -0.197   1.671  0.00  0.00    +0.029 C 
ATOM      7  C   UNL     1      -0.706  -0.507  -0.734  0.00  0.00    +0.097 C 
ATOM      8  C   UNL     1      -1.724   0.521   1.081  0.00  0.00    +0.085 C 
ENDROOT
BRANCH   5  10
ATOM      1  F   UNL     1       6.904   1.575  -0.519  0.00  0.00    -0.205 F 
ATOM      2  O   UNL     1       2.523  -1.503   0.326  0.00  0.00    -0.439 OA
ATOM      4  N   UNL     1       2.131   0.714   0.066  0.00  0.00    -0.213 NA
ATOM     10  C   UNL     1       1.624  -0.481   0.276  0.00  0.00    +0.201 A 
ATOM     12  C   UNL     1       3.480   0.472  -0.034  0.00  0.00    +0.112 A 
ATOM     13  C   UNL     1       3.723  -0.884   0.125  0.00  0.00    +0.156 A 
ATOM     16  C   UNL     1       4.563   1.333  -0.256  0.00  0.00    +0.070 A 
ATOM     17  C   UNL     1       4.981  -1.473   0.082  0.00  0.00    +0.051 A 
ATOM     20  C   UNL     1       5.849   0.776  -0.307  0.00  0.00    +0.126 A 
ATOM     21  C   UNL     1       6.051  -0.600  -0.141  0.00  0.00    +0.042 A 
ENDBRANCH   5  10
BRANCH   3   9
ATOM      9  C   UNL     1      -2.929   0.423  -1.021  0.00  0.00    +0.119 C 
BRANCH   9  11
ATOM     11  C   UNL     1      -4.360   0.286  -0.574  0.00  0.00    -0.033 A 
ATOM     14  C   UNL     1      -5.132  -0.785  -1.024  0.00  0.00    +0.005 A 
ATOM     15  C   UNL     1      -4.914   1.231   0.289  0.00  0.00    +0.005 A 
ATOM     18  C   UNL     1      -6.458  -0.911  -0.611  0.00  0.00    +0.000 A 
ATOM     19  C   UNL     1      -6.240   1.105   0.702  0.00  0.00    +0.000 A 
ATOM     22  C   UNL     1      -7.012   0.034   0.253  0.00  0.00    +0.000 A 
ENDBRANCH   9  11
ENDBRANCH   3   9
TORSDOF 3
