REMARK  Name = 28960420
REMARK  10 active torsions:
REMARK  status: ('A' for Active; 'I' for Inactive)
REMARK    1  A    between atoms: O_3  and  C_11
REMARK    2  A    between atoms: O_4  and  C_17
REMARK    3  A    between atoms: O_4  and  C_23
REMARK    4  A    between atoms: O_5  and  C_18
REMARK    5  A    between atoms: N_6  and  C_8
REMARK    6  A    between atoms: N_6  and  C_14
REMARK    7  A    between atoms: N_7  and  C_10
REMARK    8  A    between atoms: N_7  and  C_15
REMARK    9  A    between atoms: C_14  and  C_16
REMARK   10  A    between atoms: C_15  and  C_17
REMARK                            x       y       z     vdW  Elec       q    Type
REMARK                         _______ _______ _______ _____ _____    ______ ____
ROOT
ATOM      1  O   UNL     1       2.123  -1.419   1.597  0.00  0.00    -0.343 OA
ATOM      2  O   UNL     1       3.946  -1.778   0.209  0.00  0.00    -0.347 OA
ATOM      8  C   UNL     1       0.939  -1.691  -0.492  0.00  0.00    +0.116 C 
ATOM      9  C   UNL     1       1.727  -2.400   0.632  0.00  0.00    +0.166 C 
ATOM     10  C   UNL     1       2.634   0.230  -0.090  0.00  0.00    +0.141 C 
ATOM     11  C   UNL     1       1.714  -0.496  -1.099  0.00  0.00    +0.156 C 
ATOM     12  C   UNL     1       3.213  -0.772   0.927  0.00  0.00    +0.270 C 
ATOM     13  C   UNL     1       3.085  -2.927   0.203  0.00  0.00    +0.196 C 
ENDROOT
BRANCH  11   3
ATOM      3  O   UNL     1       2.541  -0.982  -2.166  0.00  0.00    -0.388 OA
ATOM     26  H   UNL     1       1.954  -1.382  -2.832  0.00  0.00    +0.210 HD
ENDBRANCH  11   3
BRANCH   8   6
ATOM      6  N   UNL     1      -0.345  -1.246   0.060  0.00  0.00    -0.305 NA
ATOM     24  H   UNL     1      -0.718  -1.970   0.674  0.00  0.00    +0.123 HD
BRANCH   6  14
ATOM     14  C   UNL     1      -1.300  -0.997  -1.006  0.00  0.00    +0.120 C 
BRANCH  14  16
ATOM     16  C   UNL     1      -2.632  -0.543  -0.470  0.00  0.00    +0.008 A 
ATOM     18  C   UNL     1      -3.518  -1.454   0.105  0.00  0.00    +0.121 A 
ATOM     19  C   UNL     1      -2.977   0.806  -0.556  0.00  0.00    +0.008 A 
ATOM     20  C   UNL     1      -4.749  -1.016   0.594  0.00  0.00    +0.046 A 
ATOM     21  C   UNL     1      -4.208   1.244  -0.067  0.00  0.00    +0.001 A 
ATOM     22  C   UNL     1      -5.094   0.333   0.508  0.00  0.00    +0.004 A 
BRANCH  18   5
ATOM      5  O   UNL     1      -3.197  -2.775   0.195  0.00  0.00    -0.506 OA
ATOM     27  H   UNL     1      -3.931  -3.251   0.621  0.00  0.00    +0.292 HD
ENDBRANCH  18   5
ENDBRANCH  14  16
ENDBRANCH   6  14
ENDBRANCH   8   6
BRANCH  10   7
ATOM      7  N   UNL     1       1.903   1.287   0.611  0.00  0.00    -0.305 NA
ATOM     25  H   UNL     1       2.393   1.531   1.471  0.00  0.00    +0.123 HD
BRANCH   7  15
ATOM     15  C   UNL     1       1.795   2.475  -0.220  0.00  0.00    +0.109 C 
BRANCH  15  17
ATOM     17  C   UNL     1       1.073   3.587   0.524  0.00  0.00    +0.174 C 
BRANCH  17   4
ATOM      4  O   UNL     1       1.006   4.731  -0.317  0.00  0.00    -0.382 OA
ATOM     23  C   UNL     1       0.322   5.804   0.316  0.00  0.00    +0.194 C 
ENDBRANCH  17   4
ENDBRANCH  15  17
ENDBRANCH   7  15
ENDBRANCH  10   7
TORSDOF 9
