REMARK  Name = 38031153
REMARK  15 active torsions:
REMARK  status: ('A' for Active; 'I' for Inactive)
REMARK    1  A    between atoms: N_3  and  C_14
REMARK    2  A    between atoms: N_3  and  C_20
REMARK    3  A    between atoms: N_4  and  C_21
REMARK    4  A    between atoms: C_7  and  C_11
REMARK    5  A    between atoms: C_8  and  C_14
REMARK    6  A    between atoms: C_10  and  C_15
REMARK    7  A    between atoms: C_11  and  C_16
REMARK    8  A    between atoms: C_11  and  C_17
REMARK    9  A    between atoms: C_12  and  C_18
REMARK   10  A    between atoms: C_15  and  C_19
REMARK   11  A    between atoms: C_20  and  C_21
REMARK   12  A    between atoms: C_22  and  C_23
REMARK   13  A    between atoms: C_23  and  C_28
REMARK   14  A    between atoms: C_23  and  C_29
REMARK   15  A    between atoms: C_23  and  C_30
REMARK                            x       y       z     vdW  Elec       q    Type
REMARK                         _______ _______ _______ _____ _____    ______ ____
ROOT
ATOM      7  C   UNL     1       0.500  -1.771  -1.061  0.00  0.00    +0.000 C 
ATOM      8  C   UNL     1      -0.535  -2.767  -0.481  0.00  0.00    +0.029 C 
ATOM      9  C   UNL     1       1.865  -1.959  -0.380  0.00  0.00    +0.012 C 
ATOM     10  C   UNL     1       1.788  -1.752   1.145  0.00  0.00    +0.024 C 
ATOM     12  C   UNL     1       0.619  -2.496   1.756  0.00  0.00    -0.073 C 
ATOM     13  C   UNL     1      -0.404  -2.954   1.012  0.00  0.00    -0.023 C 
ATOM     18  C   UNL     1       0.673  -2.743   3.238  0.00  0.00    +0.039 C 
ENDROOT
BRANCH   7  11
ATOM     11  C   UNL     1       0.652  -1.925  -2.577  0.00  0.00    -0.013 C 
ATOM     16  C   UNL     1       1.163  -0.628  -3.196  0.00  0.00    +0.007 C 
ATOM     17  C   UNL     1       1.587  -3.086  -2.903  0.00  0.00    +0.007 C 
ENDBRANCH   7  11
BRANCH   8  14
ATOM     14  C   UNL     1      -1.967  -2.335  -0.818  0.00  0.00    +0.088 C 
BRANCH  14   3
ATOM      3  N   UNL     1      -2.286  -1.071  -0.177  0.00  0.00    -0.314 NA
ATOM     31  H   UNL     1      -2.188  -1.147   0.835  0.00  0.00    +0.122 HD
BRANCH   3  20
ATOM     20  C   UNL     1      -3.643  -0.646  -0.499  0.00  0.00    +0.096 C 
BRANCH  20  21
ATOM     21  C   UNL     1      -3.942   0.700   0.153  0.00  0.00    +0.099 C 
BRANCH  21   4
ATOM      2  O   UNL     1      -7.818   2.275   0.475  0.00  0.00    -0.377 OA
ATOM      4  N   UNL     1      -5.295   1.134  -0.185  0.00  0.00    -0.297 NA
ATOM     24  C   UNL     1      -5.451   2.578   0.038  0.00  0.00    +0.112 C 
ATOM     25  C   UNL     1      -6.292   0.393   0.601  0.00  0.00    +0.112 C 
ATOM     26  C   UNL     1      -6.875   3.006  -0.309  0.00  0.00    +0.175 C 
ATOM     27  C   UNL     1      -7.696   0.872   0.239  0.00  0.00    +0.175 C 
ENDBRANCH  21   4
ENDBRANCH  20  21
ENDBRANCH   3  20
ENDBRANCH  14   3
ENDBRANCH   8  14
BRANCH  10  15
ATOM     15  C   UNL     1       1.736  -0.262   1.498  0.00  0.00    +0.105 C 
BRANCH  15  19
ATOM      1  O   UNL     1       3.295   1.156   0.268  0.00  0.00    -0.424 OA
ATOM      5  N   UNL     1       4.125   0.314   2.167  0.00  0.00    -0.112 NA
ATOM      6  N   UNL     1       5.106   1.091   1.579  0.00  0.00    -0.112 NA
ATOM     19  C   UNL     1       3.087   0.381   1.368  0.00  0.00    +0.218 A 
ATOM     22  C   UNL     1       4.577   1.562   0.474  0.00  0.00    +0.223 A 
BRANCH  22  23
ATOM     23  C   UNL     1       5.164   2.446  -0.540  0.00  0.00    +0.040 C 
ATOM     28  C   UNL     1       6.718   2.261  -0.655  0.00  0.00    +0.020 C 
ATOM     29  C   UNL     1       4.913   3.961  -0.218  0.00  0.00    +0.020 C 
ATOM     30  C   UNL     1       4.635   2.263  -2.012  0.00  0.00    +0.020 C 
ENDBRANCH  22  23
ENDBRANCH  15  19
ENDBRANCH  10  15
TORSDOF 9
