REMARK  Name = 51137871
REMARK  4 active torsions:
REMARK  status: ('A' for Active; 'I' for Inactive)
REMARK    1  A    between atoms: N_2  and  C_12
REMARK    2  A    between atoms: C_7  and  C_11
REMARK    3  A    between atoms: C_12  and  C_15
REMARK    4  A    between atoms: C_16  and  C_21
REMARK                            x       y       z     vdW  Elec       q    Type
REMARK                         _______ _______ _______ _____ _____    ______ ____
ROOT
ATOM      3  N   UNL     1       2.217  -2.061   0.126  0.00  0.00    -0.342 N 
ATOM      4  N   UNL     1       1.883   0.136   0.147  0.00  0.00    -0.231 NA
ATOM     11  C   UNL     1       1.308  -1.044   0.211  0.00  0.00    +0.113 A 
ATOM     13  C   UNL     1       3.462  -1.500  -0.002  0.00  0.00    +0.067 A 
ATOM     14  C   UNL     1       3.227  -0.128   0.014  0.00  0.00    +0.101 A 
ATOM     16  C   UNL     1       4.314   0.754  -0.100  0.00  0.00    +0.064 A 
ATOM     17  C   UNL     1       4.735  -2.058  -0.127  0.00  0.00    +0.028 A 
ATOM     19  C   UNL     1       5.601   0.217  -0.226  0.00  0.00    +0.015 A 
ATOM     20  C   UNL     1       5.805  -1.165  -0.239  0.00  0.00    +0.003 A 
ATOM     25  H   UNL     1       2.013  -3.051   0.152  0.00  0.00    +0.167 HD
ENDROOT
BRANCH  16  21
ATOM      1  O   UNL     1       5.066   2.984  -0.199  0.00  0.00    -0.270 OA
ATOM      6  N   UNL     1       2.808   2.665   0.043  0.00  0.00    -0.325 N 
ATOM     21  C   UNL     1       4.112   2.192  -0.085  0.00  0.00    +0.244 C 
ATOM     26  H   UNL     1       2.627   3.663   0.051  0.00  0.00    +0.145 HD
ATOM     27  H   UNL     1       1.995   2.066   0.133  0.00  0.00    +0.145 HD
ENDBRANCH  16  21
BRANCH  11   7
ATOM      2  N   UNL     1      -2.293  -0.464  -0.146  0.00  0.00    -0.296 NA
ATOM      7  C   UNL     1      -0.170  -1.322   0.362  0.00  0.00    +0.070 C 
ATOM      8  C   UNL     1      -0.810  -0.744   1.636  0.00  0.00    +0.028 C 
ATOM      9  C   UNL     1      -1.007  -0.747  -0.788  0.00  0.00    +0.096 C 
ATOM     10  C   UNL     1      -1.946   0.141   1.140  0.00  0.00    +0.085 C 
BRANCH   2  12
ATOM     12  C   UNL     1      -3.139   0.400  -0.955  0.00  0.00    +0.139 C 
BRANCH  12  15
ATOM      5  N   UNL     1      -5.045   1.382   0.196  0.00  0.00    -0.259 NA
ATOM     15  C   UNL     1      -4.580   0.336  -0.524  0.00  0.00    +0.055 A 
ATOM     18  C   UNL     1      -5.346  -0.764  -0.877  0.00  0.00    +0.024 A 
ATOM     22  C   UNL     1      -6.673  -0.792  -0.464  0.00  0.00    +0.003 A 
ATOM     23  C   UNL     1      -6.340   1.319   0.579  0.00  0.00    +0.111 A 
ATOM     24  C   UNL     1      -7.188   0.265   0.278  0.00  0.00    +0.020 A 
ENDBRANCH  12  15
ENDBRANCH   2  12
ENDBRANCH  11   7
TORSDOF 4
