REMARK  Name = 28962277
REMARK  11 active torsions:
REMARK  status: ('A' for Active; 'I' for Inactive)
REMARK    1  A    between atoms: O_4  and  C_13
REMARK    2  A    between atoms: O_5  and  C_16
REMARK    3  A    between atoms: N_7  and  C_11
REMARK    4  A    between atoms: N_7  and  C_17
REMARK    5  A    between atoms: N_7  and  C_18
REMARK    6  A    between atoms: N_8  and  C_15
REMARK    7  A    between atoms: N_9  and  C_24
REMARK    8  A    between atoms: C_12  and  C_15
REMARK    9  A    between atoms: C_14  and  C_16
REMARK   10  A    between atoms: C_17  and  C_19
REMARK   11  A    between atoms: C_19  and  C_20
REMARK                            x       y       z     vdW  Elec       q    Type
REMARK                         _______ _______ _______ _____ _____    ______ ____
ROOT
ATOM      3  O   UNL     1       1.501   2.986  -0.653  0.00  0.00    -0.365 OA
ATOM     11  C   UNL     1       3.180   1.300  -0.573  0.00  0.00    +0.118 C 
ATOM     12  C   UNL     1       1.673   1.564  -0.457  0.00  0.00    +0.155 C 
ATOM     13  C   UNL     1       3.793   2.635  -0.178  0.00  0.00    +0.165 C 
ATOM     14  C   UNL     1       2.795   3.600  -0.807  0.00  0.00    +0.174 C 
ENDROOT
BRANCH  13   4
ATOM      4  O   UNL     1       3.819   2.800   1.234  0.00  0.00    -0.388 OA
ATOM     32  H   UNL     1       4.314   3.614   1.426  0.00  0.00    +0.210 HD
ENDBRANCH  13   4
BRANCH  11   7
ATOM      7  N   UNL     1       3.687   0.148   0.151  0.00  0.00    -0.297 NA
ATOM     18  C   UNL     1       5.131  -0.003  -0.053  0.00  0.00    +0.105 C 
BRANCH   7  17
ATOM     17  C   UNL     1       2.992  -1.075  -0.262  0.00  0.00    +0.090 C 
BRANCH  17  19
ATOM     19  C   UNL     1       3.181  -2.188   0.770  0.00  0.00    +0.071 C 
BRANCH  19  20
ATOM     10  N   UNL     1       3.214  -4.327  -0.393  0.00  0.00    -0.260 NA
ATOM     20  C   UNL     1       2.488  -3.459   0.347  0.00  0.00    +0.042 A 
ATOM     22  C   UNL     1       1.173  -3.673   0.727  0.00  0.00    +0.023 A 
ATOM     23  C   UNL     1       0.564  -4.856   0.322  0.00  0.00    +0.003 A 
ATOM     25  C   UNL     1       2.588  -5.465  -0.768  0.00  0.00    +0.111 A 
ATOM     26  C   UNL     1       1.278  -5.774  -0.440  0.00  0.00    +0.020 A 
ENDBRANCH  19  20
ENDBRANCH  17  19
ENDBRANCH   7  17
ENDBRANCH  11   7
BRANCH  12  15
ATOM     15  C   UNL     1       1.017   1.208   0.872  0.00  0.00    +0.139 C 
BRANCH  15   8
ATOM      6  O   UNL     1      -1.095  -0.551   0.065  0.00  0.00    -0.253 OA
ATOM      8  N   UNL     1      -0.384   1.506   0.851  0.00  0.00    -0.297 N 
ATOM      9  N   UNL     1      -2.640   1.155   0.526  0.00  0.00    -0.267 N 
ATOM     21  C   UNL     1      -1.366   0.587   0.441  0.00  0.00    +0.304 C 
ATOM     33  H   UNL     1      -0.682   2.433   1.136  0.00  0.00    +0.150 HD
ATOM     35  H   UNL     1      -2.693   2.115   0.858  0.00  0.00    +0.156 HD
BRANCH   9  24
ATOM      1  F   UNL     1      -5.042   2.542   0.796  0.00  0.00    -0.203 F 
ATOM      2  F   UNL     1      -7.497  -1.200  -0.736  0.00  0.00    -0.205 F 
ATOM     24  C   UNL     1      -3.880   0.556   0.205  0.00  0.00    +0.070 A 
ATOM     27  C   UNL     1      -5.065   1.278   0.351  0.00  0.00    +0.147 A 
ATOM     28  C   UNL     1      -3.918  -0.759  -0.259  0.00  0.00    +0.029 A 
ATOM     29  C   UNL     1      -6.287   0.685   0.033  0.00  0.00    +0.078 A 
ATOM     30  C   UNL     1      -5.139  -1.352  -0.577  0.00  0.00    +0.040 A 
ATOM     31  C   UNL     1      -6.324  -0.630  -0.431  0.00  0.00    +0.126 A 
ENDBRANCH   9  24
ENDBRANCH  15   8
ENDBRANCH  12  15
BRANCH  14  16
ATOM     16  C   UNL     1       2.763   4.992  -0.204  0.00  0.00    +0.190 C 
BRANCH  16   5
ATOM      5  O   UNL     1       1.800   5.770  -0.897  0.00  0.00    -0.392 OA
ATOM     34  H   UNL     1       1.804   6.655  -0.494  0.00  0.00    +0.210 HD
ENDBRANCH  16   5
ENDBRANCH  14  16
TORSDOF 10
