REMARK  Name = 25390364
REMARK  9 active torsions:
REMARK  status: ('A' for Active; 'I' for Inactive)
REMARK    1  A    between atoms: S_1  and  N_9
REMARK    2  A    between atoms: S_1  and  C_24
REMARK    3  A    between atoms: O_3  and  C_13
REMARK    4  A    between atoms: O_4  and  C_14
REMARK    5  A    between atoms: N_9  and  C_17
REMARK    6  A    between atoms: C_12  and  C_16
REMARK    7  A    between atoms: C_15  and  C_17
REMARK    8  A    between atoms: C_16  and  C_18
REMARK    9  A    between atoms: C_32  and  C_34
REMARK                            x       y       z     vdW  Elec       q    Type
REMARK                         _______ _______ _______ _____ _____    ______ ____
ROOT
ATOM      2  O   UNL     1       1.653   2.300  -0.683  0.00  0.00    -0.366 OA
ATOM     12  C   UNL     1       0.931   2.859   0.428  0.00  0.00    +0.158 C 
ATOM     13  C   UNL     1       1.928   2.925   1.573  0.00  0.00    +0.175 C 
ATOM     14  C   UNL     1       3.212   3.253   0.840  0.00  0.00    +0.175 C 
ATOM     15  C   UNL     1       3.072   2.424  -0.432  0.00  0.00    +0.165 C 
ENDROOT
BRANCH  13   3
ATOM      3  O   UNL     1       1.568   3.896   2.533  0.00  0.00    -0.387 OA
ATOM     35  H   UNL     1       2.302   3.965   3.167  0.00  0.00    +0.210 HD
ENDBRANCH  13   3
BRANCH  14   4
ATOM      4  O   UNL     1       3.232   4.631   0.469  0.00  0.00    -0.387 OA
ATOM     36  H   UNL     1       4.053   4.786  -0.029  0.00  0.00    +0.210 HD
ENDBRANCH  14   4
BRANCH  12  16
ATOM     16  C   UNL     1      -0.282   1.999   0.735  0.00  0.00    +0.130 C 
BRANCH  16  18
ATOM      5  O   UNL     1      -1.208   3.146  -1.127  0.00  0.00    -0.276 OA
ATOM      8  N   UNL     1      -2.552   1.542  -0.117  0.00  0.00    -0.298 N 
ATOM     10  N   UNL     1      -4.939  -0.094  -0.049  0.00  0.00    -0.312 N 
ATOM     11  N   UNL     1      -6.840  -0.928   1.076  0.00  0.00    -0.240 NA
ATOM     18  C   UNL     1      -1.381   2.288  -0.259  0.00  0.00    +0.218 C 
ATOM     19  C   UNL     1      -3.664   1.766  -1.037  0.00  0.00    +0.126 C 
ATOM     20  C   UNL     1      -2.751   0.515   0.908  0.00  0.00    +0.126 C 
ATOM     21  C   UNL     1      -4.451   0.486  -1.304  0.00  0.00    +0.125 C 
ATOM     22  C   UNL     1      -4.228   0.238   1.188  0.00  0.00    +0.125 C 
ATOM     23  C   UNL     1      -6.069  -0.908  -0.034  0.00  0.00    +0.121 A 
ATOM     25  C   UNL     1      -6.328  -1.654  -1.173  0.00  0.00    +0.043 A 
ATOM     28  C   UNL     1      -7.452  -2.472  -1.173  0.00  0.00    +0.005 A 
ATOM     29  C   UNL     1      -7.924  -1.735   1.039  0.00  0.00    +0.113 A 
ATOM     33  C   UNL     1      -8.271  -2.519  -0.050  0.00  0.00    +0.020 A 
ENDBRANCH  16  18
ENDBRANCH  12  16
BRANCH  15  17
ATOM     17  C   UNL     1       3.645   1.020  -0.293  0.00  0.00    +0.140 C 
BRANCH  17   9
ATOM      9  N   UNL     1       3.489   0.275  -1.507  0.00  0.00    -0.187 NA
ATOM     37  H   UNL     1       2.531   0.179  -1.866  0.00  0.00    +0.148 HD
BRANCH   9   1
ATOM      1  S   UNL     1       4.631  -0.930  -1.971  0.00  0.00    +0.058 S 
ATOM      6  O   UNL     1       5.955  -0.340  -1.961  0.00  0.00    -0.153 OA
ATOM      7  O   UNL     1       4.159  -1.643  -3.142  0.00  0.00    -0.153 OA
BRANCH   1  24
ATOM     24  C   UNL     1       4.523  -2.049  -0.607  0.00  0.00    +0.105 A 
ATOM     26  C   UNL     1       3.606  -3.100  -0.638  0.00  0.00    +0.029 A 
ATOM     27  C   UNL     1       5.352  -1.880   0.502  0.00  0.00    +0.029 A 
ATOM     30  C   UNL     1       3.518  -3.982   0.439  0.00  0.00    +0.005 A 
ATOM     31  C   UNL     1       5.265  -2.762   1.579  0.00  0.00    +0.005 A 
ATOM     32  C   UNL     1       4.348  -3.812   1.548  0.00  0.00    -0.050 A 
ATOM     34  C   UNL     1       4.254  -4.755   2.700  0.00  0.00    +0.044 C 
ENDBRANCH   1  24
ENDBRANCH   9   1
ENDBRANCH  17   9
ENDBRANCH  15  17
TORSDOF 8
