REMARK  Name = 75536888
REMARK  5 active torsions:
REMARK  status: ('A' for Active; 'I' for Inactive)
REMARK    1  A    between atoms: S_1  and  C_18
REMARK    2  A    between atoms: S_1  and  C_21
REMARK    3  A    between atoms: O_3  and  C_8
REMARK    4  A    between atoms: O_3  and  C_14
REMARK    5  A    between atoms: C_13  and  C_15
REMARK                            x       y       z     vdW  Elec       q    Type
REMARK                         _______ _______ _______ _____ _____    ______ ____
ROOT
ATOM      3  O   UNL     1       0.544  -1.345  -1.112  0.00  0.00    -0.485 OA
ENDROOT
BRANCH   3   8
ATOM      2  O   UNL     1       3.279  -1.998   1.259  0.00  0.00    -0.375 OA
ATOM      4  O   UNL     1       2.405   2.683  -0.814  0.00  0.00    -0.276 OA
ATOM      7  N   UNL     1       3.443   0.697  -0.161  0.00  0.00    -0.296 N 
ATOM      8  C   UNL     1       1.608  -0.977  -0.236  0.00  0.00    +0.216 C 
ATOM      9  C   UNL     1       2.594  -0.120  -1.030  0.00  0.00    +0.154 C 
ATOM     10  C   UNL     1       2.235  -2.249   0.327  0.00  0.00    +0.206 C 
ATOM     11  C   UNL     1       4.459   0.037   0.670  0.00  0.00    +0.136 C 
ATOM     12  C   UNL     1       4.465  -1.486   0.660  0.00  0.00    +0.179 C 
ATOM     13  C   UNL     1       3.245   2.086  -0.135  0.00  0.00    +0.213 C 
ATOM     15  C   UNL     1       4.131   2.871   0.802  0.00  0.00    +0.109 C 
ENDBRANCH   3   8
BRANCH   3  14
ATOM     14  C   UNL     1      -0.706  -0.908  -0.772  0.00  0.00    +0.121 A 
ATOM     16  C   UNL     1      -0.962   0.458  -0.663  0.00  0.00    +0.047 A 
ATOM     17  C   UNL     1      -1.726  -1.830  -0.533  0.00  0.00    +0.047 A 
ATOM     18  C   UNL     1      -3.257  -0.018  -0.078  0.00  0.00    +0.088 A 
ATOM     19  C   UNL     1      -2.238   0.904  -0.316  0.00  0.00    +0.030 A 
ATOM     20  C   UNL     1      -3.001  -1.385  -0.186  0.00  0.00    +0.030 A 
BRANCH  18   1
ATOM      1  S   UNL     1      -4.855   0.540   0.353  0.00  0.00    -0.006 S 
ATOM      5  O   UNL     1      -5.029   1.899  -0.141  0.00  0.00    -0.170 OA
ATOM      6  O   UNL     1      -5.808  -0.493  -0.025  0.00  0.00    -0.170 OA
ATOM     21  C   UNL     1      -4.827   0.634   2.129  0.00  0.00    +0.200 C 
ENDBRANCH  18   1
ENDBRANCH   3  14
TORSDOF 3
