REMARK  Name = 7049570
REMARK  13 active torsions:
REMARK  status: ('A' for Active; 'I' for Inactive)
REMARK    1  A    between atoms: S_1  and  C_21
REMARK    2  A    between atoms: S_1  and  C_27
REMARK    3  A    between atoms: O_7  and  C_23
REMARK    4  A    between atoms: O_7  and  C_28
REMARK    5  A    between atoms: N_10  and  C_13
REMARK    6  A    between atoms: N_11  and  C_19
REMARK    7  A    between atoms: N_12  and  C_26
REMARK    8  A    between atoms: C_14  and  C_17
REMARK    9  A    between atoms: C_18  and  C_21
REMARK   10  A    between atoms: C_19  and  C_20
REMARK   11  A    between atoms: C_19  and  C_23
REMARK   12  A    between atoms: C_20  and  C_24
REMARK   13  A    between atoms: C_20  and  C_25
REMARK                            x       y       z     vdW  Elec       q    Type
REMARK                         _______ _______ _______ _____ _____    ______ ____
ROOT
ATOM      5  O   UNL     1      -2.630   1.736  -1.939  0.00  0.00    -0.275 OA
ATOM      9  N   UNL     1      -1.704   2.125   0.147  0.00  0.00    -0.287 N 
ATOM     13  C   UNL     1      -0.154   0.937   1.492  0.00  0.00    +0.105 C 
ATOM     14  C   UNL     1      -1.129   0.795   0.323  0.00  0.00    +0.182 C 
ATOM     15  C   UNL     1      -0.744   2.089   2.310  0.00  0.00    +0.043 C 
ATOM     16  C   UNL     1      -1.357   3.005   1.259  0.00  0.00    +0.110 C 
ATOM     18  C   UNL     1      -2.352   2.506  -1.018  0.00  0.00    +0.226 C 
ENDROOT
BRANCH  13  10
ATOM      6  O   UNL     1       1.954  -0.922   0.940  0.00  0.00    -0.252 OA
ATOM     10  N   UNL     1       1.174   1.253   1.022  0.00  0.00    -0.294 N 
ATOM     12  N   UNL     1       3.331   0.879   0.332  0.00  0.00    -0.267 N 
ATOM     22  C   UNL     1       2.149   0.280   0.776  0.00  0.00    +0.304 C 
ATOM     34  H   UNL     1       1.392   2.219   0.799  0.00  0.00    +0.151 HD
ATOM     36  H   UNL     1       3.330   1.893   0.252  0.00  0.00    +0.156 HD
BRANCH  12  26
ATOM      2  F   UNL     1       5.544   2.341  -0.524  0.00  0.00    -0.203 F 
ATOM      3  F   UNL     1       8.086  -1.613  -1.048  0.00  0.00    -0.205 F 
ATOM     26  C   UNL     1       4.545   0.246  -0.021  0.00  0.00    +0.070 A 
ATOM     29  C   UNL     1       5.635   1.006  -0.446  0.00  0.00    +0.147 A 
ATOM     30  C   UNL     1       4.652  -1.143   0.056  0.00  0.00    +0.029 A 
ATOM     31  C   UNL     1       6.831   0.378  -0.793  0.00  0.00    +0.078 A 
ATOM     32  C   UNL     1       5.848  -1.771  -0.292  0.00  0.00    +0.040 A 
ATOM     33  C   UNL     1       6.938  -1.010  -0.716  0.00  0.00    +0.126 A 
ENDBRANCH  12  26
ENDBRANCH  13  10
BRANCH  14  17
ATOM      4  O   UNL     1      -3.254   0.276   1.280  0.00  0.00    -0.274 OA
ATOM     11  N   UNL     1      -2.046  -1.416   0.231  0.00  0.00    -0.301 N 
ATOM     17  C   UNL     1      -2.267  -0.120   0.665  0.00  0.00    +0.236 C 
ATOM     35  H   UNL     1      -1.215  -1.610  -0.318  0.00  0.00    +0.150 HD
BRANCH  11  19
ATOM     19  C   UNL     1      -2.981  -2.494   0.456  0.00  0.00    +0.184 C 
BRANCH  19  20
ATOM     20  C   UNL     1      -2.280  -3.864   0.591  0.00  0.00    +0.014 C 
ATOM     24  C   UNL     1      -1.206  -3.890   1.684  0.00  0.00    +0.009 C 
ATOM     25  C   UNL     1      -1.678  -4.313  -0.743  0.00  0.00    +0.009 C 
ENDBRANCH  19  20
BRANCH  19  23
ATOM      8  O   UNL     1      -4.055  -1.791  -1.593  0.00  0.00    -0.249 OA
ATOM     23  C   UNL     1      -4.066  -2.531  -0.615  0.00  0.00    +0.328 C 
BRANCH  23   7
ATOM      7  O   UNL     1      -5.023  -3.463  -0.348  0.00  0.00    -0.467 OA
ATOM     28  C   UNL     1      -6.082  -3.560  -1.306  0.00  0.00    +0.280 C 
ENDBRANCH  23   7
ENDBRANCH  19  23
ENDBRANCH  11  19
ENDBRANCH  14  17
BRANCH  18  21
ATOM     21  C   UNL     1      -2.726   3.965  -1.107  0.00  0.00    +0.164 C 
BRANCH  21   1
ATOM      1  S   UNL     1      -4.377   4.149  -0.418  0.00  0.00    -0.155 S 
ATOM     27  C   UNL     1      -4.575   5.934  -0.639  0.00  0.00    +0.085 C 
ENDBRANCH  21   1
ENDBRANCH  18  21
TORSDOF 9
