REMARK  Name = 45783322
REMARK  5 active torsions:
REMARK  status: ('A' for Active; 'I' for Inactive)
REMARK    1  A    between atoms: N_5  and  C_15
REMARK    2  A    between atoms: C_11  and  C_19
REMARK    3  A    between atoms: C_15  and  C_22
REMARK    4  A    between atoms: C_16  and  C_24
REMARK    5  A    between atoms: C_25  and  C_28
REMARK                            x       y       z     vdW  Elec       q    Type
REMARK                         _______ _______ _______ _____ _____    ______ ____
ROOT
ATOM      1  O   UNL     1      -3.511   0.656  -2.240  0.00  0.00    -0.336 OA
ATOM      7  N   UNL     1      -1.838   0.911  -0.772  0.00  0.00    -0.190 NA
ATOM      8  N   UNL     1      -2.356   0.191  -2.881  0.00  0.00    -0.056 NA
ATOM     19  C   UNL     1      -3.118   1.062  -1.004  0.00  0.00    +0.245 A 
ATOM     25  C   UNL     1      -1.413   0.373  -1.952  0.00  0.00    +0.202 A 
ENDROOT
BRANCH  25  28
ATOM      6  N   UNL     1       3.155   0.112  -0.412  0.00  0.00    -0.315 N 
ATOM      9  N   UNL     1       2.644  -0.641  -2.598  0.00  0.00    -0.240 NA
ATOM     16  C   UNL     1       5.080   0.634   1.698  0.00  0.00    +0.078 C 
ATOM     17  C   UNL     1       4.873  -0.765   1.123  0.00  0.00    +0.031 C 
ATOM     18  C   UNL     1       3.840   1.505   1.500  0.00  0.00    +0.031 C 
ATOM     20  C   UNL     1       4.327  -0.762  -0.307  0.00  0.00    +0.107 C 
ATOM     21  C   UNL     1       3.330   1.492   0.059  0.00  0.00    +0.107 C 
ATOM     23  C   UNL     1       2.220  -0.108  -1.430  0.00  0.00    +0.122 A 
ATOM     26  C   UNL     1       0.904   0.241  -1.169  0.00  0.00    +0.055 A 
ATOM     28  C   UNL     1      -0.036   0.030  -2.171  0.00  0.00    +0.027 A 
ATOM     33  C   UNL     1       0.362  -0.516  -3.386  0.00  0.00    +0.031 A 
ATOM     34  C   UNL     1       1.702  -0.831  -3.548  0.00  0.00    +0.113 A 
BRANCH  16  24
ATOM      2  O   UNL     1       6.977   0.754   0.247  0.00  0.00    -0.276 OA
ATOM     10  N   UNL     1       6.553   2.540   1.634  0.00  0.00    -0.329 N 
ATOM     24  C   UNL     1       6.290   1.297   1.108  0.00  0.00    +0.214 C 
ATOM     36  H   UNL     1       7.347   3.082   1.308  0.00  0.00    +0.145 HD
ATOM     37  H   UNL     1       6.011   2.947   2.389  0.00  0.00    +0.145 HD
ENDBRANCH  16  24
ENDBRANCH  25  28
BRANCH  19  11
ATOM      5  N   UNL     1      -3.890   1.431   1.333  0.00  0.00    -0.287 NA
ATOM     11  C   UNL     1      -4.199   1.615  -0.099  0.00  0.00    +0.146 C 
ATOM     12  C   UNL     1      -4.393   3.134  -0.265  0.00  0.00    +0.030 C 
ATOM     13  C   UNL     1      -4.235   3.710   1.135  0.00  0.00    +0.017 C 
ATOM     14  C   UNL     1      -4.539   2.534   2.041  0.00  0.00    +0.085 C 
BRANCH   5  15
ATOM     15  C   UNL     1      -4.303   0.131   1.847  0.00  0.00    +0.120 C 
BRANCH  15  22
ATOM      3  O   UNL     1       0.193  -1.938   1.849  0.00  0.00    -0.453 OA
ATOM      4  O   UNL     1      -0.551  -3.839   0.569  0.00  0.00    -0.453 OA
ATOM     22  C   UNL     1      -3.323  -0.953   1.484  0.00  0.00    -0.030 A 
ATOM     27  C   UNL     1      -1.992  -0.849   1.895  0.00  0.00    +0.054 A 
ATOM     29  C   UNL     1      -3.757  -2.062   0.737  0.00  0.00    +0.009 A 
ATOM     30  C   UNL     1      -1.131  -1.868   1.541  0.00  0.00    +0.167 A 
ATOM     31  C   UNL     1      -2.865  -3.080   0.392  0.00  0.00    +0.050 A 
ATOM     32  C   UNL     1      -1.556  -2.953   0.810  0.00  0.00    +0.166 A 
ATOM     35  C   UNL     1       0.553  -3.190   1.231  0.00  0.00    +0.466 C 
ENDBRANCH  15  22
ENDBRANCH   5  15
ENDBRANCH  19  11
TORSDOF 5
