REMARK  Name = 45361174
REMARK  9 active torsions:
REMARK  status: ('A' for Active; 'I' for Inactive)
REMARK    1  A    between atoms: O_4  and  C_26
REMARK    2  A    between atoms: O_4  and  C_30
REMARK    3  A    between atoms: N_5  and  C_18
REMARK    4  A    between atoms: N_6  and  C_17
REMARK    5  A    between atoms: C_12  and  C_16
REMARK    6  A    between atoms: C_16  and  C_19
REMARK    7  A    between atoms: C_17  and  C_25
REMARK    8  A    between atoms: C_19  and  C_23
REMARK    9  A    between atoms: C_20  and  C_26
REMARK                            x       y       z     vdW  Elec       q    Type
REMARK                         _______ _______ _______ _____ _____    ______ ____
ROOT
ATOM      2  O   UNL     1      -1.728   1.035   1.187  0.00  0.00    -0.274 OA
ATOM      5  N   UNL     1      -0.179  -2.017  -0.623  0.00  0.00    -0.296 NA
ATOM      6  N   UNL     1      -3.475  -0.484  -0.203  0.00  0.00    -0.285 NA
ATOM      7  N   UNL     1      -0.482  -0.730   1.941  0.00  0.00    -0.312 N 
ATOM      9  C   UNL     1      -1.658  -2.046  -0.589  0.00  0.00    +0.084 C 
ATOM     10  C   UNL     1      -2.392  -1.202   0.494  0.00  0.00    +0.161 C 
ATOM     11  C   UNL     1      -2.323  -1.551  -1.886  0.00  0.00    +0.036 C 
ATOM     12  C   UNL     1       0.476  -2.574   0.593  0.00  0.00    +0.074 C 
ATOM     13  C   UNL     1      -3.729  -1.198  -1.449  0.00  0.00    +0.087 C 
ATOM     14  C   UNL     1      -0.161  -2.144   1.929  0.00  0.00    +0.123 C 
ATOM     15  C   UNL     1      -1.519  -0.177   1.215  0.00  0.00    +0.232 C 
ATOM     18  C   UNL     1       0.330  -2.690  -1.830  0.00  0.00    +0.105 C 
ATOM     31  H   UNL     1       0.089  -0.109   2.506  0.00  0.00    +0.149 HD
ENDROOT
BRANCH  12  16
ATOM     16  C   UNL     1       1.965  -2.169   0.637  0.00  0.00    +0.029 C 
BRANCH  16  19
ATOM     19  C   UNL     1       2.155  -0.683   0.398  0.00  0.00    +0.097 C 
BRANCH  19  23
ATOM      3  O   UNL     1       4.469  -1.157   0.697  0.00  0.00    -0.276 OA
ATOM      8  N   UNL     1       3.889   1.041   0.264  0.00  0.00    -0.296 N 
ATOM     20  C   UNL     1       5.237   1.598   0.396  0.00  0.00    +0.102 C 
ATOM     21  C   UNL     1       4.997   3.104   0.522  0.00  0.00    +0.026 C 
ATOM     22  C   UNL     1       2.907   2.088  -0.006  0.00  0.00    +0.108 C 
ATOM     23  C   UNL     1       3.612  -0.301   0.471  0.00  0.00    +0.216 C 
ATOM     24  C   UNL     1       3.734   3.331  -0.300  0.00  0.00    +0.021 C 
BRANCH  20  26
ATOM     26  C   UNL     1       6.104   1.252  -0.813  0.00  0.00    +0.181 C 
BRANCH  26   4
ATOM      4  O   UNL     1       6.665  -0.032  -0.610  0.00  0.00    -0.381 OA
ATOM     30  C   UNL     1       7.491  -0.425  -1.701  0.00  0.00    +0.194 C 
ENDBRANCH  26   4
ENDBRANCH  20  26
ENDBRANCH  19  23
ENDBRANCH  16  19
ENDBRANCH  12  16
BRANCH   6  17
ATOM     17  C   UNL     1      -4.682  -0.339   0.602  0.00  0.00    +0.127 C 
BRANCH  17  25
ATOM      1  S   UNL     1      -7.247   0.690   0.291  0.00  0.00    -0.100 S 
ATOM     25  C   UNL     1      -5.547   0.793   0.114  0.00  0.00    +0.004 A 
ATOM     27  C   UNL     1      -5.161   1.969  -0.489  0.00  0.00    +0.012 A 
ATOM     28  C   UNL     1      -6.275   2.797  -0.810  0.00  0.00    +0.008 A 
ATOM     29  C   UNL     1      -7.471   2.222  -0.441  0.00  0.00    +0.045 A 
ENDBRANCH  17  25
ENDBRANCH   6  17
TORSDOF 7
