REMARK  Name = 45361198
REMARK  9 active torsions:
REMARK  status: ('A' for Active; 'I' for Inactive)
REMARK    1  A    between atoms: O_3  and  C_26
REMARK    2  A    between atoms: O_4  and  C_31
REMARK    3  A    between atoms: O_4  and  C_32
REMARK    4  A    between atoms: N_5  and  C_18
REMARK    5  A    between atoms: N_6  and  C_17
REMARK    6  A    between atoms: C_13  and  C_16
REMARK    7  A    between atoms: C_16  and  C_19
REMARK    8  A    between atoms: C_17  and  C_20
REMARK    9  A    between atoms: C_19  and  C_21
REMARK                            x       y       z     vdW  Elec       q    Type
REMARK                         _______ _______ _______ _____ _____    ______ ____
ROOT
ATOM      1  O   UNL     1       0.523  -0.557   1.099  0.00  0.00    -0.274 OA
ATOM      5  N   UNL     1      -0.941   2.561  -0.669  0.00  0.00    -0.296 NA
ATOM      6  N   UNL     1       2.352   1.164   0.107  0.00  0.00    -0.286 NA
ATOM      7  N   UNL     1      -0.925   1.070   1.801  0.00  0.00    -0.312 N 
ATOM      9  C   UNL     1       0.514   2.661  -0.416  0.00  0.00    +0.084 C 
ATOM     10  C   UNL     1       1.137   1.763   0.692  0.00  0.00    +0.161 C 
ATOM     11  C   UNL     1       1.386   2.315  -1.637  0.00  0.00    +0.036 C 
ATOM     12  C   UNL     1       2.735   1.996  -1.028  0.00  0.00    +0.087 C 
ATOM     13  C   UNL     1      -1.796   2.975   0.478  0.00  0.00    +0.074 C 
ATOM     14  C   UNL     1       0.237   0.636   1.192  0.00  0.00    +0.232 C 
ATOM     15  C   UNL     1      -1.329   2.461   1.854  0.00  0.00    +0.123 C 
ATOM     18  C   UNL     1      -1.314   3.310  -1.881  0.00  0.00    +0.105 C 
ATOM     33  H   UNL     1      -1.530   0.373   2.225  0.00  0.00    +0.149 HD
ENDROOT
BRANCH  13  16
ATOM     16  C   UNL     1      -3.247   2.493   0.271  0.00  0.00    +0.029 C 
BRANCH  16  19
ATOM     19  C   UNL     1      -3.308   1.026  -0.112  0.00  0.00    +0.097 C 
BRANCH  19  21
ATOM      2  O   UNL     1      -5.652   1.371  -0.107  0.00  0.00    -0.276 OA
ATOM      8  N   UNL     1      -4.921  -0.769  -0.637  0.00  0.00    -0.301 N 
ATOM     21  C   UNL     1      -4.734   0.567  -0.284  0.00  0.00    +0.216 C 
ATOM     22  C   UNL     1      -3.848  -1.749  -0.855  0.00  0.00    +0.110 C 
ATOM     23  C   UNL     1      -6.275  -1.279  -0.868  0.00  0.00    +0.110 C 
ATOM     24  C   UNL     1      -4.074  -2.995  -0.004  0.00  0.00    +0.050 C 
ATOM     25  C   UNL     1      -6.544  -2.515  -0.017  0.00  0.00    +0.050 C 
ATOM     26  C   UNL     1      -5.468  -3.580  -0.234  0.00  0.00    +0.118 C 
BRANCH  26   3
ATOM      3  O   UNL     1      -5.668  -4.659   0.671  0.00  0.00    -0.392 OA
ATOM     34  H   UNL     1      -6.560  -5.013   0.513  0.00  0.00    +0.210 HD
ENDBRANCH  26   3
ENDBRANCH  19  21
ENDBRANCH  16  19
ENDBRANCH  13  16
BRANCH   6  17
ATOM     17  C   UNL     1       3.439   1.009   1.065  0.00  0.00    +0.120 C 
BRANCH  17  20
ATOM     20  C   UNL     1       4.434  -0.030   0.622  0.00  0.00    -0.033 A 
ATOM     27  C   UNL     1       4.128  -1.386   0.742  0.00  0.00    +0.008 A 
ATOM     28  C   UNL     1       5.661   0.363   0.089  0.00  0.00    +0.008 A 
ATOM     29  C   UNL     1       5.050  -2.348   0.331  0.00  0.00    +0.046 A 
ATOM     30  C   UNL     1       6.583  -0.599  -0.322  0.00  0.00    +0.046 A 
ATOM     31  C   UNL     1       6.277  -1.955  -0.201  0.00  0.00    +0.120 A 
BRANCH  31   4
ATOM      4  O   UNL     1       7.177  -2.894  -0.604  0.00  0.00    -0.495 OA
ATOM     32  C   UNL     1       8.413  -2.422  -1.138  0.00  0.00    +0.277 C 
ENDBRANCH  31   4
ENDBRANCH  17  20
ENDBRANCH   6  17
TORSDOF 7
