REMARK  Name = 75367682
REMARK  3 active torsions:
REMARK  status: ('A' for Active; 'I' for Inactive)
REMARK    1  A    between atoms: O_2  and  C_7
REMARK    2  A    between atoms: O_2  and  C_13
REMARK    3  A    between atoms: N_5  and  C_14
REMARK                            x       y       z     vdW  Elec       q    Type
REMARK                         _______ _______ _______ _____ _____    ______ ____
ROOT
ATOM      1  O   UNL     1      -1.605   3.595   0.590  0.00  0.00    -0.375 OA
ATOM      3  O   UNL     1       2.648   2.089   0.081  0.00  0.00    -0.252 OA
ATOM      4  N   UNL     1       0.519   2.164  -0.820  0.00  0.00    -0.280 N 
ATOM      5  N   UNL     1       1.609   0.095  -0.508  0.00  0.00    -0.268 N 
ATOM      7  C   UNL     1      -1.713   1.248  -0.148  0.00  0.00    +0.216 C 
ATOM      8  C   UNL     1      -0.725   1.531  -1.282  0.00  0.00    +0.156 C 
ATOM      9  C   UNL     1       0.466   3.625  -0.716  0.00  0.00    +0.137 C 
ATOM     10  C   UNL     1      -1.696   2.239   1.016  0.00  0.00    +0.206 C 
ATOM     11  C   UNL     1      -0.261   4.076   0.544  0.00  0.00    +0.179 C 
ATOM     12  C   UNL     1       1.679   1.483  -0.384  0.00  0.00    +0.307 C 
ATOM     24  H   UNL     1       0.756  -0.322  -0.859  0.00  0.00    +0.156 HD
ENDROOT
BRANCH   5  14
ATOM      6  N   UNL     1       4.803  -1.314   0.723  0.00  0.00    -0.261 NA
ATOM     14  C   UNL     1       2.600  -0.856  -0.162  0.00  0.00    +0.053 A 
ATOM     19  C   UNL     1       2.383  -2.217  -0.346  0.00  0.00    +0.026 A 
ATOM     21  C   UNL     1       3.817  -0.460   0.371  0.00  0.00    +0.134 A 
ATOM     22  C   UNL     1       3.375  -3.127   0.004  0.00  0.00    +0.021 A 
ATOM     23  C   UNL     1       4.556  -2.629   0.529  0.00  0.00    +0.111 A 
ENDBRANCH   5  14
BRANCH   7   2
ATOM      2  O   UNL     1      -1.473  -0.063   0.362  0.00  0.00    -0.485 OA
BRANCH   2  13
ATOM     13  C   UNL     1      -2.475  -0.979   0.195  0.00  0.00    +0.121 A 
ATOM     15  C   UNL     1      -3.733  -0.746   0.750  0.00  0.00    +0.045 A 
ATOM     16  C   UNL     1      -2.239  -2.146  -0.531  0.00  0.00    +0.045 A 
ATOM     17  C   UNL     1      -4.755  -1.679   0.580  0.00  0.00    +0.004 A 
ATOM     18  C   UNL     1      -3.261  -3.080  -0.702  0.00  0.00    +0.004 A 
ATOM     20  C   UNL     1      -4.519  -2.847  -0.146  0.00  0.00    +0.000 A 
ENDBRANCH   2  13
ENDBRANCH   7   2
TORSDOF 3
