REMARK  Name = 75536936
REMARK  4 active torsions:
REMARK  status: ('A' for Active; 'I' for Inactive)
REMARK    1  A    between atoms: O_2  and  C_6
REMARK    2  A    between atoms: O_2  and  C_16
REMARK    3  A    between atoms: N_3  and  C_8
REMARK    4  A    between atoms: C_8  and  C_11
REMARK                            x       y       z     vdW  Elec       q    Type
REMARK                         _______ _______ _______ _____ _____    ______ ____
ROOT
ATOM      8  C   UNL     1       0.663  -1.491  -0.513  0.00  0.00    +0.121 C 
ENDROOT
BRANCH   8  11
ATOM      4  N   UNL     1      -2.907  -1.674   0.727  0.00  0.00    -0.255 NA
ATOM     11  C   UNL     1      -0.777  -1.126  -0.268  0.00  0.00    -0.015 A 
ATOM     12  C   UNL     1      -1.319   0.045  -0.777  0.00  0.00    +0.016 A 
ATOM     13  C   UNL     1      -1.607  -1.944   0.471  0.00  0.00    +0.116 A 
ATOM     14  C   UNL     1      -2.662   0.364  -0.536  0.00  0.00    +0.001 A 
ATOM     15  C   UNL     1      -3.430  -0.536   0.231  0.00  0.00    +0.071 A 
ATOM     17  C   UNL     1      -3.240   1.542  -1.037  0.00  0.00    +0.010 A 
ATOM     18  C   UNL     1      -4.765  -0.220   0.470  0.00  0.00    +0.028 A 
ATOM     19  C   UNL     1      -4.577   1.834  -0.782  0.00  0.00    +0.001 A 
ATOM     20  C   UNL     1      -5.340   0.952  -0.028  0.00  0.00    +0.002 A 
ENDBRANCH   8  11
BRANCH   8   3
ATOM      1  O   UNL     1       3.350   1.258   1.891  0.00  0.00    -0.376 OA
ATOM      3  N   UNL     1       1.578  -0.468  -0.008  0.00  0.00    -0.293 NA
ATOM      5  C   UNL     1       2.821  -0.472  -0.789  0.00  0.00    +0.118 C 
ATOM      6  C   UNL     1       4.045   0.238  -0.191  0.00  0.00    +0.157 C 
ATOM      7  C   UNL     1       1.773  -0.589   1.437  0.00  0.00    +0.113 C 
ATOM      9  C   UNL     1       3.724   1.532   0.545  0.00  0.00    +0.192 C 
ATOM     10  C   UNL     1       2.018   0.791   2.049  0.00  0.00    +0.175 C 
BRANCH   6   2
ATOM      2  O   UNL     1       4.943   0.549  -1.258  0.00  0.00    -0.376 OA
ATOM     16  C   UNL     1       5.710  -0.584  -1.633  0.00  0.00    +0.194 C 
ENDBRANCH   6   2
ENDBRANCH   8   3
TORSDOF 3
