REMARK  Name = 75536844
REMARK  5 active torsions:
REMARK  status: ('A' for Active; 'I' for Inactive)
REMARK    1  A    between atoms: O_2  and  C_7
REMARK    2  A    between atoms: O_3  and  C_10
REMARK    3  A    between atoms: N_5  and  C_6
REMARK    4  A    between atoms: C_8  and  C_10
REMARK    5  A    between atoms: C_11  and  C_12
REMARK                            x       y       z     vdW  Elec       q    Type
REMARK                         _______ _______ _______ _____ _____    ______ ____
ROOT
ATOM      1  O   UNL     1       1.715   0.053  -1.186  0.00  0.00    -0.370 OA
ATOM      6  C   UNL     1      -0.419   0.788  -0.484  0.00  0.00    +0.130 C 
ATOM      7  C   UNL     1       0.513   0.880   0.707  0.00  0.00    +0.168 C 
ATOM      8  C   UNL     1       1.794   0.188   0.245  0.00  0.00    +0.174 C 
ATOM      9  C   UNL     1       0.544   0.733  -1.653  0.00  0.00    +0.185 C 
ENDROOT
BRANCH   6   5
ATOM      4  O   UNL     1      -3.112   0.578   0.580  0.00  0.00    -0.276 OA
ATOM      5  N   UNL     1      -1.251  -0.388  -0.431  0.00  0.00    -0.308 N 
ATOM     11  C   UNL     1      -2.532  -0.391   0.099  0.00  0.00    +0.210 C 
ATOM     12  C   UNL     1      -3.187  -1.744   0.007  0.00  0.00    +0.109 C 
ATOM     13  H   UNL     1      -0.859  -1.264  -0.765  0.00  0.00    +0.149 HD
ENDBRANCH   6   5
BRANCH   7   2
ATOM      2  O   UNL     1       0.785   2.262   0.944  0.00  0.00    -0.387 OA
ATOM     14  H   UNL     1       1.412   2.311   1.686  0.00  0.00    +0.210 HD
ENDBRANCH   7   2
BRANCH   8  10
ATOM     10  C   UNL     1       1.972  -1.202   0.836  0.00  0.00    +0.190 C 
BRANCH  10   3
ATOM      3  O   UNL     1       3.178  -1.757   0.338  0.00  0.00    -0.392 OA
ATOM     15  H   UNL     1       3.270  -2.642   0.732  0.00  0.00    +0.210 HD
ENDBRANCH  10   3
ENDBRANCH   8  10
TORSDOF 4
