REMARK  Name = 45783326
REMARK  5 active torsions:
REMARK  status: ('A' for Active; 'I' for Inactive)
REMARK    1  A    between atoms: N_3  and  C_17
REMARK    2  A    between atoms: C_10  and  C_20
REMARK    3  A    between atoms: C_14  and  C_23
REMARK    4  A    between atoms: C_17  and  C_22
REMARK    5  A    between atoms: C_24  and  C_26
REMARK                            x       y       z     vdW  Elec       q    Type
REMARK                         _______ _______ _______ _____ _____    ______ ____
ROOT
ATOM      1  O   UNL     1      -3.608  -2.092  -0.047  0.00  0.00    -0.336 OA
ATOM      5  N   UNL     1      -1.931  -0.710  -0.592  0.00  0.00    -0.190 NA
ATOM      6  N   UNL     1      -2.427  -2.748   0.322  0.00  0.00    -0.056 NA
ATOM     20  C   UNL     1      -3.227  -0.900  -0.577  0.00  0.00    +0.245 A 
ATOM     24  C   UNL     1      -1.483  -1.870  -0.031  0.00  0.00    +0.202 A 
ENDROOT
BRANCH  24  26
ATOM      4  N   UNL     1       3.130  -0.499  -0.409  0.00  0.00    -0.315 N 
ATOM      7  N   UNL     1       2.643  -2.612   0.542  0.00  0.00    -0.240 NA
ATOM     14  C   UNL     1       5.113   1.452  -1.241  0.00  0.00    +0.078 C 
ATOM     15  C   UNL     1       5.097   0.028  -1.793  0.00  0.00    +0.031 C 
ATOM     16  C   UNL     1       3.731   1.868  -0.742  0.00  0.00    +0.031 C 
ATOM     18  C   UNL     1       4.453  -0.974  -0.835  0.00  0.00    +0.107 C 
ATOM     19  C   UNL     1       3.083   0.839   0.187  0.00  0.00    +0.107 C 
ATOM     21  C   UNL     1       2.196  -1.464  -0.014  0.00  0.00    +0.122 A 
ATOM     25  C   UNL     1       0.857  -1.173  -0.223  0.00  0.00    +0.055 A 
ATOM     26  C   UNL     1      -0.083  -2.123   0.163  0.00  0.00    +0.027 A 
ATOM     29  C   UNL     1       0.338  -3.316   0.738  0.00  0.00    +0.031 A 
ATOM     30  C   UNL     1       1.700  -3.511   0.904  0.00  0.00    +0.113 A 
BRANCH  14  23
ATOM      2  O   UNL     1       5.867   1.962   0.970  0.00  0.00    -0.276 OA
ATOM      8  N   UNL     1       7.424   1.279  -0.581  0.00  0.00    -0.329 N 
ATOM     23  C   UNL     1       6.150   1.589  -0.166  0.00  0.00    +0.214 C 
ATOM     33  H   UNL     1       8.206   1.335   0.064  0.00  0.00    +0.145 HD
ATOM     34  H   UNL     1       7.648   1.033  -1.539  0.00  0.00    +0.145 HD
ENDBRANCH  14  23
ENDBRANCH  24  26
BRANCH  20  10
ATOM      3  N   UNL     1      -3.962   1.438  -1.006  0.00  0.00    -0.287 NA
ATOM     10  C   UNL     1      -4.337   0.011  -1.058  0.00  0.00    +0.146 C 
ATOM     11  C   UNL     1      -4.716  -0.241  -2.529  0.00  0.00    +0.030 C 
ATOM     12  C   UNL     1      -4.583   1.113  -3.212  0.00  0.00    +0.017 C 
ATOM     13  C   UNL     1      -4.715   2.102  -2.071  0.00  0.00    +0.085 C 
BRANCH   3  17
ATOM     17  C   UNL     1      -4.201   2.047   0.296  0.00  0.00    +0.121 C 
BRANCH  17  22
ATOM      9  N   UNL     1      -0.764   1.774   1.859  0.00  0.00    -0.263 NA
ATOM     22  C   UNL     1      -3.110   1.715   1.279  0.00  0.00    -0.015 A 
ATOM     27  C   UNL     1      -3.397   1.063   2.474  0.00  0.00    +0.008 A 
ATOM     28  C   UNL     1      -1.790   2.046   1.021  0.00  0.00    +0.115 A 
ATOM     31  C   UNL     1      -2.368   0.767   3.361  0.00  0.00    +0.020 A 
ATOM     32  C   UNL     1      -1.081   1.141   3.011  0.00  0.00    +0.111 A 
ENDBRANCH  17  22
ENDBRANCH   3  17
ENDBRANCH  20  10
TORSDOF 5
