REMARK  Name = 75536274
REMARK  11 active torsions:
REMARK  status: ('A' for Active; 'I' for Inactive)
REMARK    1  A    between atoms: O_2  and  C_11
REMARK    2  A    between atoms: O_5  and  C_20
REMARK    3  A    between atoms: O_5  and  C_22
REMARK    4  A    between atoms: O_6  and  C_21
REMARK    5  A    between atoms: O_6  and  C_23
REMARK    6  A    between atoms: N_7  and  C_15
REMARK    7  A    between atoms: C_9  and  C_15
REMARK    8  A    between atoms: C_10  and  C_14
REMARK    9  A    between atoms: C_14  and  C_16
REMARK   10  A    between atoms: C_18  and  C_20
REMARK   11  A    between atoms: C_19  and  C_21
REMARK                            x       y       z     vdW  Elec       q    Type
REMARK                         _______ _______ _______ _____ _____    ______ ____
ROOT
ATOM      1  O   UNL     1       3.168   0.268   0.853  0.00  0.00    -0.369 OA
ATOM      9  C   UNL     1       3.711   1.486   0.327  0.00  0.00    +0.164 C 
ATOM     10  C   UNL     1       3.242  -0.859  -0.023  0.00  0.00    +0.125 C 
ATOM     11  C   UNL     1       5.166   1.301  -0.122  0.00  0.00    +0.145 C 
ATOM     12  C   UNL     1       4.692  -1.152  -0.404  0.00  0.00    +0.034 C 
ATOM     13  C   UNL     1       5.346   0.081  -1.021  0.00  0.00    +0.036 C 
ENDROOT
BRANCH  11   2
ATOM      2  O   UNL     1       5.985   1.116   1.035  0.00  0.00    -0.389 OA
ATOM     29  H   UNL     1       6.908   1.048   0.734  0.00  0.00    +0.210 HD
ENDBRANCH  11   2
BRANCH  10  14
ATOM     14  C   UNL     1       2.621  -2.046   0.703  0.00  0.00    +0.090 C 
BRANCH  14  16
ATOM      3  O   UNL     1      -0.883  -1.492   1.340  0.00  0.00    -0.357 OA
ATOM      8  N   UNL     1       0.462  -1.361   1.664  0.00  0.00    -0.083 NA
ATOM     16  C   UNL     1       1.117  -1.988   0.683  0.00  0.00    +0.086 A 
ATOM     17  C   UNL     1       0.246  -2.529  -0.279  0.00  0.00    +0.073 A 
ATOM     19  C   UNL     1      -0.999  -2.189   0.181  0.00  0.00    +0.163 A 
BRANCH  19  21
ATOM     21  C   UNL     1      -2.362  -2.421  -0.311  0.00  0.00    +0.236 C 
BRANCH  21   6
ATOM      6  O   UNL     1      -2.623  -3.824  -0.406  0.00  0.00    -0.375 OA
ATOM     23  C   UNL     1      -3.937  -4.070  -0.880  0.00  0.00    +0.194 C 
ENDBRANCH  21   6
ENDBRANCH  19  21
ENDBRANCH  14  16
ENDBRANCH  10  14
BRANCH   9  15
ATOM     15  C   UNL     1       2.815   2.058  -0.770  0.00  0.00    +0.138 C 
BRANCH  15   7
ATOM      4  O   UNL     1       0.445   0.808  -1.857  0.00  0.00    -0.272 OA
ATOM      7  N   UNL     1       1.469   2.209  -0.307  0.00  0.00    -0.310 N 
ATOM     18  C   UNL     1       0.381   1.566  -0.893  0.00  0.00    +0.251 C 
ATOM     30  H   UNL     1       1.303   2.848   0.466  0.00  0.00    +0.149 HD
BRANCH  18  20
ATOM     20  C   UNL     1      -0.922   1.905  -0.202  0.00  0.00    +0.324 C 
BRANCH  20   5
ATOM      5  O   UNL     1      -2.001   1.227  -0.811  0.00  0.00    -0.483 OA
BRANCH   5  22
ATOM     22  C   UNL     1      -3.253   1.438  -0.284  0.00  0.00    +0.121 A 
ATOM     24  C   UNL     1      -3.416   2.291   0.807  0.00  0.00    +0.045 A 
ATOM     25  C   UNL     1      -4.360   0.798  -0.841  0.00  0.00    +0.045 A 
ATOM     26  C   UNL     1      -4.686   2.505   1.342  0.00  0.00    +0.004 A 
ATOM     27  C   UNL     1      -5.631   1.012  -0.306  0.00  0.00    +0.004 A 
ATOM     28  C   UNL     1      -5.794   1.865   0.785  0.00  0.00    +0.000 A 
ENDBRANCH   5  22
ENDBRANCH  20   5
ENDBRANCH  18  20
ENDBRANCH  15   7
ENDBRANCH   9  15
TORSDOF 10
