REMARK  Name = 45783966
REMARK  13 active torsions:
REMARK  status: ('A' for Active; 'I' for Inactive)
REMARK    1  A    between atoms: N_3  and  C_13
REMARK    2  A    between atoms: N_7  and  C_33
REMARK    3  A    between atoms: N_7  and  C_34
REMARK    4  A    between atoms: N_7  and  C_35
REMARK    5  A    between atoms: C_8  and  C_12
REMARK    6  A    between atoms: C_9  and  C_13
REMARK    7  A    between atoms: C_11  and  C_16
REMARK    8  A    between atoms: C_12  and  C_17
REMARK    9  A    between atoms: C_12  and  C_18
REMARK   10  A    between atoms: C_15  and  C_21
REMARK   11  A    between atoms: C_16  and  C_24
REMARK   12  A    between atoms: C_25  and  C_27
REMARK   13  A    between atoms: C_26  and  C_28
REMARK                            x       y       z     vdW  Elec       q    Type
REMARK                         _______ _______ _______ _____ _____    ______ ____
ROOT
ATOM      8  C   UNL     1      -2.730  -1.577  -0.986  0.00  0.00    +0.000 C 
ATOM      9  C   UNL     1      -2.977  -1.401   0.530  0.00  0.00    +0.029 C 
ATOM     10  C   UNL     1      -1.337  -2.171  -1.239  0.00  0.00    +0.012 C 
ATOM     11  C   UNL     1      -1.107  -3.518  -0.522  0.00  0.00    +0.024 C 
ATOM     14  C   UNL     1      -2.527  -2.596   1.332  0.00  0.00    -0.023 C 
ATOM     15  C   UNL     1      -1.703  -3.557   0.877  0.00  0.00    -0.073 C 
ATOM     21  C   UNL     1      -1.387  -4.753   1.734  0.00  0.00    +0.039 C 
ENDROOT
BRANCH   8  12
ATOM     12  C   UNL     1      -3.825  -2.435  -1.636  0.00  0.00    -0.013 C 
ATOM     17  C   UNL     1      -5.203  -1.849  -1.344  0.00  0.00    +0.007 C 
ATOM     18  C   UNL     1      -3.591  -2.546  -3.139  0.00  0.00    +0.007 C 
ENDBRANCH   8  12
BRANCH   9  13
ATOM     13  C   UNL     1      -2.292  -0.143   1.073  0.00  0.00    +0.092 C 
BRANCH  13   3
ATOM      2  O   UNL     1      -2.918   6.011   0.261  0.00  0.00    -0.276 OA
ATOM      3  N   UNL     1      -2.724   1.041   0.332  0.00  0.00    -0.299 NA
ATOM      4  N   UNL     1      -3.516   3.778   0.031  0.00  0.00    -0.299 N 
ATOM     19  C   UNL     1      -1.737   2.122   0.464  0.00  0.00    +0.103 C 
ATOM     20  C   UNL     1      -4.044   1.490   0.800  0.00  0.00    +0.103 C 
ATOM     22  C   UNL     1      -2.168   3.350  -0.338  0.00  0.00    +0.123 C 
ATOM     23  C   UNL     1      -4.520   2.710   0.010  0.00  0.00    +0.123 C 
ATOM     25  C   UNL     1      -3.781   5.129   0.247  0.00  0.00    +0.213 C 
ATOM     27  C   UNL     1      -5.223   5.505   0.481  0.00  0.00    +0.109 C 
ENDBRANCH  13   3
ENDBRANCH   9  13
BRANCH  11  16
ATOM     16  C   UNL     1       0.394  -3.832  -0.539  0.00  0.00    +0.105 C 
BRANCH  16  24
ATOM      1  O   UNL     1       2.142  -2.138  -0.356  0.00  0.00    -0.420 OA
ATOM      5  N   UNL     1       1.059  -2.548   1.558  0.00  0.00    -0.112 NA
ATOM      6  N   UNL     1       2.012  -1.577   1.806  0.00  0.00    -0.107 NA
ATOM     24  C   UNL     1       1.171  -2.845   0.285  0.00  0.00    +0.218 A 
ATOM     26  C   UNL     1       2.620  -1.370   0.661  0.00  0.00    +0.248 A 
BRANCH  26  28
ATOM     28  C   UNL     1       3.688  -0.476   0.323  0.00  0.00    +0.039 A 
ATOM     29  C   UNL     1       3.902  -0.115  -1.008  0.00  0.00    +0.015 A 
ATOM     30  C   UNL     1       4.514   0.034   1.325  0.00  0.00    +0.015 A 
ATOM     31  C   UNL     1       4.941   0.755  -1.337  0.00  0.00    +0.024 A 
ATOM     32  C   UNL     1       5.554   0.904   0.996  0.00  0.00    +0.024 A 
ATOM     33  C   UNL     1       5.767   1.265  -0.335  0.00  0.00    +0.029 A 
BRANCH  33   7
ATOM      7  N   UNL     1       6.819   2.144  -0.668  0.00  0.00    -0.336 N 
ATOM     34  C   UNL     1       7.678   2.685   0.366  0.00  0.00    +0.129 C 
ATOM     35  C   UNL     1       7.049   2.523  -2.047  0.00  0.00    +0.129 C 
ENDBRANCH  33   7
ENDBRANCH  26  28
ENDBRANCH  16  24
ENDBRANCH  11  16
TORSDOF 7
