REMARK  Name = 45784201
REMARK  4 active torsions:
REMARK  status: ('A' for Active; 'I' for Inactive)
REMARK    1  A    between atoms: N_3  and  C_9
REMARK    2  A    between atoms: C_5  and  C_10
REMARK    3  A    between atoms: C_9  and  C_11
REMARK    4  A    between atoms: C_19  and  C_25
REMARK                            x       y       z     vdW  Elec       q    Type
REMARK                         _______ _______ _______ _____ _____    ______ ____
ROOT
ATOM      3  N   UNL     1      -0.993  -0.437  -0.276  0.00  0.00    -0.294 NA
ATOM      5  C   UNL     1       1.189  -0.946   0.418  0.00  0.00    +0.090 C 
ATOM      6  C   UNL     1       0.430  -0.261   1.567  0.00  0.00    +0.029 C 
ATOM      7  C   UNL     1       0.344  -0.659  -0.831  0.00  0.00    +0.097 C 
ATOM      8  C   UNL     1      -0.777   0.395   0.908  0.00  0.00    +0.085 C 
ENDROOT
BRANCH   5  10
ATOM      1  O   UNL     1       3.560  -1.508   0.385  0.00  0.00    -0.439 OA
ATOM      4  N   UNL     1       3.106   0.685   0.032  0.00  0.00    -0.213 NA
ATOM     10  C   UNL     1       2.630  -0.519   0.265  0.00  0.00    +0.201 A 
ATOM     12  C   UNL     1       4.465   0.486  -0.008  0.00  0.00    +0.110 A 
ATOM     13  C   UNL     1       4.747  -0.855   0.208  0.00  0.00    +0.155 A 
ATOM     17  C   UNL     1       5.527   1.376  -0.219  0.00  0.00    +0.035 A 
ATOM     18  C   UNL     1       6.024  -1.402   0.232  0.00  0.00    +0.049 A 
ATOM     19  C   UNL     1       6.832   0.861  -0.202  0.00  0.00    -0.048 A 
ATOM     20  C   UNL     1       7.072  -0.500   0.019  0.00  0.00    +0.007 A 
ATOM     25  C   UNL     1       7.985   1.784  -0.424  0.00  0.00    +0.044 C 
ENDBRANCH   5  10
BRANCH   3   9
ATOM      9  C   UNL     1      -1.895   0.185  -1.233  0.00  0.00    +0.158 C 
BRANCH   9  11
ATOM      2  O   UNL     1      -3.945   1.105  -0.301  0.00  0.00    -0.458 OA
ATOM     11  C   UNL     1      -3.338   0.015  -0.837  0.00  0.00    +0.120 A 
ATOM     14  C   UNL     1      -4.210  -1.047  -0.901  0.00  0.00    +0.054 A 
ATOM     15  C   UNL     1      -5.443  -0.585  -0.369  0.00  0.00    +0.020 A 
ATOM     16  C   UNL     1      -5.228   0.743  -0.015  0.00  0.00    +0.135 A 
ATOM     21  C   UNL     1      -6.715  -1.142  -0.148  0.00  0.00    +0.011 A 
ATOM     22  C   UNL     1      -6.199   1.568   0.550  0.00  0.00    +0.047 A 
ATOM     23  C   UNL     1      -7.712  -0.336   0.419  0.00  0.00    +0.001 A 
ATOM     24  C   UNL     1      -7.456   0.994   0.761  0.00  0.00    +0.004 A 
ENDBRANCH   9  11
ENDBRANCH   3   9
TORSDOF 3
