REMARK  Name = 38028556
REMARK  13 active torsions:
REMARK  status: ('A' for Active; 'I' for Inactive)
REMARK    1  A    between atoms: O_3  and  C_22
REMARK    2  A    between atoms: O_3  and  C_26
REMARK    3  A    between atoms: N_4  and  C_14
REMARK    4  A    between atoms: N_5  and  C_21
REMARK    5  A    between atoms: C_7  and  C_11
REMARK    6  A    between atoms: C_8  and  C_14
REMARK    7  A    between atoms: C_10  and  C_15
REMARK    8  A    between atoms: C_11  and  C_16
REMARK    9  A    between atoms: C_11  and  C_17
REMARK   10  A    between atoms: C_12  and  C_18
REMARK   11  A    between atoms: C_15  and  C_19
REMARK   12  A    between atoms: C_20  and  C_22
REMARK   13  A    between atoms: C_21  and  C_23
REMARK                            x       y       z     vdW  Elec       q    Type
REMARK                         _______ _______ _______ _____ _____    ______ ____
ROOT
ATOM      7  C   UNL     1       1.196   0.924  -1.201  0.00  0.00    +0.000 C 
ATOM      8  C   UNL     1       2.740   1.048  -1.241  0.00  0.00    +0.032 C 
ATOM      9  C   UNL     1       0.570   2.203  -0.624  0.00  0.00    +0.012 C 
ATOM     10  C   UNL     1       1.073   2.507   0.800  0.00  0.00    +0.023 C 
ATOM     12  C   UNL     1       2.580   2.385   0.903  0.00  0.00    -0.073 C 
ATOM     13  C   UNL     1       3.309   1.741  -0.026  0.00  0.00    -0.022 C 
ATOM     18  C   UNL     1       3.236   3.061   2.075  0.00  0.00    +0.039 C 
ENDROOT
BRANCH   7  11
ATOM     11  C   UNL     1       0.612   0.641  -2.588  0.00  0.00    -0.013 C 
ATOM     16  C   UNL     1      -0.741  -0.053  -2.464  0.00  0.00    +0.007 C 
ATOM     17  C   UNL     1       0.485   1.934  -3.386  0.00  0.00    +0.007 C 
ENDBRANCH   7  11
BRANCH   8  14
ATOM     14  C   UNL     1       3.401  -0.325  -1.403  0.00  0.00    +0.112 C 
BRANCH  14   4
ATOM      2  O   UNL     1       2.050  -2.881  -1.318  0.00  0.00    -0.273 OA
ATOM      4  N   UNL     1       3.167  -1.139  -0.252  0.00  0.00    -0.313 N 
ATOM     20  C   UNL     1       2.504  -2.365  -0.300  0.00  0.00    +0.239 C 
ATOM     29  H   UNL     1       3.552  -0.834   0.637  0.00  0.00    +0.149 HD
BRANCH  20  22
ATOM     22  C   UNL     1       2.397  -3.013   1.064  0.00  0.00    +0.255 C 
BRANCH  22   3
ATOM      3  O   UNL     1       1.733  -4.256   0.975  0.00  0.00    -0.374 OA
ATOM     26  C   UNL     1       1.619  -4.889   2.246  0.00  0.00    +0.194 C 
ENDBRANCH  22   3
ENDBRANCH  20  22
ENDBRANCH  14   4
ENDBRANCH   8  14
BRANCH  10  15
ATOM     15  C   UNL     1       0.379   1.613   1.833  0.00  0.00    +0.103 C 
BRANCH  15  19
ATOM      1  O   UNL     1      -1.731   2.708   1.378  0.00  0.00    -0.276 OA
ATOM      5  N   UNL     1      -1.720   0.504   2.115  0.00  0.00    -0.311 N 
ATOM     19  C   UNL     1      -1.128   1.701   1.739  0.00  0.00    +0.214 C 
ATOM     30  H   UNL     1      -1.135  -0.278   2.397  0.00  0.00    +0.149 HD
BRANCH   5  21
ATOM     21  C   UNL     1      -3.150   0.299   2.123  0.00  0.00    +0.141 C 
BRANCH  21  23
ATOM      6  N   UNL     1      -3.597  -1.944  -0.888  0.00  0.00    -0.263 NA
ATOM     23  C   UNL     1      -3.652  -0.221   0.807  0.00  0.00    -0.012 A 
ATOM     24  C   UNL     1      -4.594   0.486   0.069  0.00  0.00    +0.008 A 
ATOM     25  C   UNL     1      -3.189  -1.420   0.290  0.00  0.00    +0.115 A 
ATOM     27  C   UNL     1      -5.038  -0.020  -1.148  0.00  0.00    +0.020 A 
ATOM     28  C   UNL     1      -4.513  -1.228  -1.578  0.00  0.00    +0.111 A 
ENDBRANCH  21  23
ENDBRANCH   5  21
ENDBRANCH  15  19
ENDBRANCH  10  15
TORSDOF 9
