REMARK  Name = 11883119
REMARK  11 active torsions:
REMARK  status: ('A' for Active; 'I' for Inactive)
REMARK    1  A    between atoms: O_3  and  C_15
REMARK    2  A    between atoms: O_4  and  C_20
REMARK    3  A    between atoms: N_8  and  C_26
REMARK    4  A    between atoms: N_8  and  C_27
REMARK    5  A    between atoms: C_10  and  C_18
REMARK    6  A    between atoms: C_12  and  C_20
REMARK    7  A    between atoms: C_12  and  C_21
REMARK    8  A    between atoms: C_13  and  C_23
REMARK    9  A    between atoms: C_23  and  C_24
REMARK   10  A    between atoms: C_26  and  C_29
REMARK   11  A    between atoms: C_28  and  C_30
REMARK                            x       y       z     vdW  Elec       q    Type
REMARK                         _______ _______ _______ _____ _____    ______ ____
ROOT
ATOM      1  S   UNL     1       0.183   2.463   0.588  0.00  0.00    -0.057 S 
ATOM      6  O   UNL     1       3.429  -0.664  -0.578  0.00  0.00    -0.270 OA
ATOM      7  N   UNL     1       0.576   0.059  -0.284  0.00  0.00    -0.229 NA
ATOM      9  N   UNL     1       2.537   1.384   0.174  0.00  0.00    -0.261 N 
ATOM     10  C   UNL     1      -3.228  -0.518  -0.022  0.00  0.00    -0.019 C 
ATOM     11  C   UNL     1      -3.560   1.009  -0.326  0.00  0.00    +0.011 C 
ATOM     12  C   UNL     1      -5.073   1.445  -0.234  0.00  0.00    +0.021 C 
ATOM     13  C   UNL     1      -1.766  -0.827  -0.590  0.00  0.00    +0.054 C 
ATOM     14  C   UNL     1      -4.242  -1.424  -0.767  0.00  0.00    +0.010 C 
ATOM     15  C   UNL     1      -5.951   0.408  -0.990  0.00  0.00    +0.123 C 
ATOM     16  C   UNL     1      -2.586   1.963   0.425  0.00  0.00    +0.049 C 
ATOM     17  C   UNL     1      -5.696  -1.029  -0.550  0.00  0.00    +0.032 C 
ATOM     18  C   UNL     1      -3.275  -0.855   1.488  0.00  0.00    +0.012 C 
ATOM     19  C   UNL     1      -0.790   0.249  -0.189  0.00  0.00    +0.058 A 
ATOM     21  C   UNL     1      -5.251   2.813  -0.951  0.00  0.00    +0.016 C 
ATOM     22  C   UNL     1      -1.179   1.500   0.246  0.00  0.00    +0.015 A 
ATOM     25  C   UNL     1       1.188   1.156   0.107  0.00  0.00    +0.165 A 
ATOM     28  C   UNL     1       3.559   0.483  -0.164  0.00  0.00    +0.250 C 
ATOM     39  H   UNL     1       2.771   2.329   0.462  0.00  0.00    +0.157 HD
ENDROOT
BRANCH  28  30
ATOM      2  F   UNL     1       8.224   0.469  -1.438  0.00  0.00    -0.205 F 
ATOM     30  C   UNL     1       4.943   1.008  -0.023  0.00  0.00    +0.040 A 
ATOM     31  C   UNL     1       5.940   0.476  -0.814  0.00  0.00    +0.051 A 
ATOM     32  C   UNL     1       5.184   2.010   0.893  0.00  0.00    +0.013 A 
ATOM     34  C   UNL     1       7.238   0.970  -0.682  0.00  0.00    +0.124 A 
ATOM     35  C   UNL     1       6.482   2.503   1.024  0.00  0.00    +0.004 A 
ATOM     36  C   UNL     1       7.509   1.983   0.237  0.00  0.00    +0.038 A 
ENDBRANCH  28  30
BRANCH  15   3
ATOM      3  O   UNL     1      -7.337   0.702  -0.816  0.00  0.00    -0.391 OA
ATOM     37  H   UNL     1      -7.556   1.462  -1.380  0.00  0.00    +0.210 HD
ENDBRANCH  15   3
BRANCH  12  20
ATOM     20  C   UNL     1      -5.591   1.661   1.206  0.00  0.00    +0.165 C 
BRANCH  20   4
ATOM      4  O   UNL     1      -6.942   2.054   1.123  0.00  0.00    -0.394 OA
ATOM     38  H   UNL     1      -6.970   3.020   1.027  0.00  0.00    +0.209 HD
ENDBRANCH  20   4
ENDBRANCH  12  20
BRANCH  13  23
ATOM     23  C   UNL     1      -1.232  -2.225  -0.249  0.00  0.00    +0.106 C 
BRANCH  23  24
ATOM      5  O   UNL     1       0.353  -2.012  -2.035  0.00  0.00    -0.276 OA
ATOM      8  N   UNL     1       0.946  -3.388  -0.264  0.00  0.00    -0.293 N 
ATOM     24  C   UNL     1       0.084  -2.520  -0.943  0.00  0.00    +0.217 C 
ATOM     27  C   UNL     1       2.248  -3.771  -0.796  0.00  0.00    +0.133 C 
BRANCH   8  26
ATOM     26  C   UNL     1       0.605  -3.978   1.029  0.00  0.00    +0.196 C 
BRANCH  26  29
ATOM     29  C   UNL     1       1.054  -3.126   2.130  0.00  0.00    -0.086 C 
ATOM     33  C   UNL     1       1.421  -2.431   3.037  0.00  0.00    +0.005 C 
ENDBRANCH  26  29
ENDBRANCH   8  26
ENDBRANCH  23  24
ENDBRANCH  13  23
TORSDOF 8
