REMARK  Name = 51136834
REMARK  5 active torsions:
REMARK  status: ('A' for Active; 'I' for Inactive)
REMARK    1  A    between atoms: N_3  and  C_12
REMARK    2  A    between atoms: C_9  and  C_12
REMARK    3  A    between atoms: C_13  and  C_17
REMARK    4  A    between atoms: C_18  and  C_23
REMARK    5  A    between atoms: C_26  and  C_29
REMARK                            x       y       z     vdW  Elec       q    Type
REMARK                         _______ _______ _______ _____ _____    ______ ____
ROOT
ATOM      2  O   UNL     1       5.982   2.847  -1.627  0.00  0.00    -0.276 OA
ATOM      5  N   UNL     1       2.982  -0.887  -0.004  0.00  0.00    -0.312 N 
ATOM      7  N   UNL     1       4.988   1.168  -0.366  0.00  0.00    -0.299 N 
ATOM      8  N   UNL     1       2.367  -3.107   0.517  0.00  0.00    -0.240 NA
ATOM     19  C   UNL     1       2.790   0.199  -0.969  0.00  0.00    +0.125 C 
ATOM     20  C   UNL     1       4.253  -0.953   0.721  0.00  0.00    +0.125 C 
ATOM     21  C   UNL     1       4.136   0.723  -1.466  0.00  0.00    +0.126 C 
ATOM     22  C   UNL     1       4.848   0.444   0.900  0.00  0.00    +0.126 C 
ATOM     23  C   UNL     1      -0.320  -2.400   0.210  0.00  0.00    +0.027 A 
ATOM     24  C   UNL     1       1.994  -1.850   0.187  0.00  0.00    +0.122 A 
ATOM     25  C   UNL     1       0.677  -1.450   0.023  0.00  0.00    +0.055 A 
ATOM     26  C   UNL     1       5.863   2.237  -0.562  0.00  0.00    +0.213 C 
ATOM     27  C   UNL     1       0.024  -3.704   0.550  0.00  0.00    +0.031 A 
ATOM     28  C   UNL     1       1.370  -4.003   0.691  0.00  0.00    +0.113 A 
ATOM     29  C   UNL     1       6.701   2.639   0.626  0.00  0.00    +0.109 C 
ENDROOT
BRANCH  23  18
ATOM      1  O   UNL     1      -3.833  -2.131  -0.027  0.00  0.00    -0.336 OA
ATOM      4  N   UNL     1      -2.074  -0.767  -0.279  0.00  0.00    -0.190 NA
ATOM      6  N   UNL     1      -2.697  -2.911   0.222  0.00  0.00    -0.056 NA
ATOM     17  C   UNL     1      -3.378  -0.883  -0.314  0.00  0.00    +0.245 A 
ATOM     18  C   UNL     1      -1.701  -2.037   0.054  0.00  0.00    +0.202 A 
BRANCH  17  13
ATOM      3  N   UNL     1      -3.978   1.532  -0.295  0.00  0.00    -0.291 NA
ATOM     13  C   UNL     1      -4.427   0.164  -0.624  0.00  0.00    +0.146 C 
ATOM     14  C   UNL     1      -4.671   2.428  -1.220  0.00  0.00    +0.085 C 
ATOM     15  C   UNL     1      -4.787   0.220  -2.120  0.00  0.00    +0.030 C 
ATOM     16  C   UNL     1      -4.568   1.669  -2.528  0.00  0.00    +0.017 C 
BRANCH   3  12
ATOM     12  C   UNL     1      -4.211   1.894   1.097  0.00  0.00    +0.088 C 
BRANCH  12   9
ATOM      9  C   UNL     1      -3.316   3.011   1.525  0.00  0.00    +0.003 C 
ATOM     10  C   UNL     1      -3.047   3.217   2.987  0.00  0.00    +0.005 C 
ATOM     11  C   UNL     1      -1.964   2.691   2.092  0.00  0.00    +0.005 C 
ENDBRANCH  12   9
ENDBRANCH   3  12
ENDBRANCH  17  13
ENDBRANCH  23  18
TORSDOF 4
