REMARK  Name = 38030108
REMARK  11 active torsions:
REMARK  status: ('A' for Active; 'I' for Inactive)
REMARK    1  A    between atoms: O_1  and  C_14
REMARK    2  A    between atoms: O_3  and  C_24
REMARK    3  A    between atoms: N_5  and  C_23
REMARK    4  A    between atoms: C_6  and  C_10
REMARK    5  A    between atoms: C_8  and  C_13
REMARK    6  A    between atoms: C_9  and  C_14
REMARK    7  A    between atoms: C_10  and  C_15
REMARK    8  A    between atoms: C_10  and  C_16
REMARK    9  A    between atoms: C_11  and  C_18
REMARK   10  A    between atoms: C_13  and  C_17
REMARK   11  A    between atoms: C_23  and  C_24
REMARK                            x       y       z     vdW  Elec       q    Type
REMARK                         _______ _______ _______ _____ _____    ______ ____
ROOT
ATOM      6  C   UNL     1      -2.783   1.006  -0.140  0.00  0.00    +0.001 C 
ATOM      7  C   UNL     1      -2.310  -0.015  -1.186  0.00  0.00    +0.012 C 
ATOM      8  C   UNL     1      -1.851  -1.337  -0.544  0.00  0.00    +0.023 C 
ATOM      9  C   UNL     1      -3.958   0.427   0.687  0.00  0.00    +0.040 C 
ATOM     11  C   UNL     1      -2.841  -1.836   0.488  0.00  0.00    -0.073 C 
ATOM     12  C   UNL     1      -3.785  -1.037   1.017  0.00  0.00    -0.022 C 
ATOM     18  C   UNL     1      -2.752  -3.289   0.866  0.00  0.00    +0.039 C 
ENDROOT
BRANCH   6  10
ATOM     10  C   UNL     1      -3.166   2.318  -0.831  0.00  0.00    -0.013 C 
ATOM     15  C   UNL     1      -1.922   3.153  -1.114  0.00  0.00    +0.007 C 
ATOM     16  C   UNL     1      -3.933   2.036  -2.120  0.00  0.00    +0.007 C 
ENDBRANCH   6  10
BRANCH   8  13
ATOM     13  C   UNL     1      -0.450  -1.200   0.062  0.00  0.00    +0.103 C 
BRANCH  13  17
ATOM      2  O   UNL     1       0.220  -1.278  -2.210  0.00  0.00    -0.276 OA
ATOM      4  N   UNL     1       1.914  -1.050  -0.637  0.00  0.00    -0.299 N 
ATOM      5  N   UNL     1       4.508  -0.024   0.016  0.00  0.00    -0.297 NA
ATOM     17  C   UNL     1       0.584  -1.182  -1.036  0.00  0.00    +0.216 C 
ATOM     19  C   UNL     1       2.976  -1.020  -1.642  0.00  0.00    +0.123 C 
ATOM     20  C   UNL     1       2.389  -1.067   0.749  0.00  0.00    +0.123 C 
ATOM     21  C   UNL     1       3.982   0.093  -1.352  0.00  0.00    +0.103 C 
ATOM     22  C   UNL     1       3.412   0.043   0.995  0.00  0.00    +0.103 C 
BRANCH   5  23
ATOM     23  C   UNL     1       5.495   1.023   0.278  0.00  0.00    +0.112 C 
BRANCH  23  24
ATOM     24  C   UNL     1       6.410   0.623   1.424  0.00  0.00    +0.171 C 
BRANCH  24   3
ATOM      3  O   UNL     1       7.362   1.658   1.632  0.00  0.00    -0.394 OA
ATOM     26  H   UNL     1       7.939   1.374   2.361  0.00  0.00    +0.209 HD
ENDBRANCH  24   3
ENDBRANCH  23  24
ENDBRANCH   5  23
ENDBRANCH  13  17
ENDBRANCH   8  13
BRANCH   9  14
ATOM     14  C   UNL     1      -4.168   1.221   1.982  0.00  0.00    +0.163 C 
BRANCH  14   1
ATOM      1  O   UNL     1      -5.333   0.735   2.617  0.00  0.00    -0.394 OA
ATOM     25  H   UNL     1      -5.446   1.242   3.439  0.00  0.00    +0.209 HD
ENDBRANCH  14   1
ENDBRANCH   9  14
TORSDOF 8
