REMARK  Name = 7144117
REMARK  7 active torsions:
REMARK  status: ('A' for Active; 'I' for Inactive)
REMARK    1  A    between atoms: S_1  and  N_7
REMARK    2  A    between atoms: S_1  and  C_21
REMARK    3  A    between atoms: O_5  and  C_32
REMARK    4  A    between atoms: O_5  and  C_34
REMARK    5  A    between atoms: N_9  and  C_31
REMARK    6  A    between atoms: C_17  and  C_22
REMARK    7  A    between atoms: C_33  and  C_35
REMARK                            x       y       z     vdW  Elec       q    Type
REMARK                         _______ _______ _______ _____ _____    ______ ____
ROOT
ATOM      4  O   UNL     1      -4.264   3.989  -0.001  0.00  0.00    -0.268 OA
ATOM      7  N   UNL     1       0.204   1.862  -0.218  0.00  0.00    -0.176 NA
ATOM      8  N   UNL     1      -2.817   2.242   0.585  0.00  0.00    -0.311 N 
ATOM     10  C   UNL     1      -0.696   2.659   1.963  0.00  0.00    +0.025 C 
ATOM     11  C   UNL     1      -1.227   0.391   1.189  0.00  0.00    +0.053 C 
ATOM     12  C   UNL     1      -0.888   1.223   2.423  0.00  0.00    +0.017 C 
ATOM     13  C   UNL     1       0.451   2.759   0.946  0.00  0.00    +0.114 C 
ATOM     14  C   UNL     1      -0.053   0.451   0.192  0.00  0.00    +0.119 C 
ATOM     15  C   UNL     1      -2.021   3.172   1.397  0.00  0.00    +0.130 C 
ATOM     16  C   UNL     1      -2.525   0.865   0.528  0.00  0.00    +0.034 A 
ATOM     17  C   UNL     1      -3.372   0.019  -0.115  0.00  0.00    +0.002 A 
ATOM     18  C   UNL     1      -3.953   2.798  -0.031  0.00  0.00    +0.252 A 
ATOM     19  C   UNL     1      -4.551   0.557  -0.766  0.00  0.00    +0.015 A 
ATOM     20  C   UNL     1      -4.840   1.858  -0.753  0.00  0.00    +0.071 A 
ENDROOT
BRANCH  17  22
ATOM     22  C   UNL     1      -3.117  -1.437  -0.183  0.00  0.00    -0.016 A 
ATOM     25  C   UNL     1      -2.365  -1.958  -1.231  0.00  0.00    +0.012 A 
ATOM     26  C   UNL     1      -3.632  -2.274   0.801  0.00  0.00    +0.012 A 
ATOM     29  C   UNL     1      -2.126  -3.331  -1.295  0.00  0.00    +0.046 A 
ATOM     30  C   UNL     1      -3.393  -3.647   0.738  0.00  0.00    +0.046 A 
ATOM     32  C   UNL     1      -2.639  -4.175  -0.311  0.00  0.00    +0.120 A 
BRANCH  32   5
ATOM      5  O   UNL     1      -2.405  -5.514  -0.373  0.00  0.00    -0.495 OA
ATOM     34  C   UNL     1      -2.959  -6.320   0.666  0.00  0.00    +0.277 C 
ENDBRANCH  32   5
ENDBRANCH  17  22
BRANCH   7   1
ATOM      1  S   UNL     1       1.259   2.066  -1.549  0.00  0.00    +0.061 S 
ATOM      2  O   UNL     1       1.540   3.476  -1.720  0.00  0.00    -0.153 OA
ATOM      3  O   UNL     1       0.784   1.262  -2.655  0.00  0.00    -0.153 OA
BRANCH   1  21
ATOM     21  C   UNL     1       2.716   1.301  -0.909  0.00  0.00    +0.106 A 
ATOM     23  C   UNL     1       2.915  -0.055  -1.113  0.00  0.00    +0.030 A 
ATOM     24  C   UNL     1       3.636   2.069  -0.215  0.00  0.00    +0.030 A 
ATOM     27  C   UNL     1       4.066  -0.659  -0.607  0.00  0.00    +0.025 A 
ATOM     28  C   UNL     1       4.787   1.464   0.290  0.00  0.00    +0.025 A 
ATOM     31  C   UNL     1       5.002   0.100   0.094  0.00  0.00    +0.033 A 
BRANCH  31   9
ATOM      6  O   UNL     1       5.932  -2.760  -0.052  0.00  0.00    -0.276 OA
ATOM      9  N   UNL     1       6.153  -0.505   0.599  0.00  0.00    -0.286 N 
ATOM     33  C   UNL     1       6.538  -1.849   0.503  0.00  0.00    +0.214 C 
ATOM     35  C   UNL     1       7.859  -2.103   1.185  0.00  0.00    +0.109 C 
ATOM     36  H   UNL     1       6.787   0.116   1.099  0.00  0.00    +0.155 HD
ENDBRANCH  31   9
ENDBRANCH   1  21
ENDBRANCH   7   1
TORSDOF 5
