REMARK  Name = 28960844
REMARK  9 active torsions:
REMARK  status: ('A' for Active; 'I' for Inactive)
REMARK    1  A    between atoms: N_3  and  C_13
REMARK    2  A    between atoms: N_4  and  C_8
REMARK    3  A    between atoms: N_7  and  C_23
REMARK    4  A    between atoms: N_7  and  C_28
REMARK    5  A    between atoms: N_7  and  C_29
REMARK    6  A    between atoms: C_9  and  C_12
REMARK    7  A    between atoms: C_14  and  C_16
REMARK    8  A    between atoms: C_15  and  C_17
REMARK    9  A    between atoms: C_17  and  C_20
REMARK                            x       y       z     vdW  Elec       q    Type
REMARK                         _______ _______ _______ _____ _____    ______ ____
ROOT
ATOM      3  N   UNL     1      -2.722   2.244   1.344  0.00  0.00    -0.293 NA
ATOM      8  C   UNL     1      -1.226   3.198  -0.169  0.00  0.00    +0.089 C 
ATOM      9  C   UNL     1      -3.285   1.896   0.026  0.00  0.00    +0.147 C 
ATOM     10  C   UNL     1      -2.231   2.386  -0.987  0.00  0.00    +0.052 C 
ATOM     11  C   UNL     1      -1.952   3.475   1.140  0.00  0.00    +0.107 C 
ATOM     13  C   UNL     1      -3.737   2.403   2.378  0.00  0.00    +0.105 C 
ENDROOT
BRANCH   9  12
ATOM      1  O   UNL     1      -4.881   0.104  -0.438  0.00  0.00    -0.336 OA
ATOM      5  N   UNL     1      -2.804  -0.611  -0.002  0.00  0.00    -0.194 NA
ATOM      6  N   UNL     1      -4.924  -1.294  -0.523  0.00  0.00    -0.061 NA
ATOM     12  C   UNL     1      -3.597   0.422  -0.128  0.00  0.00    +0.245 A 
ATOM     15  C   UNL     1      -3.662  -1.641  -0.254  0.00  0.00    +0.176 A 
BRANCH  15  17
ATOM     17  C   UNL     1      -3.231  -3.043  -0.229  0.00  0.00    +0.114 C 
BRANCH  17  20
ATOM     20  C   UNL     1      -1.719  -3.246  -0.191  0.00  0.00    -0.040 A 
ATOM     24  C   UNL     1      -0.971  -3.144  -1.364  0.00  0.00    +0.004 A 
ATOM     25  C   UNL     1      -1.085  -3.534   1.017  0.00  0.00    +0.004 A 
ATOM     26  C   UNL     1       0.411  -3.329  -1.329  0.00  0.00    +0.000 A 
ATOM     27  C   UNL     1       0.297  -3.720   1.053  0.00  0.00    +0.000 A 
ATOM     30  C   UNL     1       1.045  -3.617  -0.120  0.00  0.00    +0.000 A 
ENDBRANCH  17  20
ENDBRANCH  15  17
ENDBRANCH   9  12
BRANCH   8   4
ATOM      2  O   UNL     1       1.135   3.265  -1.801  0.00  0.00    -0.270 OA
ATOM      4  N   UNL     1      -0.004   2.462   0.053  0.00  0.00    -0.307 N 
ATOM     14  C   UNL     1       1.088   2.561  -0.795  0.00  0.00    +0.244 C 
ATOM     31  H   UNL     1       0.030   1.867   0.873  0.00  0.00    +0.149 HD
BRANCH  14  16
ATOM     16  C   UNL     1       2.260   1.720  -0.443  0.00  0.00    +0.037 A 
ATOM     18  C   UNL     1       3.542   2.113  -0.829  0.00  0.00    +0.015 A 
ATOM     19  C   UNL     1       2.080   0.536   0.272  0.00  0.00    +0.015 A 
ATOM     21  C   UNL     1       4.643   1.323  -0.499  0.00  0.00    +0.024 A 
ATOM     22  C   UNL     1       3.181  -0.255   0.601  0.00  0.00    +0.024 A 
ATOM     23  C   UNL     1       4.463   0.139   0.215  0.00  0.00    +0.029 A 
BRANCH  23   7
ATOM      7  N   UNL     1       5.575  -0.661   0.549  0.00  0.00    -0.336 N 
ATOM     28  C   UNL     1       6.911  -0.261   0.154  0.00  0.00    +0.129 C 
ATOM     29  C   UNL     1       5.398  -1.889   1.298  0.00  0.00    +0.129 C 
ENDBRANCH  23   7
ENDBRANCH  14  16
ENDBRANCH   8   4
TORSDOF 6
