REMARK  Name = 28961045
REMARK  6 active torsions:
REMARK  status: ('A' for Active; 'I' for Inactive)
REMARK    1  A    between atoms: S_1  and  N_8
REMARK    2  A    between atoms: S_1  and  C_17
REMARK    3  A    between atoms: N_7  and  C_16
REMARK    4  A    between atoms: N_8  and  C_11
REMARK    5  A    between atoms: C_12  and  C_15
REMARK    6  A    between atoms: C_18  and  C_19
REMARK                            x       y       z     vdW  Elec       q    Type
REMARK                         _______ _______ _______ _____ _____    ______ ____
ROOT
ATOM      7  N   UNL     1      -1.330  -1.865   0.940  0.00  0.00    -0.293 NA
ATOM     11  C   UNL     1      -2.671  -0.804  -0.647  0.00  0.00    +0.092 C 
ATOM     12  C   UNL     1      -0.659  -2.151  -0.343  0.00  0.00    +0.147 C 
ATOM     13  C   UNL     1      -1.424  -1.299  -1.374  0.00  0.00    +0.050 C 
ATOM     14  C   UNL     1      -2.743  -1.652   0.613  0.00  0.00    +0.105 C 
ATOM     16  C   UNL     1      -1.155  -2.923   1.928  0.00  0.00    +0.105 C 
ENDROOT
BRANCH  12  15
ATOM      2  O   UNL     1       1.653  -2.886  -0.637  0.00  0.00    -0.336 OA
ATOM      9  N   UNL     1       1.445  -0.732  -0.060  0.00  0.00    -0.190 NA
ATOM     10  N   UNL     1       2.955  -2.376  -0.558  0.00  0.00    -0.056 NA
ATOM     15  C   UNL     1       0.825  -1.853  -0.329  0.00  0.00    +0.245 A 
ATOM     18  C   UNL     1       2.749  -1.102  -0.213  0.00  0.00    +0.202 A 
BRANCH  18  19
ATOM      5  O   UNL     1       7.481   0.109  -0.102  0.00  0.00    -0.453 OA
ATOM      6  O   UNL     1       6.989   2.386   0.516  0.00  0.00    -0.453 OA
ATOM     19  C   UNL     1       3.824  -0.172  -0.016  0.00  0.00    +0.026 A 
ATOM     22  C   UNL     1       5.145  -0.594  -0.185  0.00  0.00    +0.061 A 
ATOM     23  C   UNL     1       3.537   1.156   0.345  0.00  0.00    +0.015 A 
ATOM     26  C   UNL     1       6.144   0.336   0.015  0.00  0.00    +0.167 A 
ATOM     28  C   UNL     1       5.864   1.636   0.368  0.00  0.00    +0.166 A 
ATOM     29  C   UNL     1       4.568   2.078   0.541  0.00  0.00    +0.050 A 
ATOM     30  C   UNL     1       8.010   1.413   0.217  0.00  0.00    +0.466 C 
ENDBRANCH  18  19
ENDBRANCH  12  15
BRANCH  11   8
ATOM      8  N   UNL     1      -2.509   0.628  -0.286  0.00  0.00    -0.186 NA
ATOM     31  H   UNL     1      -1.869   0.852   0.485  0.00  0.00    +0.148 HD
BRANCH   8   1
ATOM      1  S   UNL     1      -3.636   1.769  -0.839  0.00  0.00    +0.059 S 
ATOM      3  O   UNL     1      -3.755   1.674  -2.281  0.00  0.00    -0.153 OA
ATOM      4  O   UNL     1      -3.351   3.046  -0.212  0.00  0.00    -0.153 OA
BRANCH   1  17
ATOM     17  C   UNL     1      -5.140   1.170  -0.128  0.00  0.00    +0.105 A 
ATOM     20  C   UNL     1      -5.536   1.605   1.137  0.00  0.00    +0.028 A 
ATOM     21  C   UNL     1      -5.931   0.261  -0.831  0.00  0.00    +0.028 A 
ATOM     24  C   UNL     1      -6.722   1.132   1.698  0.00  0.00    +0.002 A 
ATOM     25  C   UNL     1      -7.117  -0.212  -0.271  0.00  0.00    +0.002 A 
ATOM     27  C   UNL     1      -7.513   0.224   0.994  0.00  0.00    +0.000 A 
ENDBRANCH   1  17
ENDBRANCH   8   1
ENDBRANCH  11   8
TORSDOF 5
