REMARK  Name = 45783722
REMARK  6 active torsions:
REMARK  status: ('A' for Active; 'I' for Inactive)
REMARK    1  A    between atoms: O_2  and  C_25
REMARK    2  A    between atoms: O_2  and  C_27
REMARK    3  A    between atoms: N_8  and  C_23
REMARK    4  A    between atoms: C_10  and  C_14
REMARK    5  A    between atoms: C_16  and  C_17
REMARK    6  A    between atoms: C_23  and  C_25
REMARK                            x       y       z     vdW  Elec       q    Type
REMARK                         _______ _______ _______ _____ _____    ______ ____
ROOT
ATOM      1  O   UNL     1       0.098  -2.284   1.486  0.00  0.00    -0.336 OA
ATOM      4  N   UNL     1       0.726  -1.218  -0.381  0.00  0.00    -0.190 NA
ATOM      7  N   UNL     1       1.409  -1.846   1.710  0.00  0.00    -0.056 NA
ATOM     14  C   UNL     1      -0.227  -1.873   0.232  0.00  0.00    +0.248 A 
ATOM     16  C   UNL     1       1.710  -1.227   0.564  0.00  0.00    +0.205 A 
ENDROOT
BRANCH  14  10
ATOM      3  N   UNL     1      -2.417  -1.063  -0.675  0.00  0.00    -0.288 N 
ATOM      5  N   UNL     1      -2.775  -0.326   1.497  0.00  0.00    -0.223 NA
ATOM      6  N   UNL     1      -3.893   0.704  -0.373  0.00  0.00    -0.223 NA
ATOM     10  C   UNL     1      -1.621  -2.228  -0.257  0.00  0.00    +0.165 C 
ATOM     11  C   UNL     1      -1.578  -3.103  -1.522  0.00  0.00    +0.034 C 
ATOM     12  C   UNL     1      -1.666  -2.103  -2.663  0.00  0.00    +0.021 C 
ATOM     13  C   UNL     1      -2.620  -1.040  -2.126  0.00  0.00    +0.109 C 
ATOM     15  C   UNL     1      -3.056  -0.191   0.187  0.00  0.00    +0.218 A 
ATOM     18  C   UNL     1      -4.499   1.539   0.497  0.00  0.00    +0.116 A 
ATOM     19  C   UNL     1      -3.415   0.540   2.310  0.00  0.00    +0.116 A 
ATOM     21  C   UNL     1      -4.296   1.503   1.861  0.00  0.00    +0.039 A 
ENDBRANCH  14  10
BRANCH  16  17
ATOM      8  N   UNL     1       1.953   1.546  -0.004  0.00  0.00    -0.326 N 
ATOM      9  N   UNL     1       4.306   1.352  -0.169  0.00  0.00    -0.240 NA
ATOM     17  C   UNL     1       2.983  -0.608   0.333  0.00  0.00    +0.062 A 
ATOM     20  C   UNL     1       3.120   0.742   0.054  0.00  0.00    +0.130 A 
ATOM     22  C   UNL     1       4.137  -1.382   0.386  0.00  0.00    +0.016 A 
ATOM     24  C   UNL     1       5.375  -0.790   0.162  0.00  0.00    +0.020 A 
ATOM     26  C   UNL     1       5.405   0.568  -0.109  0.00  0.00    +0.113 A 
ATOM     28  H   UNL     1       1.083   1.060  -0.198  0.00  0.00    +0.148 HD
BRANCH   8  23
ATOM     23  C   UNL     1       1.995   2.943  -0.283  0.00  0.00    +0.131 C 
BRANCH  23  25
ATOM     25  C   UNL     1       0.591   3.524  -0.241  0.00  0.00    +0.178 C 
BRANCH  25   2
ATOM      2  O   UNL     1      -0.209   2.901  -1.238  0.00  0.00    -0.381 OA
ATOM     27  C   UNL     1      -1.533   3.418  -1.240  0.00  0.00    +0.194 C 
ENDBRANCH  25   2
ENDBRANCH  23  25
ENDBRANCH   8  23
ENDBRANCH  16  17
TORSDOF 5
