REMARK  Name = 45784062
REMARK  3 active torsions:
REMARK  status: ('A' for Active; 'I' for Inactive)
REMARK    1  A    between atoms: N_8  and  C_21
REMARK    2  A    between atoms: C_9  and  C_13
REMARK    3  A    between atoms: C_19  and  C_22
REMARK                            x       y       z     vdW  Elec       q    Type
REMARK                         _______ _______ _______ _____ _____    ______ ____
ROOT
ATOM      4  O   UNL     1       3.494  -0.786   1.747  0.00  0.00    -0.252 OA
ATOM      5  N   UNL     1       2.121  -1.528   0.063  0.00  0.00    -0.285 N 
ATOM      8  N   UNL     1       3.974  -0.198  -0.459  0.00  0.00    -0.269 N 
ATOM      9  C   UNL     1      -0.026  -2.550   0.120  0.00  0.00    +0.074 C 
ATOM     10  C   UNL     1       0.573  -2.699  -1.286  0.00  0.00    +0.032 C 
ATOM     11  C   UNL     1       1.217  -2.238   0.962  0.00  0.00    +0.120 C 
ATOM     12  C   UNL     1       1.689  -1.662  -1.326  0.00  0.00    +0.110 C 
ATOM     14  C   UNL     1       3.234  -0.826   0.543  0.00  0.00    +0.306 C 
ATOM     29  H   UNL     1       3.643  -0.281  -1.415  0.00  0.00    +0.156 HD
ENDROOT
BRANCH   9  13
ATOM      6  N   UNL     1      -2.441  -1.872  -0.096  0.00  0.00    -0.342 N 
ATOM      7  N   UNL     1      -1.019  -0.233   0.385  0.00  0.00    -0.232 NA
ATOM     13  C   UNL     1      -1.142  -1.519   0.144  0.00  0.00    +0.113 A 
ATOM     15  C   UNL     1      -3.207  -0.739  -0.005  0.00  0.00    +0.067 A 
ATOM     16  C   UNL     1      -2.296   0.271   0.296  0.00  0.00    +0.089 A 
ATOM     17  C   UNL     1      -4.576  -0.516  -0.154  0.00  0.00    +0.040 A 
ATOM     18  C   UNL     1      -2.761   1.586   0.460  0.00  0.00    +0.030 A 
ATOM     19  C   UNL     1      -5.022   0.799   0.012  0.00  0.00    +0.057 A 
ATOM     20  C   UNL     1      -4.132   1.833   0.314  0.00  0.00    +0.014 A 
ATOM     28  H   UNL     1      -2.779  -2.802  -0.305  0.00  0.00    +0.167 HD
BRANCH  19  22
ATOM      1  F   UNL     1      -6.975   0.793  -1.368  0.00  0.00    -0.166 F 
ATOM      2  F   UNL     1      -6.758   2.423   0.056  0.00  0.00    -0.166 F 
ATOM      3  F   UNL     1      -7.266   0.426   0.750  0.00  0.00    -0.166 F 
ATOM     22  C   UNL     1      -6.477   1.102  -0.135  0.00  0.00    +0.417 C 
ENDBRANCH  19  22
ENDBRANCH   9  13
BRANCH   8  21
ATOM     21  C   UNL     1       5.146   0.585  -0.314  0.00  0.00    +0.035 A 
ATOM     23  C   UNL     1       5.743   1.161  -1.435  0.00  0.00    +0.023 A 
ATOM     24  C   UNL     1       5.701   0.780   0.951  0.00  0.00    +0.023 A 
ATOM     25  C   UNL     1       6.897   1.931  -1.291  0.00  0.00    +0.002 A 
ATOM     26  C   UNL     1       6.855   1.550   1.094  0.00  0.00    +0.002 A 
ATOM     27  C   UNL     1       7.453   2.126  -0.027  0.00  0.00    +0.000 A 
ENDBRANCH   8  21
TORSDOF 3
