REMARK  Name = 38028384
REMARK  13 active torsions:
REMARK  status: ('A' for Active; 'I' for Inactive)
REMARK    1  A    between atoms: O_3  and  C_22
REMARK    2  A    between atoms: O_3  and  C_25
REMARK    3  A    between atoms: N_4  and  C_14
REMARK    4  A    between atoms: N_5  and  C_21
REMARK    5  A    between atoms: C_7  and  C_11
REMARK    6  A    between atoms: C_8  and  C_14
REMARK    7  A    between atoms: C_10  and  C_15
REMARK    8  A    between atoms: C_11  and  C_16
REMARK    9  A    between atoms: C_11  and  C_17
REMARK   10  A    between atoms: C_12  and  C_18
REMARK   11  A    between atoms: C_15  and  C_19
REMARK   12  A    between atoms: C_20  and  C_22
REMARK   13  A    between atoms: C_21  and  C_23
REMARK                            x       y       z     vdW  Elec       q    Type
REMARK                         _______ _______ _______ _____ _____    ______ ____
ROOT
ATOM      7  C   UNL     1       1.222   0.922  -1.198  0.00  0.00    +0.000 C 
ATOM      8  C   UNL     1       2.767   1.028  -1.219  0.00  0.00    +0.032 C 
ATOM      9  C   UNL     1       0.604   2.206  -0.623  0.00  0.00    +0.012 C 
ATOM     10  C   UNL     1       1.093   2.499   0.808  0.00  0.00    +0.023 C 
ATOM     12  C   UNL     1       2.597   2.358   0.928  0.00  0.00    -0.073 C 
ATOM     13  C   UNL     1       3.330   1.710   0.006  0.00  0.00    -0.022 C 
ATOM     18  C   UNL     1       3.246   3.021   2.111  0.00  0.00    +0.039 C 
ENDROOT
BRANCH   7  11
ATOM     11  C   UNL     1       0.651   0.651  -2.593  0.00  0.00    -0.013 C 
ATOM     16  C   UNL     1      -0.712  -0.027  -2.488  0.00  0.00    +0.007 C 
ATOM     17  C   UNL     1       0.550   1.949  -3.388  0.00  0.00    +0.007 C 
ENDBRANCH   7  11
BRANCH   8  14
ATOM     14  C   UNL     1       3.414  -0.353  -1.378  0.00  0.00    +0.112 C 
BRANCH  14   4
ATOM      2  O   UNL     1       2.031  -2.892  -1.320  0.00  0.00    -0.273 OA
ATOM      4  N   UNL     1       3.156  -1.169  -0.233  0.00  0.00    -0.313 N 
ATOM     20  C   UNL     1       2.478  -2.386  -0.294  0.00  0.00    +0.239 C 
ATOM     29  H   UNL     1       3.534  -0.872   0.662  0.00  0.00    +0.149 HD
BRANCH  20  22
ATOM     22  C   UNL     1       2.348  -3.038   1.066  0.00  0.00    +0.255 C 
BRANCH  22   3
ATOM      3  O   UNL     1       1.670  -4.272   0.964  0.00  0.00    -0.374 OA
ATOM     25  C   UNL     1       1.532  -4.909   2.231  0.00  0.00    +0.194 C 
ENDBRANCH  22   3
ENDBRANCH  20  22
ENDBRANCH  14   4
ENDBRANCH   8  14
BRANCH  10  15
ATOM     15  C   UNL     1       0.375   1.610   1.829  0.00  0.00    +0.103 C 
BRANCH  15  19
ATOM      1  O   UNL     1      -1.715   2.731   1.352  0.00  0.00    -0.276 OA
ATOM      5  N   UNL     1      -1.740   0.524   2.081  0.00  0.00    -0.310 N 
ATOM     19  C   UNL     1      -1.129   1.715   1.717  0.00  0.00    +0.214 C 
ATOM     30  H   UNL     1      -1.168  -0.265   2.368  0.00  0.00    +0.149 HD
BRANCH   5  21
ATOM     21  C   UNL     1      -3.172   0.337   2.071  0.00  0.00    +0.159 C 
BRANCH  21  23
ATOM      6  N   UNL     1      -4.553   0.532   0.082  0.00  0.00    -0.258 NA
ATOM     23  C   UNL     1      -3.658  -0.218   0.763  0.00  0.00    +0.058 A 
ATOM     24  C   UNL     1      -3.179  -1.442   0.326  0.00  0.00    +0.025 A 
ATOM     26  C   UNL     1      -3.649  -1.929  -0.889  0.00  0.00    +0.003 A 
ATOM     27  C   UNL     1      -4.987   0.027  -1.095  0.00  0.00    +0.111 A 
ATOM     28  C   UNL     1      -4.570  -1.186  -1.619  0.00  0.00    +0.020 A 
ENDBRANCH  21  23
ENDBRANCH   5  21
ENDBRANCH  15  19
ENDBRANCH  10  15
TORSDOF 9
