REMARK  Name = 40777229
REMARK  6 active torsions:
REMARK  status: ('A' for Active; 'I' for Inactive)
REMARK    1  A    between atoms: N_5  and  C_16
REMARK    2  A    between atoms: N_8  and  C_26
REMARK    3  A    between atoms: C_10  and  C_17
REMARK    4  A    between atoms: C_11  and  C_16
REMARK    5  A    between atoms: C_19  and  C_22
REMARK    6  A    between atoms: C_20  and  C_23
REMARK                            x       y       z     vdW  Elec       q    Type
REMARK                         _______ _______ _______ _____ _____    ______ ____
ROOT
ATOM      4  N   UNL     1       0.051   2.511   1.349  0.00  0.00    -0.297 NA
ATOM      9  C   UNL     1      -0.602   2.552  -1.172  0.00  0.00    +0.002 C 
ATOM     10  C   UNL     1      -1.826   2.159  -0.299  0.00  0.00    +0.055 C 
ATOM     11  C   UNL     1       1.035   1.727   0.556  0.00  0.00    +0.074 C 
ATOM     12  C   UNL     1       0.554   1.566  -0.902  0.00  0.00    +0.024 C 
ATOM     13  C   UNL     1      -0.136   3.941  -0.685  0.00  0.00    +0.019 C 
ATOM     14  C   UNL     1      -1.313   1.960   1.156  0.00  0.00    +0.094 C 
ATOM     15  C   UNL     1       0.064   3.903   0.840  0.00  0.00    +0.085 C 
ENDROOT
BRANCH  10  17
ATOM      6  N   UNL     1      -2.336   0.393  -1.912  0.00  0.00    -0.237 NA
ATOM      7  N   UNL     1      -4.233  -1.071  -1.656  0.00  0.00    -0.232 NA
ATOM     17  C   UNL     1      -2.701   1.005  -0.766  0.00  0.00    +0.050 A 
ATOM     18  C   UNL     1      -3.803   0.641  -0.020  0.00  0.00    +0.052 A 
ATOM     19  C   UNL     1      -4.539  -0.415  -0.518  0.00  0.00    +0.076 A 
ATOM     20  C   UNL     1      -3.135  -0.622  -2.293  0.00  0.00    +0.127 A 
ATOM     23  C   UNL     1      -2.764  -1.322  -3.557  0.00  0.00    +0.088 C 
BRANCH  19  22
ATOM      1 BR   UNL     1      -4.016  -2.716   1.640  0.00  0.00    -0.050 Br
ATOM     22  C   UNL     1      -5.716  -0.891   0.167  0.00  0.00    +0.014 A 
ATOM     24  C   UNL     1      -5.654  -1.892   1.137  0.00  0.00    +0.027 A 
ATOM     25  C   UNL     1      -6.944  -0.319  -0.166  0.00  0.00    +0.011 A 
ATOM     27  C   UNL     1      -6.818  -2.321   1.773  0.00  0.00    +0.016 A 
ATOM     28  C   UNL     1      -8.109  -0.748   0.470  0.00  0.00    +0.001 A 
ATOM     29  C   UNL     1      -8.046  -1.749   1.440  0.00  0.00    +0.001 A 
ENDBRANCH  19  22
ENDBRANCH  10  17
BRANCH  11  16
ATOM     16  C   UNL     1       1.360   0.378   1.201  0.00  0.00    +0.124 C 
BRANCH  16   5
ATOM      3  O   UNL     1       4.171   0.606   1.702  0.00  0.00    -0.253 OA
ATOM      5  N   UNL     1       2.428  -0.295   0.480  0.00  0.00    -0.298 N 
ATOM      8  N   UNL     1       4.567  -0.891  -0.063  0.00  0.00    -0.269 N 
ATOM     21  C   UNL     1       3.775  -0.123   0.795  0.00  0.00    +0.304 C 
ATOM     35  H   UNL     1       2.177  -0.909  -0.288  0.00  0.00    +0.150 HD
ATOM     36  H   UNL     1       4.079  -1.442  -0.765  0.00  0.00    +0.156 HD
BRANCH   8  26
ATOM      2 CL   UNL     1      10.475  -1.339  -0.129  0.00  0.00    -0.084 Cl
ATOM     26  C   UNL     1       5.978  -0.999  -0.079  0.00  0.00    +0.035 A 
ATOM     30  C   UNL     1       6.604  -1.820  -1.016  0.00  0.00    +0.025 A 
ATOM     31  C   UNL     1       6.742  -0.283   0.843  0.00  0.00    +0.025 A 
ATOM     32  C   UNL     1       7.995  -1.926  -1.032  0.00  0.00    +0.022 A 
ATOM     33  C   UNL     1       8.133  -0.389   0.828  0.00  0.00    +0.022 A 
ATOM     34  C   UNL     1       8.759  -1.210  -0.110  0.00  0.00    +0.041 A 
ENDBRANCH   8  26
ENDBRANCH  16   5
ENDBRANCH  11  16
TORSDOF 5
