REMARK  Name = 45784175
REMARK  3 active torsions:
REMARK  status: ('A' for Active; 'I' for Inactive)
REMARK    1  A    between atoms: N_4  and  C_10
REMARK    2  A    between atoms: C_6  and  C_11
REMARK    3  A    between atoms: C_10  and  C_12
REMARK                            x       y       z     vdW  Elec       q    Type
REMARK                         _______ _______ _______ _____ _____    ______ ____
ROOT
ATOM      4  N   UNL     1      -1.665  -0.252  -0.173  0.00  0.00    -0.297 NA
ATOM      6  C   UNL     1       0.511  -0.887   0.427  0.00  0.00    +0.090 C 
ATOM      7  C   UNL     1      -0.191  -0.249   1.638  0.00  0.00    +0.029 C 
ATOM      8  C   UNL     1      -0.352  -0.488  -0.777  0.00  0.00    +0.097 C 
ATOM      9  C   UNL     1      -1.386   0.493   1.055  0.00  0.00    +0.085 C 
ENDROOT
BRANCH   6  11
ATOM      1 CL   UNL     1       7.570   1.765  -0.465  0.00  0.00    -0.083 Cl
ATOM      3  O   UNL     1       2.856  -1.536   0.291  0.00  0.00    -0.439 OA
ATOM      5  N   UNL     1       2.482   0.691   0.092  0.00  0.00    -0.213 NA
ATOM     11  C   UNL     1       1.964  -0.506   0.262  0.00  0.00    +0.201 A 
ATOM     13  C   UNL     1       3.830   0.442   0.000  0.00  0.00    +0.111 A 
ATOM     14  C   UNL     1       4.063  -0.920   0.122  0.00  0.00    +0.155 A 
ATOM     17  C   UNL     1       4.922   1.303  -0.185  0.00  0.00    +0.051 A 
ATOM     18  C   UNL     1       5.317  -1.516   0.074  0.00  0.00    +0.050 A 
ATOM     21  C   UNL     1       6.204   0.738  -0.238  0.00  0.00    +0.043 A 
ATOM     22  C   UNL     1       6.396  -0.643  -0.111  0.00  0.00    +0.024 A 
ENDBRANCH   6  11
BRANCH   4  10
ATOM     10  C   UNL     1      -2.566   0.465  -1.064  0.00  0.00    +0.119 C 
BRANCH  10  12
ATOM      2  F   UNL     1      -7.946  -0.061   0.526  0.00  0.00    -0.205 F 
ATOM     12  C   UNL     1      -4.003   0.324  -0.639  0.00  0.00    -0.033 A 
ATOM     15  C   UNL     1      -4.776  -0.729  -1.129  0.00  0.00    +0.008 A 
ATOM     16  C   UNL     1      -4.563   1.247   0.245  0.00  0.00    +0.008 A 
ATOM     19  C   UNL     1      -6.107  -0.859  -0.736  0.00  0.00    +0.038 A 
ATOM     20  C   UNL     1      -5.895   1.117   0.638  0.00  0.00    +0.038 A 
ATOM     23  C   UNL     1      -6.667   0.064   0.147  0.00  0.00    +0.123 A 
ENDBRANCH  10  12
ENDBRANCH   4  10
TORSDOF 3
