REMARK  Name = 56775669
REMARK  9 active torsions:
REMARK  status: ('A' for Active; 'I' for Inactive)
REMARK    1  A    between atoms: N_4  and  C_7
REMARK    2  A    between atoms: N_4  and  C_8
REMARK    3  A    between atoms: C_7  and  C_11
REMARK    4  A    between atoms: C_11  and  C_16
REMARK    5  A    between atoms: C_17  and  C_21
REMARK    6  A    between atoms: C_19  and  C_20
REMARK    7  A    between atoms: C_20  and  C_22
REMARK    8  A    between atoms: C_22  and  C_23
REMARK    9  A    between atoms: C_22  and  C_24
REMARK                            x       y       z     vdW  Elec       q    Type
REMARK                         _______ _______ _______ _____ _____    ______ ____
ROOT
ATOM      1  O   UNL     1       1.026  -1.296   2.356  0.00  0.00    -0.376 OA
ATOM      7  C   UNL     1       0.008  -1.303   0.480  0.00  0.00    +0.072 C 
ATOM      9  C   UNL     1       0.919  -2.239   1.266  0.00  0.00    +0.184 C 
ATOM     10  C   UNL     1       0.245  -0.324   1.623  0.00  0.00    +0.184 C 
ENDROOT
BRANCH   7   4
ATOM      4  N   UNL     1      -1.367  -1.804   0.564  0.00  0.00    -0.304 NA
ATOM     25  H   UNL     1      -1.731  -1.915   1.510  0.00  0.00    +0.123 HD
BRANCH   4   8
ATOM      3  O   UNL     1      -5.654   2.604   0.505  0.00  0.00    -0.276 OA
ATOM      5  N   UNL     1      -4.588   0.754  -0.410  0.00  0.00    -0.302 N 
ATOM      8  C   UNL     1      -2.245  -0.936  -0.217  0.00  0.00    +0.057 C 
ATOM     12  C   UNL     1      -3.659  -1.527  -0.271  0.00  0.00    +0.037 C 
ATOM     13  C   UNL     1      -2.275   0.471   0.394  0.00  0.00    +0.037 C 
ATOM     14  C   UNL     1      -4.619  -0.589  -1.003  0.00  0.00    +0.109 C 
ATOM     15  C   UNL     1      -3.260   1.369  -0.352  0.00  0.00    +0.109 C 
ATOM     17  C   UNL     1      -5.701   1.461   0.043  0.00  0.00    +0.212 C 
ATOM     21  C   UNL     1      -7.032   0.758  -0.048  0.00  0.00    +0.109 C 
ENDBRANCH   4   8
ENDBRANCH   7   4
BRANCH   7  11
ATOM     11  C   UNL     1       0.400  -0.907  -0.910  0.00  0.00    +0.085 C 
BRANCH  11  16
ATOM      2  O   UNL     1       3.989  -1.076  -1.297  0.00  0.00    -0.359 OA
ATOM      6  N   UNL     1       2.722  -1.648  -1.301  0.00  0.00    -0.083 NA
ATOM     16  C   UNL     1       1.890  -0.648  -0.996  0.00  0.00    +0.086 A 
ATOM     18  C   UNL     1       2.568   0.566  -0.790  0.00  0.00    +0.071 A 
ATOM     19  C   UNL     1       3.884   0.242  -0.992  0.00  0.00    +0.138 A 
BRANCH  19  20
ATOM     20  C   UNL     1       5.136   1.006  -0.943  0.00  0.00    +0.080 C 
BRANCH  20  22
ATOM     22  C   UNL     1       5.414   1.743   0.401  0.00  0.00    -0.010 C 
ATOM     23  C   UNL     1       6.706   2.560   0.327  0.00  0.00    +0.007 C 
ATOM     24  C   UNL     1       5.492   0.761   1.573  0.00  0.00    +0.007 C 
ENDBRANCH  20  22
ENDBRANCH  19  20
ENDBRANCH  11  16
ENDBRANCH   7  11
TORSDOF 6
