REMARK  Name = 51137536
REMARK  7 active torsions:
REMARK  status: ('A' for Active; 'I' for Inactive)
REMARK    1  A    between atoms: N_4  and  C_12
REMARK    2  A    between atoms: N_7  and  C_25
REMARK    3  A    between atoms: N_7  and  C_28
REMARK    4  A    between atoms: N_7  and  C_29
REMARK    5  A    between atoms: C_8  and  C_13
REMARK    6  A    between atoms: C_12  and  C_14
REMARK    7  A    between atoms: C_17  and  C_21
REMARK                            x       y       z     vdW  Elec       q    Type
REMARK                         _______ _______ _______ _____ _____    ______ ____
ROOT
ATOM      4  N   UNL     1      -2.160  -1.095  -0.296  0.00  0.00    -0.297 NA
ATOM      8  C   UNL     1      -0.294  -2.367   0.334  0.00  0.00    +0.092 C 
ATOM      9  C   UNL     1      -0.851  -1.627   1.562  0.00  0.00    +0.029 C 
ATOM     10  C   UNL     1      -0.938  -1.664  -0.869  0.00  0.00    +0.097 C 
ATOM     11  C   UNL     1      -1.749  -0.537   0.992  0.00  0.00    +0.085 C 
ENDROOT
BRANCH   8  13
ATOM      1  O   UNL     1       1.865  -1.218   0.196  0.00  0.00    -0.420 OA
ATOM      5  N   UNL     1       2.019  -3.450   0.220  0.00  0.00    -0.112 NA
ATOM      6  N   UNL     1       3.299  -2.934   0.141  0.00  0.00    -0.107 NA
ATOM     13  C   UNL     1       1.215  -2.413   0.250  0.00  0.00    +0.222 A 
ATOM     17  C   UNL     1       3.160  -1.629   0.129  0.00  0.00    +0.248 A 
BRANCH  17  21
ATOM     21  C   UNL     1       4.145  -0.589   0.058  0.00  0.00    +0.039 A 
ATOM     23  C   UNL     1       5.500  -0.914  -0.012  0.00  0.00    +0.015 A 
ATOM     24  C   UNL     1       3.748   0.749   0.060  0.00  0.00    +0.015 A 
ATOM     25  C   UNL     1       6.061   1.435  -0.080  0.00  0.00    +0.029 A 
ATOM     26  C   UNL     1       6.458   0.097  -0.081  0.00  0.00    +0.024 A 
ATOM     27  C   UNL     1       4.706   1.760  -0.009  0.00  0.00    +0.024 A 
BRANCH  25   7
ATOM      7  N   UNL     1       7.029   2.457  -0.148  0.00  0.00    -0.336 N 
ATOM     28  C   UNL     1       6.627   3.850  -0.155  0.00  0.00    +0.129 C 
ATOM     29  C   UNL     1       8.439   2.129  -0.220  0.00  0.00    +0.129 C 
ENDBRANCH  25   7
ENDBRANCH  17  21
ENDBRANCH   8  13
BRANCH   4  12
ATOM     12  C   UNL     1      -2.767  -0.096  -1.164  0.00  0.00    +0.119 C 
BRANCH  12  14
ATOM      2  O   UNL     1      -6.403   2.578   0.868  0.00  0.00    -0.453 OA
ATOM      3  O   UNL     1      -8.092   0.980   0.235  0.00  0.00    -0.453 OA
ATOM     14  C   UNL     1      -4.207   0.160  -0.803  0.00  0.00    -0.030 A 
ATOM     15  C   UNL     1      -4.551   1.321  -0.108  0.00  0.00    +0.054 A 
ATOM     16  C   UNL     1      -5.192  -0.773  -1.172  0.00  0.00    +0.009 A 
ATOM     18  C   UNL     1      -5.883   1.513   0.198  0.00  0.00    +0.167 A 
ATOM     19  C   UNL     1      -6.534  -0.554  -0.850  0.00  0.00    +0.050 A 
ATOM     20  C   UNL     1      -6.848   0.600  -0.163  0.00  0.00    +0.166 A 
ATOM     22  C   UNL     1      -7.803   2.233   0.887  0.00  0.00    +0.466 C 
ENDBRANCH  12  14
ENDBRANCH   4  12
TORSDOF 5
