REMARK  Name = 26745059
REMARK  9 active torsions:
REMARK  status: ('A' for Active; 'I' for Inactive)
REMARK    1  A    between atoms: O_4  and  C_24
REMARK    2  A    between atoms: C_11  and  C_13
REMARK    3  A    between atoms: C_11  and  C_19
REMARK    4  A    between atoms: C_11  and  C_20
REMARK    5  A    between atoms: C_11  and  C_21
REMARK    6  A    between atoms: C_12  and  C_22
REMARK    7  A    between atoms: C_13  and  C_16
REMARK    8  A    between atoms: C_19  and  C_24
REMARK    9  A    between atoms: C_25  and  C_26
REMARK                            x       y       z     vdW  Elec       q    Type
REMARK                         _______ _______ _______ _____ _____    ______ ____
ROOT
ATOM      2  O   UNL     1      -2.718   1.306   1.165  0.00  0.00    -0.276 OA
ATOM      6  N   UNL     1      -1.436  -0.319   0.094  0.00  0.00    -0.284 N 
ATOM      7  N   UNL     1      -0.484  -3.535  -1.540  0.00  0.00    -0.347 N 
ATOM      8  N   UNL     1       0.031  -4.184   0.535  0.00  0.00    -0.240 NA
ATOM     12  C   UNL     1      -0.525  -0.496   1.277  0.00  0.00    +0.171 C 
ATOM     14  C   UNL     1      -0.441  -1.991   1.712  0.00  0.00    +0.089 C 
ATOM     15  C   UNL     1      -1.139  -1.105  -1.136  0.00  0.00    +0.163 C 
ATOM     16  C   UNL     1      -2.453   0.643   0.159  0.00  0.00    +0.217 C 
ATOM     17  C   UNL     1      -0.686  -2.452  -0.737  0.00  0.00    +0.056 A 
ATOM     18  C   UNL     1      -0.361  -2.875   0.528  0.00  0.00    +0.066 A 
ATOM     23  C   UNL     1      -0.053  -4.554  -0.728  0.00  0.00    +0.197 A 
ATOM     32  H   UNL     1      -0.621  -3.583  -2.541  0.00  0.00    +0.167 HD
ENDROOT
BRANCH  12  22
ATOM      3  O   UNL     1       0.839   1.544   1.355  0.00  0.00    -0.336 OA
ATOM      9  N   UNL     1       1.934  -0.252   0.587  0.00  0.00    -0.190 NA
ATOM     10  N   UNL     1       2.139   1.976   1.063  0.00  0.00    -0.056 NA
ATOM     22  C   UNL     1       0.803   0.221   1.046  0.00  0.00    +0.249 A 
ATOM     25  C   UNL     1       2.723   0.861   0.615  0.00  0.00    +0.202 A 
BRANCH  25  26
ATOM      1 CL   UNL     1       8.400   0.705  -1.141  0.00  0.00    -0.084 Cl
ATOM     26  C   UNL     1       4.092   0.824   0.190  0.00  0.00    +0.023 A 
ATOM     27  C   UNL     1       4.648  -0.371  -0.267  0.00  0.00    +0.013 A 
ATOM     28  C   UNL     1       4.869   1.982   0.235  0.00  0.00    +0.013 A 
ATOM     29  C   UNL     1       5.980  -0.408  -0.679  0.00  0.00    +0.021 A 
ATOM     30  C   UNL     1       6.201   1.945  -0.177  0.00  0.00    +0.021 A 
ATOM     31  C   UNL     1       6.757   0.750  -0.634  0.00  0.00    +0.041 A 
ENDBRANCH  25  26
ENDBRANCH  12  22
BRANCH  16  13
ATOM     13  C   UNL     1      -3.259   0.858  -1.098  0.00  0.00    +0.103 C 
BRANCH  13  11
ATOM     11  C   UNL     1      -4.302   1.984  -0.955  0.00  0.00    -0.017 C 
ATOM     20  C   UNL     1      -5.053   2.101  -2.297  0.00  0.00    +0.012 C 
ATOM     21  C   UNL     1      -3.594   3.332  -0.697  0.00  0.00    +0.012 C 
BRANCH  11  19
ATOM     19  C   UNL     1      -5.303   1.739   0.200  0.00  0.00    +0.127 C 
BRANCH  19  24
ATOM      5  O   UNL     1      -6.438  -0.276  -0.512  0.00  0.00    -0.251 OA
ATOM     24  C   UNL     1      -5.776   0.309   0.335  0.00  0.00    +0.305 C 
BRANCH  24   4
ATOM      4  O   UNL     1      -5.395  -0.264   1.504  0.00  0.00    -0.481 OA
ATOM     33  H   UNL     1      -5.710  -1.190   1.577  0.00  0.00    +0.295 HD
ENDBRANCH  24   4
ENDBRANCH  19  24
ENDBRANCH  11  19
ENDBRANCH  13  11
ENDBRANCH  16  13
TORSDOF 7
