REMARK  Name = 45783290
REMARK  6 active torsions:
REMARK  status: ('A' for Active; 'I' for Inactive)
REMARK    1  A    between atoms: O_4  and  C_29
REMARK    2  A    between atoms: N_5  and  C_14
REMARK    3  A    between atoms: C_10  and  C_15
REMARK    4  A    between atoms: C_14  and  C_16
REMARK    5  A    between atoms: C_17  and  C_21
REMARK    6  A    between atoms: C_22  and  C_29
REMARK                            x       y       z     vdW  Elec       q    Type
REMARK                         _______ _______ _______ _____ _____    ______ ____
ROOT
ATOM      1  O   UNL     1      -2.434   0.417   2.214  0.00  0.00    -0.336 OA
ATOM      6  N   UNL     1      -0.903  -0.652   0.978  0.00  0.00    -0.190 NA
ATOM      8  N   UNL     1      -1.225   1.094   2.420  0.00  0.00    -0.056 NA
ATOM     15  C   UNL     1      -2.155  -0.597   1.354  0.00  0.00    +0.245 A 
ATOM     17  C   UNL     1      -0.371   0.405   1.658  0.00  0.00    +0.202 A 
ENDROOT
BRANCH  17  21
ATOM      3  O   UNL     1       5.851  -1.712  -1.837  0.00  0.00    -0.377 OA
ATOM      7  N   UNL     1       4.035  -0.406  -0.135  0.00  0.00    -0.311 N 
ATOM      9  N   UNL     1       3.727   1.408   1.353  0.00  0.00    -0.240 NA
ATOM     19  C   UNL     1       3.756  -0.517  -1.571  0.00  0.00    +0.134 C 
ATOM     20  C   UNL     1       5.451  -0.522   0.238  0.00  0.00    +0.134 C 
ATOM     21  C   UNL     1       1.019   0.744   1.556  0.00  0.00    +0.027 A 
ATOM     23  C   UNL     1       3.197   0.361   0.681  0.00  0.00    +0.122 A 
ATOM     25  C   UNL     1       4.457  -1.746  -2.139  0.00  0.00    +0.178 C 
ATOM     26  C   UNL     1       6.060  -1.751  -0.425  0.00  0.00    +0.178 C 
ATOM     27  C   UNL     1       1.863  -0.009   0.747  0.00  0.00    +0.055 A 
ATOM     28  C   UNL     1       1.526   1.828   2.263  0.00  0.00    +0.031 A 
ATOM     30  C   UNL     1       2.875   2.116   2.129  0.00  0.00    +0.113 A 
ENDBRANCH  17  21
BRANCH  15  10
ATOM      5  N   UNL     1      -3.535  -1.533  -0.494  0.00  0.00    -0.284 NA
ATOM     10  C   UNL     1      -3.315  -1.490   0.966  0.00  0.00    +0.146 C 
ATOM     11  C   UNL     1      -3.095  -2.959   1.371  0.00  0.00    +0.030 C 
ATOM     12  C   UNL     1      -3.271  -3.757   0.086  0.00  0.00    +0.017 C 
ATOM     13  C   UNL     1      -4.109  -2.846  -0.787  0.00  0.00    +0.085 C 
BRANCH   5  14
ATOM     14  C   UNL     1      -4.376  -0.446  -0.980  0.00  0.00    +0.159 C 
BRANCH  14  16
ATOM      2  O   UNL     1      -2.531   0.807  -1.957  0.00  0.00    -0.461 OA
ATOM     16  C   UNL     1      -3.604   0.839  -1.123  0.00  0.00    +0.119 A 
ATOM     18  C   UNL     1      -3.751   2.091  -0.573  0.00  0.00    +0.046 A 
ATOM     22  C   UNL     1      -1.987   2.052  -1.939  0.00  0.00    +0.131 A 
ATOM     24  C   UNL     1      -2.701   2.879  -1.103  0.00  0.00    +0.047 A 
BRANCH  22  29
ATOM     29  C   UNL     1      -0.799   2.255  -2.780  0.00  0.00    +0.230 C 
BRANCH  29   4
ATOM      4  O   UNL     1       0.345   1.648  -2.174  0.00  0.00    -0.387 OA
ATOM     31  H   UNL     1       1.098   1.808  -2.767  0.00  0.00    +0.210 HD
ENDBRANCH  29   4
ENDBRANCH  22  29
ENDBRANCH  14  16
ENDBRANCH   5  14
ENDBRANCH  15  10
TORSDOF 6
