REMARK  Name = 26762949
REMARK  5 active torsions:
REMARK  status: ('A' for Active; 'I' for Inactive)
REMARK    1  A    between atoms: N_6  and  C_11
REMARK    2  A    between atoms: N_8  and  C_25
REMARK    3  A    between atoms: C_10  and  C_15
REMARK    4  A    between atoms: C_15  and  C_17
REMARK    5  A    between atoms: C_17  and  C_18
REMARK                            x       y       z     vdW  Elec       q    Type
REMARK                         _______ _______ _______ _____ _____    ______ ____
ROOT
ATOM      1  O   UNL     1       2.708  -2.686  -2.703  0.00  0.00    -0.274 OA
ATOM      4  N   UNL     1       1.604  -2.176   0.510  0.00  0.00    -0.285 NA
ATOM      5  N   UNL     1       3.945  -2.133  -0.830  0.00  0.00    -0.313 N 
ATOM      9  C   UNL     1       1.806  -3.202  -0.512  0.00  0.00    +0.145 C 
ATOM     10  C   UNL     1       2.773  -1.964   1.368  0.00  0.00    +0.075 C 
ATOM     11  C   UNL     1      -0.541  -2.936   0.040  0.00  0.00    +0.090 C 
ATOM     12  C   UNL     1       0.405  -3.409  -1.073  0.00  0.00    +0.052 C 
ATOM     13  C   UNL     1       0.374  -2.546   1.202  0.00  0.00    +0.107 C 
ATOM     14  C   UNL     1       4.089  -2.254   0.610  0.00  0.00    +0.123 C 
ATOM     16  C   UNL     1       2.832  -2.647  -1.482  0.00  0.00    +0.230 C 
ATOM     31  H   UNL     1       4.713  -1.761  -1.379  0.00  0.00    +0.149 HD
ENDROOT
BRANCH  11   6
ATOM      3  O   UNL     1      -3.159  -2.244   0.978  0.00  0.00    -0.253 OA
ATOM      6  N   UNL     1      -1.349  -1.822  -0.398  0.00  0.00    -0.295 N 
ATOM      8  N   UNL     1      -3.163  -0.416  -0.495  0.00  0.00    -0.269 N 
ATOM     19  C   UNL     1      -2.624  -1.552   0.114  0.00  0.00    +0.304 C 
ATOM     32  H   UNL     1      -0.942  -1.154  -1.045  0.00  0.00    +0.151 HD
ATOM     33  H   UNL     1      -2.587   0.042  -1.197  0.00  0.00    +0.156 HD
BRANCH   8  25
ATOM     25  C   UNL     1      -4.423   0.182  -0.257  0.00  0.00    +0.035 A 
ATOM     26  C   UNL     1      -4.798   1.323  -0.966  0.00  0.00    +0.023 A 
ATOM     27  C   UNL     1      -5.291  -0.369   0.686  0.00  0.00    +0.023 A 
ATOM     28  C   UNL     1      -6.040   1.913  -0.732  0.00  0.00    +0.002 A 
ATOM     29  C   UNL     1      -6.533   0.220   0.920  0.00  0.00    +0.002 A 
ATOM     30  C   UNL     1      -6.907   1.362   0.211  0.00  0.00    +0.000 A 
ENDBRANCH   8  25
ENDBRANCH  11   6
BRANCH  10  15
ATOM     15  C   UNL     1       2.757  -0.517   1.867  0.00  0.00    +0.029 C 
BRANCH  15  17
ATOM     17  C   UNL     1       2.794   0.490   0.727  0.00  0.00    +0.097 C 
BRANCH  17  18
ATOM      2  O   UNL     1       2.663   2.093   2.466  0.00  0.00    -0.276 OA
ATOM      7  N   UNL     1       2.759   2.922   0.298  0.00  0.00    -0.301 N 
ATOM     18  C   UNL     1       2.733   1.903   1.249  0.00  0.00    +0.216 C 
ATOM     20  C   UNL     1       2.701   4.322   0.727  0.00  0.00    +0.108 C 
ATOM     21  C   UNL     1       2.887   2.728  -1.152  0.00  0.00    +0.108 C 
ATOM     22  C   UNL     1       1.569   5.062   0.020  0.00  0.00    +0.019 C 
ATOM     23  C   UNL     1       1.758   3.440  -1.895  0.00  0.00    +0.019 C 
ATOM     24  C   UNL     1       1.672   4.913  -1.497  0.00  0.00    +0.003 C 
ENDBRANCH  17  18
ENDBRANCH  15  17
ENDBRANCH  10  15
TORSDOF 5
