REMARK  Name = 75536636
REMARK  7 active torsions:
REMARK  status: ('A' for Active; 'I' for Inactive)
REMARK    1  A    between atoms: O_3  and  C_11
REMARK    2  A    between atoms: N_6  and  C_9
REMARK    3  A    between atoms: N_6  and  C_10
REMARK    4  A    between atoms: N_8  and  C_18
REMARK    5  A    between atoms: C_12  and  C_18
REMARK    6  A    between atoms: C_19  and  C_20
REMARK    7  A    between atoms: C_21  and  C_22
REMARK                            x       y       z     vdW  Elec       q    Type
REMARK                         _______ _______ _______ _____ _____    ______ ____
ROOT
ATOM      2  O   UNL     1       0.643   0.113  -1.079  0.00  0.00    -0.371 OA
ATOM      9  C   UNL     1      -1.485  -0.565  -0.269  0.00  0.00    +0.111 C 
ATOM     11  C   UNL     1      -0.496  -1.699  -0.071  0.00  0.00    +0.164 C 
ATOM     12  C   UNL     1       0.827  -0.947  -0.126  0.00  0.00    +0.165 C 
ATOM     15  C   UNL     1      -0.767   0.282  -1.307  0.00  0.00    +0.181 C 
ENDROOT
BRANCH  11   3
ATOM      3  O   UNL     1      -0.672  -2.368   1.163  0.00  0.00    -0.388 OA
ATOM     29  H   UNL     1      -0.610  -1.712   1.878  0.00  0.00    +0.210 HD
ENDBRANCH  11   3
BRANCH   9   6
ATOM      6  N   UNL     1      -2.799  -1.006  -0.708  0.00  0.00    -0.306 NA
ATOM     28  H   UNL     1      -3.088  -1.829  -0.180  0.00  0.00    +0.123 HD
BRANCH   6  10
ATOM      4  O   UNL     1      -8.070   0.903   1.817  0.00  0.00    -0.276 OA
ATOM      7  N   UNL     1      -6.456   0.932   0.146  0.00  0.00    -0.302 N 
ATOM     10  C   UNL     1      -3.784   0.061  -0.548  0.00  0.00    +0.057 C 
ATOM     13  C   UNL     1      -4.254   0.130   0.910  0.00  0.00    +0.037 C 
ATOM     14  C   UNL     1      -4.975  -0.178  -1.485  0.00  0.00    +0.037 C 
ATOM     16  C   UNL     1      -5.355   1.175   1.080  0.00  0.00    +0.109 C 
ATOM     17  C   UNL     1      -6.063   0.873  -1.268  0.00  0.00    +0.109 C 
ATOM     19  C   UNL     1      -7.760   0.815   0.626  0.00  0.00    +0.212 C 
ATOM     20  C   UNL     1      -8.837   0.561  -0.398  0.00  0.00    +0.109 C 
ENDBRANCH   6  10
ENDBRANCH   9   6
BRANCH  12  18
ATOM     18  C   UNL     1       1.996  -1.819  -0.547  0.00  0.00    +0.138 C 
BRANCH  18   8
ATOM      5  O   UNL     1       3.857  -1.454   1.609  0.00  0.00    -0.270 OA
ATOM      8  N   UNL     1       3.218  -1.070  -0.589  0.00  0.00    -0.309 N 
ATOM     21  C   UNL     1       4.064  -0.946   0.510  0.00  0.00    +0.244 C 
ATOM     30  H   UNL     1       3.413  -0.566  -1.447  0.00  0.00    +0.149 HD
BRANCH  21  22
ATOM      1  F   UNL     1       8.655   2.198  -0.235  0.00  0.00    -0.205 F 
ATOM     22  C   UNL     1       5.278  -0.113   0.313  0.00  0.00    +0.037 A 
ATOM     23  C   UNL     1       5.866   0.531   1.401  0.00  0.00    +0.016 A 
ATOM     24  C   UNL     1       5.831   0.024  -0.961  0.00  0.00    +0.016 A 
ATOM     25  C   UNL     1       7.007   1.312   1.216  0.00  0.00    +0.039 A 
ATOM     26  C   UNL     1       6.971   0.805  -1.146  0.00  0.00    +0.039 A 
ATOM     27  C   UNL     1       7.559   1.449  -0.057  0.00  0.00    +0.123 A 
ENDBRANCH  21  22
ENDBRANCH  18   8
ENDBRANCH  12  18
TORSDOF 6
