REMARK  Name = 45361027
REMARK  9 active torsions:
REMARK  status: ('A' for Active; 'I' for Inactive)
REMARK    1  A    between atoms: N_4  and  C_17
REMARK    2  A    between atoms: N_5  and  C_19
REMARK    3  A    between atoms: N_7  and  C_25
REMARK    4  A    between atoms: N_9  and  C_28
REMARK    5  A    between atoms: C_14  and  C_18
REMARK    6  A    between atoms: C_17  and  C_20
REMARK    7  A    between atoms: C_18  and  C_21
REMARK    8  A    between atoms: C_21  and  C_22
REMARK    9  A    between atoms: C_28  and  C_31
REMARK                            x       y       z     vdW  Elec       q    Type
REMARK                         _______ _______ _______ _____ _____    ______ ____
ROOT
ATOM      2  O   UNL     1       1.502  -1.991  -0.451  0.00  0.00    -0.274 OA
ATOM      4  N   UNL     1       2.783   0.275   0.267  0.00  0.00    -0.283 NA
ATOM      5  N   UNL     1      -0.591   1.252  -0.757  0.00  0.00    -0.296 NA
ATOM      6  N   UNL     1      -0.514  -1.373   0.438  0.00  0.00    -0.312 N 
ATOM     10  C   UNL     1       0.672   1.440  -0.009  0.00  0.00    +0.084 C 
ATOM     11  C   UNL     1       1.354   0.190   0.620  0.00  0.00    +0.161 C 
ATOM     12  C   UNL     1       1.814   2.038  -0.852  0.00  0.00    +0.036 C 
ATOM     13  C   UNL     1       3.058   1.667  -0.073  0.00  0.00    +0.087 C 
ATOM     14  C   UNL     1      -1.728   0.755   0.068  0.00  0.00    +0.074 C 
ATOM     15  C   UNL     1       0.816  -1.153   0.133  0.00  0.00    +0.232 C 
ATOM     16  C   UNL     1      -1.369  -0.376   1.052  0.00  0.00    +0.123 C 
ATOM     19  C   UNL     1      -0.974   2.489  -1.459  0.00  0.00    +0.105 C 
ATOM     35  H   UNL     1      -0.928  -2.258   0.162  0.00  0.00    +0.149 HD
ENDROOT
BRANCH   4  17
ATOM     17  C   UNL     1       3.667  -0.217   1.316  0.00  0.00    +0.159 C 
BRANCH  17  20
ATOM      7  N   UNL     1       5.665  -1.035   0.032  0.00  0.00    -0.330 N 
ATOM      8  N   UNL     1       5.987   0.737   1.335  0.00  0.00    -0.231 NA
ATOM     20  C   UNL     1       5.112  -0.147   0.912  0.00  0.00    +0.125 A 
ATOM     23  C   UNL     1       6.986  -0.701  -0.124  0.00  0.00    +0.069 A 
ATOM     24  C   UNL     1       7.163   0.407   0.700  0.00  0.00    +0.089 A 
ATOM     25  C   UNL     1       4.983  -2.130  -0.620  0.00  0.00    +0.150 C 
ATOM     26  C   UNL     1       8.010  -1.257  -0.891  0.00  0.00    +0.028 A 
ATOM     27  C   UNL     1       8.430   1.010   0.774  0.00  0.00    +0.030 A 
ATOM     29  C   UNL     1       9.265  -0.645  -0.804  0.00  0.00    +0.002 A 
ATOM     30  C   UNL     1       9.473   0.469   0.013  0.00  0.00    +0.002 A 
ENDBRANCH  17  20
ENDBRANCH   4  17
BRANCH  14  18
ATOM     18  C   UNL     1      -2.866   0.239  -0.837  0.00  0.00    +0.029 C 
BRANCH  18  21
ATOM     21  C   UNL     1      -4.197   0.294  -0.110  0.00  0.00    +0.097 C 
BRANCH  21  22
ATOM      3  O   UNL     1      -5.175  -0.609  -2.132  0.00  0.00    -0.276 OA
ATOM      9  N   UNL     1      -6.549  -0.160  -0.316  0.00  0.00    -0.311 N 
ATOM     22  C   UNL     1      -5.333  -0.210  -0.981  0.00  0.00    +0.213 C 
ATOM     36  H   UNL     1      -6.574   0.182   0.641  0.00  0.00    +0.149 HD
BRANCH   9  28
ATOM     28  C   UNL     1      -7.783  -0.584  -0.933  0.00  0.00    +0.146 C 
BRANCH  28  31
ATOM      1  S   UNL     1      -9.335   1.187   0.540  0.00  0.00    -0.100 S 
ATOM     31  C   UNL     1      -8.963  -0.386  -0.025  0.00  0.00    +0.007 A 
ATOM     32  C   UNL     1      -9.845  -1.329   0.453  0.00  0.00    +0.013 A 
ATOM     33  C   UNL     1     -10.840  -0.753   1.295  0.00  0.00    +0.008 A 
ATOM     34  C   UNL     1     -10.680   0.608   1.428  0.00  0.00    +0.045 A 
ENDBRANCH  28  31
ENDBRANCH   9  28
ENDBRANCH  21  22
ENDBRANCH  18  21
ENDBRANCH  14  18
TORSDOF 7
