REMARK  Name = 75368543
REMARK  4 active torsions:
REMARK  status: ('A' for Active; 'I' for Inactive)
REMARK    1  A    between atoms: O_2  and  C_20
REMARK    2  A    between atoms: N_5  and  C_13
REMARK    3  A    between atoms: C_13  and  C_14
REMARK    4  A    between atoms: C_19  and  C_20
REMARK                            x       y       z     vdW  Elec       q    Type
REMARK                         _______ _______ _______ _____ _____    ______ ____
ROOT
ATOM      1  O   UNL     1       5.936   0.049   0.413  0.00  0.00    -0.253 OA
ATOM      4  N   UNL     1       3.586  -0.083   0.397  0.00  0.00    -0.279 N 
ATOM      5  N   UNL     1       1.010  -1.051  -0.180  0.00  0.00    -0.295 NA
ATOM      6  N   UNL     1       4.557   1.910   0.031  0.00  0.00    -0.297 N 
ATOM      7  C   UNL     1       2.484   0.853   0.328  0.00  0.00    +0.109 C 
ATOM      8  C   UNL     1       1.388   0.317  -0.592  0.00  0.00    +0.109 C 
ATOM      9  C   UNL     1       3.314  -1.482   0.649  0.00  0.00    +0.125 C 
ATOM     10  C   UNL     1       3.142   2.148  -0.142  0.00  0.00    +0.129 C 
ATOM     11  C   UNL     1       2.171  -1.962  -0.249  0.00  0.00    +0.104 C 
ATOM     12  C   UNL     1       4.827   0.555   0.300  0.00  0.00    +0.303 C 
ATOM     21  H   UNL     1       5.277   2.612  -0.108  0.00  0.00    +0.150 HD
ENDROOT
BRANCH   5  13
ATOM     13  C   UNL     1      -0.080  -1.552  -1.017  0.00  0.00    +0.119 C 
BRANCH  13  14
ATOM     14  C   UNL     1      -1.407  -0.960  -0.622  0.00  0.00    -0.033 A 
ATOM     15  C   UNL     1      -2.064  -1.420   0.518  0.00  0.00    +0.006 A 
ATOM     16  C   UNL     1      -1.979   0.049  -1.397  0.00  0.00    +0.006 A 
ATOM     17  C   UNL     1      -3.293  -0.872   0.884  0.00  0.00    +0.015 A 
ATOM     18  C   UNL     1      -3.208   0.597  -1.031  0.00  0.00    +0.015 A 
ATOM     19  C   UNL     1      -3.865   0.137   0.110  0.00  0.00    +0.059 A 
BRANCH  19  20
ATOM      3  O   UNL     1      -5.813   0.379   1.478  0.00  0.00    -0.245 OA
ATOM     20  C   UNL     1      -5.147   0.709   0.491  0.00  0.00    +0.337 C 
BRANCH  20   2
ATOM      2  O   UNL     1      -5.561   1.679  -0.369  0.00  0.00    -0.477 OA
ATOM     22  H   UNL     1      -6.425   2.058  -0.103  0.00  0.00    +0.295 HD
ENDBRANCH  20   2
ENDBRANCH  19  20
ENDBRANCH  13  14
ENDBRANCH   5  13
TORSDOF 4
