REMARK  Name = 28959871
REMARK  11 active torsions:
REMARK  status: ('A' for Active; 'I' for Inactive)
REMARK    1  A    between atoms: O_2  and  C_22
REMARK    2  A    between atoms: O_5  and  C_31
REMARK    3  A    between atoms: O_5  and  C_32
REMARK    4  A    between atoms: N_7  and  C_16
REMARK    5  A    between atoms: C_9  and  C_13
REMARK    6  A    between atoms: C_10  and  C_15
REMARK    7  A    between atoms: C_13  and  C_16
REMARK    8  A    between atoms: C_15  and  C_22
REMARK    9  A    between atoms: C_19  and  C_23
REMARK   10  A    between atoms: C_23  and  C_25
REMARK   11  A    between atoms: C_24  and  C_26
REMARK                            x       y       z     vdW  Elec       q    Type
REMARK                         _______ _______ _______ _____ _____    ______ ____
ROOT
ATOM      1  O   UNL     1       0.238   3.281  -0.681  0.00  0.00    -0.275 OA
ATOM      6  N   UNL     1      -1.498   2.276   0.490  0.00  0.00    -0.301 N 
ATOM      9  C   UNL     1      -2.961   0.328   0.982  0.00  0.00    +0.011 C 
ATOM     10  C   UNL     1      -4.091   1.022   0.179  0.00  0.00    +0.006 C 
ATOM     11  C   UNL     1      -1.996   1.387   1.548  0.00  0.00    +0.111 C 
ATOM     12  C   UNL     1      -3.525   1.980  -0.882  0.00  0.00    +0.023 C 
ATOM     14  C   UNL     1      -2.540   2.971  -0.265  0.00  0.00    +0.108 C 
ATOM     19  C   UNL     1      -0.155   2.509   0.197  0.00  0.00    +0.220 C 
ENDROOT
BRANCH   9  13
ATOM     13  C   UNL     1      -2.185  -0.726   0.183  0.00  0.00    +0.020 C 
BRANCH  13  16
ATOM     16  C   UNL     1      -1.574  -1.768   1.109  0.00  0.00    +0.085 C 
BRANCH  16   7
ATOM      4  O   UNL     1       2.810  -6.034   0.707  0.00  0.00    -0.276 OA
ATOM      7  N   UNL     1      -0.826  -2.751   0.325  0.00  0.00    -0.299 NA
ATOM      8  N   UNL     1       1.386  -4.475  -0.260  0.00  0.00    -0.299 N 
ATOM     17  C   UNL     1      -0.609  -3.977   1.107  0.00  0.00    +0.103 C 
ATOM     18  C   UNL     1       0.458  -2.189  -0.118  0.00  0.00    +0.103 C 
ATOM     20  C   UNL     1       0.142  -5.020   0.280  0.00  0.00    +0.123 C 
ATOM     21  C   UNL     1       1.235  -3.199  -0.965  0.00  0.00    +0.123 C 
ATOM     24  C   UNL     1       2.562  -5.221  -0.186  0.00  0.00    +0.213 C 
ATOM     26  C   UNL     1       3.575  -4.993  -1.280  0.00  0.00    +0.109 C 
ENDBRANCH  16   7
ENDBRANCH  13  16
ENDBRANCH   9  13
BRANCH  10  15
ATOM     15  C   UNL     1      -5.070   0.034  -0.454  0.00  0.00    +0.124 C 
BRANCH  15  22
ATOM      3  O   UNL     1      -6.708   1.838  -0.520  0.00  0.00    -0.251 OA
ATOM     22  C   UNL     1      -6.399   0.676  -0.741  0.00  0.00    +0.305 C 
BRANCH  22   2
ATOM      2  O   UNL     1      -7.238  -0.235  -1.297  0.00  0.00    -0.481 OA
ATOM     33  H   UNL     1      -8.117   0.151  -1.498  0.00  0.00    +0.295 HD
ENDBRANCH  22   2
ENDBRANCH  15  22
ENDBRANCH  10  15
BRANCH  19  23
ATOM     23  C   UNL     1       0.858   1.752   1.019  0.00  0.00    +0.131 C 
BRANCH  23  25
ATOM     25  C   UNL     1       2.250   2.132   0.622  0.00  0.00    -0.038 A 
ATOM     27  C   UNL     1       2.906   1.426  -0.386  0.00  0.00    +0.007 A 
ATOM     28  C   UNL     1       2.891   3.194   1.260  0.00  0.00    +0.007 A 
ATOM     29  C   UNL     1       4.203   1.780  -0.755  0.00  0.00    +0.046 A 
ATOM     30  C   UNL     1       4.188   3.549   0.891  0.00  0.00    +0.046 A 
ATOM     31  C   UNL     1       4.844   2.842  -0.117  0.00  0.00    +0.120 A 
BRANCH  31   5
ATOM      5  O   UNL     1       6.110   3.189  -0.478  0.00  0.00    -0.495 OA
ATOM     32  C   UNL     1       6.721   2.425  -1.516  0.00  0.00    +0.277 C 
ENDBRANCH  31   5
ENDBRANCH  23  25
ENDBRANCH  19  23
TORSDOF 9
