REMARK  Name = 44716320
REMARK  7 active torsions:
REMARK  status: ('A' for Active; 'I' for Inactive)
REMARK    1  A    between atoms: N_2  and  C_18
REMARK    2  A    between atoms: N_3  and  C_13
REMARK    3  A    between atoms: N_3  and  C_17
REMARK    4  A    between atoms: C_7  and  C_14
REMARK    5  A    between atoms: C_8  and  C_13
REMARK    6  A    between atoms: C_16  and  C_19
REMARK    7  A    between atoms: C_17  and  C_20
REMARK                            x       y       z     vdW  Elec       q    Type
REMARK                         _______ _______ _______ _____ _____    ______ ____
ROOT
ATOM      1  N   UNL     1      -3.717  -0.445   1.147  0.00  0.00    -0.298 NA
ATOM      6  C   UNL     1      -2.850  -1.703  -0.962  0.00  0.00    +0.002 C 
ATOM      7  C   UNL     1      -2.019  -2.102   0.289  0.00  0.00    +0.055 C 
ATOM      8  C   UNL     1      -3.494   0.518   0.037  0.00  0.00    +0.071 C 
ATOM      9  C   UNL     1      -2.787  -0.173  -1.150  0.00  0.00    +0.024 C 
ATOM     10  C   UNL     1      -4.319  -2.062  -0.653  0.00  0.00    +0.019 C 
ATOM     11  C   UNL     1      -2.458  -1.169   1.453  0.00  0.00    +0.094 C 
ATOM     12  C   UNL     1      -4.721  -1.437   0.694  0.00  0.00    +0.085 C 
ENDROOT
BRANCH   7  14
ATOM      2  N   UNL     1       0.150  -3.317  -0.224  0.00  0.00    -0.270 N 
ATOM      4  N   UNL     1       1.485  -3.179  -0.286  0.00  0.00    -0.171 NA
ATOM     14  C   UNL     1      -0.505  -2.180   0.150  0.00  0.00    +0.044 A 
ATOM     15  C   UNL     1       0.470  -1.233   0.347  0.00  0.00    +0.053 A 
ATOM     16  C   UNL     1       1.675  -1.903   0.064  0.00  0.00    +0.093 A 
ATOM     18  C   UNL     1      -0.443  -4.595  -0.541  0.00  0.00    +0.172 C 
BRANCH  16  19
ATOM     19  C   UNL     1       3.002  -1.350   0.122  0.00  0.00    +0.002 A 
ATOM     21  C   UNL     1       3.292  -0.326   1.025  0.00  0.00    +0.010 A 
ATOM     22  C   UNL     1       4.000  -1.838  -0.722  0.00  0.00    +0.010 A 
ATOM     24  C   UNL     1       4.578   0.210   1.082  0.00  0.00    +0.001 A 
ATOM     25  C   UNL     1       5.286  -1.302  -0.664  0.00  0.00    +0.001 A 
ATOM     26  C   UNL     1       5.575  -0.278   0.237  0.00  0.00    +0.000 A 
ENDBRANCH  16  19
ENDBRANCH   7  14
BRANCH   8  13
ATOM     13  C   UNL     1      -2.745   1.772   0.495  0.00  0.00    +0.100 C 
BRANCH  13   3
ATOM      3  N   UNL     1      -2.674   2.751  -0.578  0.00  0.00    -0.309 NA
ATOM     30  H   UNL     1      -3.622   3.014  -0.847  0.00  0.00    +0.122 HD
BRANCH   3  17
ATOM     17  C   UNL     1      -1.954   3.944  -0.151  0.00  0.00    +0.136 C 
BRANCH  17  20
ATOM      5  N   UNL     1       0.193   3.897   0.986  0.00  0.00    -0.259 NA
ATOM     20  C   UNL     1      -0.466   3.744  -0.185  0.00  0.00    +0.055 A 
ATOM     23  C   UNL     1       0.148   3.418  -1.384  0.00  0.00    +0.024 A 
ATOM     27  C   UNL     1       1.526   3.238  -1.381  0.00  0.00    +0.003 A 
ATOM     28  C   UNL     1       1.532   3.714   0.949  0.00  0.00    +0.111 A 
ATOM     29  C   UNL     1       2.239   3.387  -0.197  0.00  0.00    +0.020 A 
ENDBRANCH  17  20
ENDBRANCH   3  17
ENDBRANCH  13   3
ENDBRANCH   8  13
TORSDOF 6
