REMARK  Name = 7127925
REMARK  11 active torsions:
REMARK  status: ('A' for Active; 'I' for Inactive)
REMARK    1  A    between atoms: S_1  and  C_18
REMARK    2  A    between atoms: S_1  and  C_24
REMARK    3  A    between atoms: S_2  and  C_27
REMARK    4  A    between atoms: S_2  and  C_30
REMARK    5  A    between atoms: N_8  and  C_12
REMARK    6  A    between atoms: N_9  and  C_20
REMARK    7  A    between atoms: N_9  and  C_21
REMARK    8  A    between atoms: N_10  and  C_23
REMARK    9  A    between atoms: C_13  and  C_16
REMARK   10  A    between atoms: C_17  and  C_18
REMARK   11  A    between atoms: C_20  and  C_22
REMARK                            x       y       z     vdW  Elec       q    Type
REMARK                         _______ _______ _______ _____ _____    ______ ____
ROOT
ATOM      4  O   UNL     1      -4.529   0.809   0.860  0.00  0.00    -0.275 OA
ATOM      7  N   UNL     1      -2.678   1.118  -0.494  0.00  0.00    -0.287 N 
ATOM     12  C   UNL     1      -0.698   1.019  -1.803  0.00  0.00    +0.094 C 
ATOM     13  C   UNL     1      -2.457  -0.290  -0.788  0.00  0.00    +0.164 C 
ATOM     14  C   UNL     1      -1.457  -0.303  -1.943  0.00  0.00    +0.056 C 
ATOM     15  C   UNL     1      -1.743   1.970  -1.229  0.00  0.00    +0.131 C 
ATOM     17  C   UNL     1      -3.761   1.557   0.253  0.00  0.00    +0.226 C 
ENDROOT
BRANCH  12   8
ATOM      5  O   UNL     1       1.985   0.382  -2.582  0.00  0.00    -0.253 OA
ATOM      8  N   UNL     1       0.445   0.891  -0.933  0.00  0.00    -0.295 N 
ATOM     10  N   UNL     1       2.631   0.520  -0.329  0.00  0.00    -0.269 N 
ATOM     19  C   UNL     1       1.730   0.576  -1.396  0.00  0.00    +0.304 C 
ATOM     31  H   UNL     1       0.303   0.976   0.069  0.00  0.00    +0.151 HD
ATOM     32  H   UNL     1       2.255   0.707   0.597  0.00  0.00    +0.156 HD
BRANCH  10  23
ATOM     23  C   UNL     1       4.016   0.234  -0.378  0.00  0.00    +0.036 A 
ATOM     25  C   UNL     1       4.767   0.220   0.798  0.00  0.00    +0.038 A 
ATOM     26  C   UNL     1       4.629  -0.036  -1.601  0.00  0.00    +0.023 A 
ATOM     27  C   UNL     1       6.132  -0.062   0.749  0.00  0.00    +0.009 A 
ATOM     28  C   UNL     1       5.994  -0.319  -1.649  0.00  0.00    +0.003 A 
ATOM     29  C   UNL     1       6.746  -0.332  -0.474  0.00  0.00    +0.015 A 
BRANCH  27   2
ATOM      2  S   UNL     1       7.093  -0.082   2.250  0.00  0.00    -0.129 S 
ATOM     30  C   UNL     1       6.259  -1.380   3.206  0.00  0.00    +0.090 C 
ENDBRANCH  27   2
ENDBRANCH  10  23
ENDBRANCH  12   8
BRANCH  13  16
ATOM      3  O   UNL     1      -1.208  -0.295   1.215  0.00  0.00    -0.274 OA
ATOM      9  N   UNL     1      -2.198  -2.307   0.603  0.00  0.00    -0.294 N 
ATOM     16  C   UNL     1      -1.896  -0.955   0.432  0.00  0.00    +0.236 C 
ATOM     21  C   UNL     1      -1.717  -3.075   1.744  0.00  0.00    +0.132 C 
BRANCH   9  20
ATOM     20  C   UNL     1      -3.017  -3.051  -0.351  0.00  0.00    +0.202 C 
BRANCH  20  22
ATOM      6  O   UNL     1      -4.872  -2.387   1.058  0.00  0.00    -0.274 OA
ATOM     11  N   UNL     1      -5.299  -3.630  -0.829  0.00  0.00    -0.328 N 
ATOM     22  C   UNL     1      -4.473  -2.957   0.046  0.00  0.00    +0.228 C 
ATOM     33  H   UNL     1      -6.301  -3.663  -0.678  0.00  0.00    +0.145 HD
ATOM     34  H   UNL     1      -4.944  -4.107  -1.651  0.00  0.00    +0.145 HD
ENDBRANCH  20  22
ENDBRANCH   9  20
ENDBRANCH  13  16
BRANCH  17  18
ATOM     18  C   UNL     1      -3.956   3.051   0.301  0.00  0.00    +0.164 C 
BRANCH  18   1
ATOM      1  S   UNL     1      -3.039   3.677   1.716  0.00  0.00    -0.155 S 
ATOM     24  C   UNL     1      -3.431   5.436   1.547  0.00  0.00    +0.085 C 
ENDBRANCH  18   1
ENDBRANCH  17  18
TORSDOF 8
