REMARK  Name = 11866332
REMARK  6 active torsions:
REMARK  status: ('A' for Active; 'I' for Inactive)
REMARK    1  A    between atoms: O_1  and  C_10
REMARK    2  A    between atoms: O_2  and  C_11
REMARK    3  A    between atoms: N_6  and  C_16
REMARK    4  A    between atoms: N_7  and  C_12
REMARK    5  A    between atoms: C_14  and  C_19
REMARK    6  A    between atoms: C_22  and  C_23
REMARK                            x       y       z     vdW  Elec       q    Type
REMARK                         _______ _______ _______ _____ _____    ______ ____
ROOT
ATOM     10  C   UNL     1       1.210   2.012  -0.970  0.00  0.00    +0.167 C 
ATOM     11  C   UNL     1      -0.106   2.799  -0.918  0.00  0.00    +0.149 C 
ATOM     12  C   UNL     1       1.444   1.217   0.328  0.00  0.00    +0.128 C 
ATOM     13  C   UNL     1      -1.312   1.891  -0.624  0.00  0.00    +0.074 C 
ATOM     14  C   UNL     1      -1.016   0.812   0.379  0.00  0.00    +0.015 C 
ATOM     15  C   UNL     1       0.212   0.505   0.821  0.00  0.00    +0.006 C 
ENDROOT
BRANCH  14  19
ATOM      3  O   UNL     1      -2.102  -0.400   2.073  0.00  0.00    -0.271 OA
ATOM      6  N   UNL     1      -3.196  -0.072   0.041  0.00  0.00    -0.300 N 
ATOM     19  C   UNL     1      -2.143   0.055   0.930  0.00  0.00    +0.241 C 
ATOM     28  H   UNL     1      -3.139   0.326  -0.889  0.00  0.00    +0.150 HD
BRANCH   6  16
ATOM      4  O   UNL     1      -4.108  -1.933  -1.741  0.00  0.00    -0.274 OA
ATOM      8  N   UNL     1      -6.259  -1.653  -1.024  0.00  0.00    -0.314 N 
ATOM     16  C   UNL     1      -4.412  -0.777   0.356  0.00  0.00    +0.159 C 
ATOM     17  C   UNL     1      -5.433   0.160   0.987  0.00  0.00    +0.033 C 
ATOM     18  C   UNL     1      -6.759  -0.566   1.146  0.00  0.00    +0.021 C 
ATOM     20  C   UNL     1      -7.265  -0.981  -0.223  0.00  0.00    +0.104 C 
ATOM     21  C   UNL     1      -4.895  -1.470  -0.913  0.00  0.00    +0.233 C 
ATOM     30  H   UNL     1      -6.588  -2.164  -1.837  0.00  0.00    +0.149 HD
ENDBRANCH   6  16
ENDBRANCH  14  19
BRANCH  12   7
ATOM      5  O   UNL     1       4.239   1.669   0.801  0.00  0.00    -0.270 OA
ATOM      7  N   UNL     1       2.509   0.256   0.179  0.00  0.00    -0.302 N 
ATOM     22  C   UNL     1       3.837   0.569   0.432  0.00  0.00    +0.246 C 
ATOM     29  H   UNL     1       2.264  -0.646  -0.219  0.00  0.00    +0.150 HD
BRANCH  22  23
ATOM      9  N   UNL     1       7.053  -1.168  -0.335  0.00  0.00    -0.263 NA
ATOM     23  C   UNL     1       4.817  -0.524   0.206  0.00  0.00    +0.055 A 
ATOM     24  C   UNL     1       4.419  -1.834   0.321  0.00  0.00    +0.016 A 
ATOM     25  C   UNL     1       6.112  -0.223  -0.116  0.00  0.00    +0.123 A 
ATOM     26  C   UNL     1       5.359  -2.836   0.103  0.00  0.00    +0.020 A 
ATOM     27  C   UNL     1       6.651  -2.454  -0.219  0.00  0.00    +0.111 A 
ENDBRANCH  22  23
ENDBRANCH  12   7
BRANCH  10   1
ATOM      1  O   UNL     1       1.164   1.114  -2.081  0.00  0.00    -0.387 OA
ATOM     31  H   UNL     1       1.044   1.649  -2.884  0.00  0.00    +0.210 HD
ENDBRANCH  10   1
BRANCH  11   2
ATOM      2  O   UNL     1      -0.021   3.833   0.061  0.00  0.00    -0.389 OA
ATOM     32  H   UNL     1       0.739   4.394  -0.170  0.00  0.00    +0.210 HD
ENDBRANCH  11   2
TORSDOF 6
