REMARK  Name = 7049408
REMARK  14 active torsions:
REMARK  status: ('A' for Active; 'I' for Inactive)
REMARK    1  A    between atoms: S_1  and  C_19
REMARK    2  A    between atoms: S_1  and  C_25
REMARK    3  A    between atoms: O_5  and  C_21
REMARK    4  A    between atoms: O_5  and  C_26
REMARK    5  A    between atoms: N_8  and  C_12
REMARK    6  A    between atoms: N_9  and  C_17
REMARK    7  A    between atoms: N_10  and  C_24
REMARK    8  A    between atoms: C_11  and  C_15
REMARK    9  A    between atoms: C_16  and  C_19
REMARK   10  A    between atoms: C_17  and  C_18
REMARK   11  A    between atoms: C_17  and  C_21
REMARK   12  A    between atoms: C_18  and  C_22
REMARK   13  A    between atoms: C_18  and  C_23
REMARK   14  A    between atoms: C_24  and  C_27
REMARK                            x       y       z     vdW  Elec       q    Type
REMARK                         _______ _______ _______ _____ _____    ______ ____
ROOT
ATOM      3  O   UNL     1       3.151   2.471  -0.261  0.00  0.00    -0.275 OA
ATOM      7  N   UNL     1       2.547   0.299  -0.781  0.00  0.00    -0.287 N 
ATOM     11  C   UNL     1       1.259   0.628  -1.373  0.00  0.00    +0.164 C 
ATOM     12  C   UNL     1       1.526  -1.773  -1.334  0.00  0.00    +0.094 C 
ATOM     13  C   UNL     1       0.812  -0.647  -2.086  0.00  0.00    +0.055 C 
ATOM     14  C   UNL     1       2.837  -1.131  -0.893  0.00  0.00    +0.131 C 
ATOM     16  C   UNL     1       3.430   1.274  -0.342  0.00  0.00    +0.226 C 
ENDROOT
BRANCH  12   8
ATOM      4  O   UNL     1      -0.376  -3.944  -1.314  0.00  0.00    -0.253 OA
ATOM      8  N   UNL     1       0.753  -2.242  -0.211  0.00  0.00    -0.295 N 
ATOM     10  N   UNL     1      -0.757  -3.545   0.939  0.00  0.00    -0.296 N 
ATOM     20  C   UNL     1      -0.148  -3.303  -0.290  0.00  0.00    +0.300 C 
ATOM     29  H   UNL     1       0.822  -1.736   0.668  0.00  0.00    +0.151 HD
ATOM     31  H   UNL     1      -0.521  -2.948   1.727  0.00  0.00    +0.151 HD
BRANCH  10  24
ATOM     24  C   UNL     1      -1.733  -4.590   1.137  0.00  0.00    +0.132 C 
BRANCH  24  27
ATOM     27  C   UNL     1      -3.095  -4.041   0.869  0.00  0.00    -0.016 C 
ATOM     28  C   UNL     1      -4.087  -4.037   1.767  0.00  0.00    +0.005 C 
ENDBRANCH  24  27
ENDBRANCH  10  24
ENDBRANCH  12   8
BRANCH  11  15
ATOM      2  O   UNL     1       0.650   1.018   0.902  0.00  0.00    -0.274 OA
ATOM      9  N   UNL     1      -0.955   1.306  -0.760  0.00  0.00    -0.301 N 
ATOM     15  C   UNL     1       0.308   1.007  -0.278  0.00  0.00    +0.234 C 
ATOM     30  H   UNL     1      -1.091   1.352  -1.765  0.00  0.00    +0.150 HD
BRANCH   9  17
ATOM     17  C   UNL     1      -2.059   1.679   0.094  0.00  0.00    +0.184 C 
BRANCH  17  18
ATOM     18  C   UNL     1      -3.424   1.243  -0.481  0.00  0.00    +0.014 C 
ATOM     22  C   UNL     1      -3.779   2.046  -1.736  0.00  0.00    +0.009 C 
ATOM     23  C   UNL     1      -3.502  -0.258  -0.782  0.00  0.00    +0.009 C 
ENDBRANCH  17  18
BRANCH  17  21
ATOM      6  O   UNL     1      -1.244   3.948  -0.096  0.00  0.00    -0.249 OA
ATOM     21  C   UNL     1      -2.043   3.170   0.414  0.00  0.00    +0.328 C 
BRANCH  21   5
ATOM      5  O   UNL     1      -3.005   3.514   1.316  0.00  0.00    -0.467 OA
ATOM     26  C   UNL     1      -3.057   4.899   1.673  0.00  0.00    +0.280 C 
ENDBRANCH  21   5
ENDBRANCH  17  21
ENDBRANCH   9  17
ENDBRANCH  11  15
BRANCH  16  19
ATOM     19  C   UNL     1       4.797   0.781   0.060  0.00  0.00    +0.164 C 
BRANCH  19   1
ATOM      1  S   UNL     1       4.742   0.388   1.815  0.00  0.00    -0.155 S 
ATOM     25  C   UNL     1       6.452  -0.162   2.032  0.00  0.00    +0.085 C 
ENDBRANCH  19   1
ENDBRANCH  16  19
TORSDOF 10
