REMARK  Name = 45783953
REMARK  3 active torsions:
REMARK  status: ('A' for Active; 'I' for Inactive)
REMARK    1  A    between atoms: C_5  and  C_9
REMARK    2  A    between atoms: C_8  and  C_13
REMARK    3  A    between atoms: C_18  and  C_20
REMARK                            x       y       z     vdW  Elec       q    Type
REMARK                         _______ _______ _______ _____ _____    ______ ____
ROOT
ATOM      1  O   UNL     1       4.179   0.413  -1.596  0.00  0.00    -0.275 OA
ATOM      3  N   UNL     1       2.647  -0.705  -0.269  0.00  0.00    -0.300 N 
ATOM      8  C   UNL     1       0.747  -1.803   0.652  0.00  0.00    +0.094 C 
ATOM      9  C   UNL     1       3.662   0.207  -0.501  0.00  0.00    +0.219 C 
ATOM     10  C   UNL     1       1.985  -0.967   1.007  0.00  0.00    +0.120 C 
ATOM     11  C   UNL     1       2.086  -1.524  -1.332  0.00  0.00    +0.108 C 
ATOM     12  C   UNL     1       1.210  -2.541  -0.614  0.00  0.00    +0.033 C 
ENDROOT
BRANCH   8  13
ATOM      2  O   UNL     1      -1.696  -1.724   0.645  0.00  0.00    -0.439 OA
ATOM      4  N   UNL     1      -0.692   0.206   0.007  0.00  0.00    -0.213 NA
ATOM     13  C   UNL     1      -0.543  -1.036   0.411  0.00  0.00    +0.201 A 
ATOM     14  C   UNL     1      -2.057   0.363  -0.034  0.00  0.00    +0.110 A 
ATOM     15  C   UNL     1      -2.674  -0.817   0.356  0.00  0.00    +0.155 A 
ATOM     16  C   UNL     1      -2.854   1.461  -0.387  0.00  0.00    +0.035 A 
ATOM     17  C   UNL     1      -4.049  -1.004   0.428  0.00  0.00    +0.049 A 
ATOM     18  C   UNL     1      -4.247   1.310  -0.327  0.00  0.00    -0.048 A 
ATOM     19  C   UNL     1      -4.830   0.101   0.073  0.00  0.00    +0.007 A 
ATOM     20  C   UNL     1      -5.124   2.461  -0.697  0.00  0.00    +0.044 C 
ENDBRANCH   8  13
BRANCH   9   5
ATOM      5  C   UNL     1       4.128   1.003   0.675  0.00  0.00    +0.075 C 
ATOM      6  C   UNL     1       4.744   2.351   0.445  0.00  0.00    +0.013 C 
ATOM      7  C   UNL     1       3.380   2.245   1.060  0.00  0.00    +0.013 C 
ENDBRANCH   9   5
TORSDOF 2
