REMARK  Name = 45784373
REMARK  11 active torsions:
REMARK  status: ('A' for Active; 'I' for Inactive)
REMARK    1  A    between atoms: O_1  and  C_10
REMARK    2  A    between atoms: O_4  and  C_26
REMARK    3  A    between atoms: O_4  and  C_29
REMARK    4  A    between atoms: N_5  and  C_14
REMARK    5  A    between atoms: N_6  and  C_23
REMARK    6  A    between atoms: C_7  and  C_17
REMARK    7  A    between atoms: C_9  and  C_19
REMARK    8  A    between atoms: C_12  and  C_18
REMARK    9  A    between atoms: C_18  and  C_20
REMARK   10  A    between atoms: C_18  and  C_21
REMARK   11  A    between atoms: C_22  and  C_26
REMARK                            x       y       z     vdW  Elec       q    Type
REMARK                         _______ _______ _______ _____ _____    ______ ____
ROOT
ATOM      7  C   UNL     1      -1.029  -0.355  -1.524  0.00  0.00    -0.027 C 
ATOM      8  C   UNL     1      -0.914  -0.381   0.037  0.00  0.00    +0.028 C 
ATOM      9  C   UNL     1       0.538  -0.777   0.484  0.00  0.00    +0.012 C 
ATOM     10  C   UNL     1      -2.061  -1.217   0.673  0.00  0.00    +0.122 C 
ATOM     11  C   UNL     1      -2.435   0.147  -1.930  0.00  0.00    +0.007 C 
ATOM     12  C   UNL     1      -3.461  -0.778   0.182  0.00  0.00    +0.029 C 
ATOM     13  C   UNL     1       0.009   0.642  -2.090  0.00  0.00    +0.009 C 
ATOM     14  C   UNL     1       1.579   0.187  -0.152  0.00  0.00    +0.076 C 
ATOM     15  C   UNL     1      -3.559  -0.694  -1.341  0.00  0.00    +0.007 C 
ATOM     16  C   UNL     1       1.435   0.324  -1.667  0.00  0.00    +0.023 C 
ATOM     17  C   UNL     1      -0.796  -1.750  -2.159  0.00  0.00    +0.011 C 
ATOM     19  C   UNL     1       0.730  -0.793   2.010  0.00  0.00    +0.010 C 
ENDROOT
BRANCH  14   5
ATOM      3  O   UNL     1       3.879   1.907   0.197  0.00  0.00    -0.272 OA
ATOM      5  N   UNL     1       2.937  -0.218   0.146  0.00  0.00    -0.309 N 
ATOM     22  C   UNL     1       3.974   0.687   0.295  0.00  0.00    +0.251 C 
ATOM     35  H   UNL     1       3.140  -1.213   0.184  0.00  0.00    +0.149 HD
BRANCH  22  26
ATOM     26  C   UNL     1       5.282  -0.011   0.602  0.00  0.00    +0.324 C 
BRANCH  26   4
ATOM      4  O   UNL     1       6.323   0.930   0.763  0.00  0.00    -0.483 OA
BRANCH   4  29
ATOM     29  C   UNL     1       7.592   0.526   0.423  0.00  0.00    +0.121 A 
ATOM     30  C   UNL     1       7.954  -0.816   0.548  0.00  0.00    +0.045 A 
ATOM     31  C   UNL     1       8.518   1.457  -0.047  0.00  0.00    +0.045 A 
ATOM     32  C   UNL     1       9.242  -1.226   0.203  0.00  0.00    +0.004 A 
ATOM     33  C   UNL     1       9.806   1.047  -0.393  0.00  0.00    +0.004 A 
ATOM     34  C   UNL     1      10.168  -0.294  -0.267  0.00  0.00    +0.000 A 
ENDBRANCH   4  29
ENDBRANCH  26   4
ENDBRANCH  22  26
ENDBRANCH  14   5
BRANCH  10   1
ATOM      1  O   UNL     1      -2.051  -1.040   2.090  0.00  0.00    -0.391 OA
ATOM     36  H   UNL     1      -2.178  -0.095   2.278  0.00  0.00    +0.210 HD
ENDBRANCH  10   1
BRANCH  12  18
ATOM     18  C   UNL     1      -4.566  -1.697   0.718  0.00  0.00    +0.077 C 
ATOM     20  C   UNL     1      -4.322  -3.131   0.261  0.00  0.00    +0.017 C 
BRANCH  18  21
ATOM      2  O   UNL     1      -6.702  -1.876  -0.408  0.00  0.00    -0.276 OA
ATOM      6  N   UNL     1      -6.183   0.107   0.678  0.00  0.00    -0.312 N 
ATOM     21  C   UNL     1      -5.930  -1.191   0.259  0.00  0.00    +0.216 C 
ATOM     37  H   UNL     1      -5.499   0.594   1.248  0.00  0.00    +0.149 HD
BRANCH   6  23
ATOM     23  C   UNL     1      -7.407   0.802   0.365  0.00  0.00    +0.073 C 
ATOM     24  C   UNL     1      -7.746   1.857   1.412  0.00  0.00    +0.022 C 
ATOM     25  C   UNL     1      -7.278   1.624  -0.911  0.00  0.00    +0.022 C 
ATOM     27  C   UNL     1      -6.931   3.086   1.013  0.00  0.00    +0.002 C 
ATOM     28  C   UNL     1      -6.595   2.915  -0.469  0.00  0.00    +0.002 C 
ENDBRANCH   6  23
ENDBRANCH  18  21
ENDBRANCH  12  18
TORSDOF 8
