REMARK  Name = 26743096
REMARK  8 active torsions:
REMARK  status: ('A' for Active; 'I' for Inactive)
REMARK    1  A    between atoms: S_1  and  C_21
REMARK    2  A    between atoms: S_1  and  C_22
REMARK    3  A    between atoms: N_4  and  C_9
REMARK    4  A    between atoms: C_7  and  C_13
REMARK    5  A    between atoms: C_8  and  C_16
REMARK    6  A    between atoms: C_13  and  C_17
REMARK    7  A    between atoms: C_16  and  C_18
REMARK    8  A    between atoms: C_20  and  C_21
REMARK                            x       y       z     vdW  Elec       q    Type
REMARK                         _______ _______ _______ _____ _____    ______ ____
ROOT
ATOM      5  N   UNL     1       0.550   2.022  -0.497  0.00  0.00    -0.316 NA
ATOM      7  C   UNL     1       2.096  -0.458  -0.905  0.00  0.00    +0.004 C 
ATOM      8  C   UNL     1       0.600  -0.461  -0.513  0.00  0.00    +0.012 C 
ATOM     10  C   UNL     1       2.427   0.867  -1.612  0.00  0.00    +0.019 C 
ATOM     14  C   UNL     1       0.211   0.814   0.256  0.00  0.00    +0.085 C 
ATOM     15  C   UNL     1       1.976   2.086  -0.809  0.00  0.00    +0.081 C 
ATOM     29  H   UNL     1       0.285   2.843   0.047  0.00  0.00    +0.122 HD
ENDROOT
BRANCH   7  13
ATOM     13  C   UNL     1       3.050  -0.701   0.271  0.00  0.00    +0.099 C 
BRANCH  13  17
ATOM      2  O   UNL     1       4.876  -1.054  -1.279  0.00  0.00    -0.276 OA
ATOM      4  N   UNL     1       5.335  -0.285   0.862  0.00  0.00    -0.312 N 
ATOM     17  C   UNL     1       4.500  -0.711  -0.162  0.00  0.00    +0.214 C 
ATOM     28  H   UNL     1       4.944  -0.034   1.766  0.00  0.00    +0.149 HD
BRANCH   4   9
ATOM      9  C   UNL     1       6.759  -0.201   0.712  0.00  0.00    +0.073 C 
ATOM     11  C   UNL     1       7.405   1.007   0.100  0.00  0.00    +0.024 C 
ATOM     12  C   UNL     1       7.577   0.725   1.563  0.00  0.00    +0.024 C 
ENDBRANCH   4   9
ENDBRANCH  13  17
ENDBRANCH   7  13
BRANCH   8  16
ATOM     16  C   UNL     1       0.188  -1.708   0.272  0.00  0.00    +0.064 C 
BRANCH  16  18
ATOM      3  O   UNL     1      -3.151  -2.729  -0.606  0.00  0.00    -0.359 OA
ATOM      6  N   UNL     1      -1.777  -2.709  -0.812  0.00  0.00    -0.083 NA
ATOM     18  C   UNL     1      -1.290  -1.951   0.175  0.00  0.00    +0.084 A 
ATOM     19  C   UNL     1      -2.300  -1.470   1.027  0.00  0.00    +0.071 A 
ATOM     20  C   UNL     1      -3.450  -1.988   0.492  0.00  0.00    +0.148 A 
BRANCH  20  21
ATOM     21  C   UNL     1      -4.869  -1.901   0.857  0.00  0.00    +0.151 C 
BRANCH  21   1
ATOM      1  S   UNL     1      -5.819  -0.759  -0.209  0.00  0.00    -0.117 S 
BRANCH   1  22
ATOM     22  C   UNL     1      -4.881   0.750  -0.015  0.00  0.00    +0.008 A 
ATOM     23  C   UNL     1      -4.731   1.320   1.249  0.00  0.00    +0.015 A 
ATOM     24  C   UNL     1      -4.300   1.357  -1.128  0.00  0.00    +0.015 A 
ATOM     25  C   UNL     1      -3.999   2.498   1.400  0.00  0.00    +0.001 A 
ATOM     26  C   UNL     1      -3.568   2.535  -0.977  0.00  0.00    +0.001 A 
ATOM     27  C   UNL     1      -3.418   3.105   0.288  0.00  0.00    +0.000 A 
ENDBRANCH   1  22
ENDBRANCH  21   1
ENDBRANCH  20  21
ENDBRANCH  16  18
ENDBRANCH   8  16
TORSDOF 8
