REMARK  Name = 26743234
REMARK  9 active torsions:
REMARK  status: ('A' for Active; 'I' for Inactive)
REMARK    1  A    between atoms: N_6  and  C_26
REMARK    2  A    between atoms: N_7  and  C_27
REMARK    3  A    between atoms: C_8  and  C_12
REMARK    4  A    between atoms: C_9  and  C_15
REMARK    5  A    between atoms: C_12  and  C_22
REMARK    6  A    between atoms: C_13  and  C_18
REMARK    7  A    between atoms: C_15  and  C_24
REMARK    8  A    between atoms: C_18  and  C_23
REMARK    9  A    between atoms: C_26  and  C_27
REMARK                            x       y       z     vdW  Elec       q    Type
REMARK                         _______ _______ _______ _____ _____    ______ ____
ROOT
ATOM      4  N   UNL     1       5.431  -2.809  -0.904  0.00  0.00    -0.316 NA
ATOM      8  C   UNL     1       4.232  -0.948   0.222  0.00  0.00    +0.012 C 
ATOM      9  C   UNL     1       2.959  -1.224  -0.613  0.00  0.00    +0.004 C 
ATOM     10  C   UNL     1       3.358  -1.928  -1.920  0.00  0.00    +0.019 C 
ATOM     11  C   UNL     1       5.088  -2.215   0.389  0.00  0.00    +0.085 C 
ATOM     14  C   UNL     1       4.239  -3.153  -1.678  0.00  0.00    +0.081 C 
ATOM     32  H   UNL     1       5.989  -3.648  -0.753  0.00  0.00    +0.122 HD
ENDROOT
BRANCH   8  12
ATOM     12  C   UNL     1       3.932  -0.319   1.583  0.00  0.00    +0.064 C 
BRANCH  12  22
ATOM      1  O   UNL     1       2.865   3.098   1.204  0.00  0.00    -0.359 OA
ATOM      5  N   UNL     1       3.848   2.122   1.324  0.00  0.00    -0.083 NA
ATOM     22  C   UNL     1       3.179   0.971   1.436  0.00  0.00    +0.084 A 
ATOM     23  C   UNL     1       1.642   2.511   1.247  0.00  0.00    +0.138 A 
ATOM     25  C   UNL     1       1.786   1.156   1.394  0.00  0.00    +0.071 A 
BRANCH  23  18
ATOM     18  C   UNL     1       0.482   3.403   1.133  0.00  0.00    +0.080 C 
BRANCH  18  13
ATOM     13  C   UNL     1      -0.164   3.374  -0.250  0.00  0.00    -0.004 C 
ATOM     16  C   UNL     1      -1.041   2.126  -0.413  0.00  0.00    +0.004 C 
ATOM     17  C   UNL     1      -0.981   4.651  -0.493  0.00  0.00    +0.004 C 
ATOM     19  C   UNL     1      -1.742   2.102  -1.770  0.00  0.00    +0.000 C 
ATOM     20  C   UNL     1      -1.681   4.623  -1.849  0.00  0.00    +0.000 C 
ATOM     21  C   UNL     1      -2.545   3.376  -2.011  0.00  0.00    +0.000 C 
ENDBRANCH  18  13
ENDBRANCH  23  18
ENDBRANCH  12  22
ENDBRANCH   8  12
BRANCH   9  15
ATOM     15  C   UNL     1       1.886  -2.026   0.133  0.00  0.00    +0.099 C 
BRANCH  15  24
ATOM      2  O   UNL     1       0.287  -1.132  -1.448  0.00  0.00    -0.276 OA
ATOM      6  N   UNL     1      -0.438  -2.601   0.201  0.00  0.00    -0.314 N 
ATOM     24  C   UNL     1       0.512  -1.851  -0.478  0.00  0.00    +0.213 C 
ATOM     33  H   UNL     1      -0.151  -3.158   1.001  0.00  0.00    +0.149 HD
BRANCH   6  26
ATOM     26  C   UNL     1      -1.835  -2.623  -0.165  0.00  0.00    +0.119 C 
BRANCH  26  27
ATOM     27  C   UNL     1      -2.628  -1.544   0.553  0.00  0.00    +0.103 C 
BRANCH  27   7
ATOM      3  O   UNL     1      -6.813  -1.472   0.861  0.00  0.00    -0.377 OA
ATOM      7  N   UNL     1      -4.046  -1.576   0.201  0.00  0.00    -0.297 NA
ATOM     28  C   UNL     1      -4.703  -0.312   0.565  0.00  0.00    +0.112 C 
ATOM     29  C   UNL     1      -4.723  -2.702   0.860  0.00  0.00    +0.112 C 
ATOM     30  C   UNL     1      -6.183  -0.373   0.201  0.00  0.00    +0.175 C 
ATOM     31  C   UNL     1      -6.202  -2.707   0.487  0.00  0.00    +0.175 C 
ENDBRANCH  27   7
ENDBRANCH  26  27
ENDBRANCH   6  26
ENDBRANCH  15  24
ENDBRANCH   9  15
TORSDOF 9
