REMARK  Name = 28962806
REMARK  12 active torsions:
REMARK  status: ('A' for Active; 'I' for Inactive)
REMARK    1  A    between atoms: O_2  and  C_10
REMARK    2  A    between atoms: N_5  and  C_14
REMARK    3  A    between atoms: N_6  and  C_24
REMARK    4  A    between atoms: N_6  and  C_25
REMARK    5  A    between atoms: C_7  and  C_17
REMARK    6  A    between atoms: C_9  and  C_19
REMARK    7  A    between atoms: C_12  and  C_18
REMARK    8  A    between atoms: C_18  and  C_20
REMARK    9  A    between atoms: C_18  and  C_21
REMARK   10  A    between atoms: C_22  and  C_23
REMARK   11  A    between atoms: C_24  and  C_26
REMARK   12  A    between atoms: C_25  and  C_27
REMARK                            x       y       z     vdW  Elec       q    Type
REMARK                         _______ _______ _______ _____ _____    ______ ____
ROOT
ATOM      7  C   UNL     1       0.695  -1.737  -0.608  0.00  0.00    -0.027 C 
ATOM      8  C   UNL     1       0.562  -0.303   0.005  0.00  0.00    +0.028 C 
ATOM      9  C   UNL     1      -0.891   0.259  -0.197  0.00  0.00    +0.012 C 
ATOM     10  C   UNL     1       1.711   0.627  -0.480  0.00  0.00    +0.122 C 
ATOM     11  C   UNL     1       2.099  -2.304  -0.293  0.00  0.00    +0.007 C 
ATOM     12  C   UNL     1       3.111   0.008  -0.257  0.00  0.00    +0.029 C 
ATOM     13  C   UNL     1      -0.348  -2.667   0.055  0.00  0.00    +0.009 C 
ATOM     14  C   UNL     1      -1.936  -0.722   0.407  0.00  0.00    +0.076 C 
ATOM     15  C   UNL     1       3.227  -1.416  -0.801  0.00  0.00    +0.007 C 
ATOM     16  C   UNL     1      -1.776  -2.159  -0.086  0.00  0.00    +0.023 C 
ATOM     17  C   UNL     1       0.486  -1.748  -2.143  0.00  0.00    +0.011 C 
ATOM     19  C   UNL     1      -1.101   1.657   0.409  0.00  0.00    +0.010 C 
ENDROOT
BRANCH  14   5
ATOM      4  O   UNL     1      -4.230  -1.128   2.086  0.00  0.00    -0.270 OA
ATOM      5  N   UNL     1      -3.292  -0.293   0.137  0.00  0.00    -0.308 N 
ATOM     22  C   UNL     1      -4.335  -0.538   1.014  0.00  0.00    +0.244 C 
ATOM     33  H   UNL     1      -3.475   0.098  -0.782  0.00  0.00    +0.149 HD
BRANCH  22  23
ATOM      1  F   UNL     1      -7.125   2.525  -1.533  0.00  0.00    -0.205 F 
ATOM     23  C   UNL     1      -5.671  -0.057   0.578  0.00  0.00    +0.039 A 
ATOM     28  C   UNL     1      -5.773   1.030  -0.290  0.00  0.00    +0.051 A 
ATOM     29  C   UNL     1      -6.825  -0.692   1.038  0.00  0.00    +0.013 A 
ATOM     30  C   UNL     1      -7.027   1.482  -0.699  0.00  0.00    +0.124 A 
ATOM     31  C   UNL     1      -8.080  -0.240   0.629  0.00  0.00    +0.004 A 
ATOM     32  C   UNL     1      -8.181   0.846  -0.240  0.00  0.00    +0.038 A 
ENDBRANCH  22  23
ENDBRANCH  14   5
BRANCH  10   2
ATOM      2  O   UNL     1       1.682   1.848   0.260  0.00  0.00    -0.391 OA
ATOM     34  H   UNL     1       1.803   1.634   1.201  0.00  0.00    +0.210 HD
ENDBRANCH  10   2
BRANCH  12  18
ATOM     18  C   UNL     1       4.220   0.879  -0.860  0.00  0.00    +0.078 C 
ATOM     20  C   UNL     1       3.998   1.017  -2.367  0.00  0.00    +0.017 C 
BRANCH  18  21
ATOM      3  O   UNL     1       6.064  -0.569  -1.347  0.00  0.00    -0.275 OA
ATOM      6  N   UNL     1       6.235   0.642   0.618  0.00  0.00    -0.302 N 
ATOM     21  C   UNL     1       5.587   0.257  -0.561  0.00  0.00    +0.219 C 
BRANCH   6  24
ATOM     24  C   UNL     1       7.529   0.052   0.944  0.00  0.00    +0.104 C 
ATOM     26  C   UNL     1       7.371  -1.212   1.764  0.00  0.00    +0.024 C 
ENDBRANCH   6  24
BRANCH   6  25
ATOM     25  C   UNL     1       5.757   1.634   1.579  0.00  0.00    +0.104 C 
ATOM     27  C   UNL     1       6.258   3.022   1.239  0.00  0.00    +0.024 C 
ENDBRANCH   6  25
ENDBRANCH  18  21
ENDBRANCH  12  18
TORSDOF 7
