REMARK  Name = 45361606
REMARK  9 active torsions:
REMARK  status: ('A' for Active; 'I' for Inactive)
REMARK    1  A    between atoms: O_1  and  C_10
REMARK    2  A    between atoms: N_4  and  C_14
REMARK    3  A    between atoms: N_5  and  C_22
REMARK    4  A    between atoms: C_7  and  C_17
REMARK    5  A    between atoms: C_9  and  C_19
REMARK    6  A    between atoms: C_12  and  C_18
REMARK    7  A    between atoms: C_18  and  C_20
REMARK    8  A    between atoms: C_18  and  C_21
REMARK    9  A    between atoms: C_25  and  C_26
REMARK                            x       y       z     vdW  Elec       q    Type
REMARK                         _______ _______ _______ _____ _____    ______ ____
ROOT
ATOM      7  C   UNL     1       0.603   1.364   0.939  0.00  0.00    -0.027 C 
ATOM      8  C   UNL     1       0.455   0.079   0.058  0.00  0.00    +0.028 C 
ATOM      9  C   UNL     1      -1.000  -0.505   0.160  0.00  0.00    +0.012 C 
ATOM     10  C   UNL     1       1.603  -0.933   0.340  0.00  0.00    +0.122 C 
ATOM     11  C   UNL     1       2.007   1.976   0.728  0.00  0.00    +0.007 C 
ATOM     12  C   UNL     1       3.004  -0.288   0.229  0.00  0.00    +0.029 C 
ATOM     13  C   UNL     1      -0.440   2.410   0.483  0.00  0.00    +0.009 C 
ATOM     14  C   UNL     1      -2.044   0.579  -0.228  0.00  0.00    +0.076 C 
ATOM     15  C   UNL     1       3.134   1.000   1.041  0.00  0.00    +0.007 C 
ATOM     16  C   UNL     1      -1.870   1.892   0.535  0.00  0.00    +0.023 C 
ATOM     17  C   UNL     1       0.408   1.074   2.449  0.00  0.00    +0.011 C 
ATOM     19  C   UNL     1      -1.224  -1.756  -0.706  0.00  0.00    +0.010 C 
ENDROOT
BRANCH  14   4
ATOM      3  O   UNL     1      -4.350   1.318  -1.772  0.00  0.00    -0.269 OA
ATOM      4  N   UNL     1      -3.400   0.112  -0.034  0.00  0.00    -0.307 N 
ATOM     25  C   UNL     1      -4.449   0.529  -0.835  0.00  0.00    +0.263 C 
ATOM     31  H   UNL     1      -3.591  -0.499   0.755  0.00  0.00    +0.149 HD
BRANCH  25  26
ATOM      6  N   UNL     1      -5.815  -0.865   0.568  0.00  0.00    -0.250 NA
ATOM     26  C   UNL     1      -5.785  -0.022  -0.489  0.00  0.00    +0.125 A 
ATOM     27  C   UNL     1      -6.900   0.333  -1.230  0.00  0.00    +0.033 A 
ATOM     28  C   UNL     1      -8.126  -0.210  -0.863  0.00  0.00    +0.004 A 
ATOM     29  C   UNL     1      -7.024  -1.373   0.895  0.00  0.00    +0.111 A 
ATOM     30  C   UNL     1      -8.198  -1.081   0.219  0.00  0.00    +0.020 A 
ENDBRANCH  25  26
ENDBRANCH  14   4
BRANCH  10   1
ATOM      1  O   UNL     1       1.559  -1.985  -0.626  0.00  0.00    -0.391 OA
ATOM     32  H   UNL     1       1.668  -1.590  -1.508  0.00  0.00    +0.210 HD
ENDBRANCH  10   1
BRANCH  12  18
ATOM     18  C   UNL     1       4.114  -1.265   0.637  0.00  0.00    +0.077 C 
ATOM     21  C   UNL     1       3.914  -1.712   2.081  0.00  0.00    +0.017 C 
BRANCH  18  20
ATOM      2  O   UNL     1       6.068  -0.023   1.361  0.00  0.00    -0.276 OA
ATOM      5  N   UNL     1       5.995  -0.813  -0.817  0.00  0.00    -0.312 N 
ATOM     20  C   UNL     1       5.489  -0.630   0.462  0.00  0.00    +0.216 C 
ATOM     33  H   UNL     1       5.453  -1.324  -1.508  0.00  0.00    +0.149 HD
BRANCH   5  22
ATOM     22  C   UNL     1       7.272  -0.299  -1.222  0.00  0.00    +0.073 C 
ATOM     23  C   UNL     1       7.576  -0.021  -2.665  0.00  0.00    +0.024 C 
ATOM     24  C   UNL     1       7.424   1.116  -1.697  0.00  0.00    +0.024 C 
ENDBRANCH   5  22
ENDBRANCH  18  20
ENDBRANCH  12  18
TORSDOF 6
