REMARK  Name = 51136858
REMARK  5 active torsions:
REMARK  status: ('A' for Active; 'I' for Inactive)
REMARK    1  A    between atoms: N_2  and  C_13
REMARK    2  A    between atoms: N_4  and  C_22
REMARK    3  A    between atoms: C_9  and  C_14
REMARK    4  A    between atoms: C_13  and  C_19
REMARK    5  A    between atoms: C_21  and  C_24
REMARK                            x       y       z     vdW  Elec       q    Type
REMARK                         _______ _______ _______ _____ _____    ______ ____
ROOT
ATOM      1  O   UNL     1      -2.667  -0.331   2.013  0.00  0.00    -0.336 OA
ATOM      5  N   UNL     1      -1.664  -1.124   0.174  0.00  0.00    -0.190 NA
ATOM      6  N   UNL     1      -1.306  -0.030   2.151  0.00  0.00    -0.056 NA
ATOM     14  C   UNL     1      -2.791  -0.975   0.823  0.00  0.00    +0.245 A 
ATOM     21  C   UNL     1      -0.781  -0.529   1.028  0.00  0.00    +0.204 A 
ENDROOT
BRANCH  21  24
ATOM      3  N   UNL     1       4.663  -0.181  -0.049  0.00  0.00    -0.313 N 
ATOM      4  N   UNL     1       7.499  -0.041  -0.362  0.00  0.00    -0.302 NA
ATOM      7  N   UNL     1       2.833   0.264   1.385  0.00  0.00    -0.240 NA
ATOM     15  C   UNL     1       5.407   0.968   0.483  0.00  0.00    +0.122 C 
ATOM     16  C   UNL     1       5.443  -1.408  -0.238  0.00  0.00    +0.122 C 
ATOM     17  C   UNL     1       6.697   1.187  -0.311  0.00  0.00    +0.103 C 
ATOM     18  C   UNL     1       6.732  -1.113  -1.008  0.00  0.00    +0.103 C 
ATOM     20  C   UNL     1       3.295  -0.264   0.229  0.00  0.00    +0.121 A 
ATOM     22  C   UNL     1       8.754   0.195  -1.076  0.00  0.00    +0.105 C 
ATOM     24  C   UNL     1       0.618  -0.451   0.729  0.00  0.00    +0.041 A 
ATOM     26  C   UNL     1       2.493  -0.891  -0.712  0.00  0.00    +0.044 A 
ATOM     27  C   UNL     1       1.131  -0.982  -0.449  0.00  0.00    +0.016 A 
ATOM     28  C   UNL     1       1.504   0.157   1.605  0.00  0.00    +0.124 A 
ENDBRANCH  21  24
BRANCH  14   9
ATOM      2  N   UNL     1      -4.618  -0.853  -0.863  0.00  0.00    -0.287 NA
ATOM      9  C   UNL     1      -4.188  -1.412   0.435  0.00  0.00    +0.146 C 
ATOM     10  C   UNL     1      -4.307  -2.937   0.262  0.00  0.00    +0.030 C 
ATOM     11  C   UNL     1      -4.868  -3.136  -1.139  0.00  0.00    +0.017 C 
ATOM     12  C   UNL     1      -5.553  -1.818  -1.440  0.00  0.00    +0.085 C 
BRANCH   2  13
ATOM     13  C   UNL     1      -5.203   0.477  -0.749  0.00  0.00    +0.121 C 
BRANCH  13  19
ATOM      8  N   UNL     1      -3.192   3.365   0.645  0.00  0.00    -0.263 NA
ATOM     19  C   UNL     1      -4.149   1.545  -0.626  0.00  0.00    -0.015 A 
ATOM     23  C   UNL     1      -3.183   1.716  -1.612  0.00  0.00    +0.008 A 
ATOM     25  C   UNL     1      -4.110   2.388   0.473  0.00  0.00    +0.115 A 
ATOM     29  C   UNL     1      -2.222   2.711  -1.470  0.00  0.00    +0.020 A 
ATOM     30  C   UNL     1      -2.269   3.502  -0.333  0.00  0.00    +0.111 A 
ENDBRANCH  13  19
ENDBRANCH   2  13
ENDBRANCH  14   9
TORSDOF 4
