REMARK  Name = 45783555
REMARK  11 active torsions:
REMARK  status: ('A' for Active; 'I' for Inactive)
REMARK    1  A    between atoms: O_2  and  C_22
REMARK    2  A    between atoms: O_2  and  C_23
REMARK    3  A    between atoms: O_3  and  C_24
REMARK    4  A    between atoms: O_3  and  C_25
REMARK    5  A    between atoms: N_4  and  C_12
REMARK    6  A    between atoms: C_8  and  C_14
REMARK    7  A    between atoms: C_12  and  C_13
REMARK    8  A    between atoms: C_13  and  C_15
REMARK    9  A    between atoms: C_13  and  C_16
REMARK   10  A    between atoms: C_17  and  C_18
REMARK   11  A    between atoms: C_23  and  C_24
REMARK                            x       y       z     vdW  Elec       q    Type
REMARK                         _______ _______ _______ _____ _____    ______ ____
ROOT
ATOM      1  O   UNL     1      -2.288  -0.073  -2.044  0.00  0.00    -0.336 OA
ATOM      5  N   UNL     1      -1.464   0.702  -0.111  0.00  0.00    -0.190 NA
ATOM      6  N   UNL     1      -0.913  -0.339  -2.072  0.00  0.00    -0.056 NA
ATOM     14  C   UNL     1      -2.528   0.540  -0.856  0.00  0.00    +0.245 A 
ATOM     17  C   UNL     1      -0.498   0.147  -0.899  0.00  0.00    +0.204 A 
ENDROOT
BRANCH  17  18
ATOM      7  N   UNL     1       3.154  -0.552  -0.962  0.00  0.00    -0.221 NA
ATOM     18  C   UNL     1       0.875   0.096  -0.484  0.00  0.00    +0.041 A 
ATOM     19  C   UNL     1       1.271   0.613   0.745  0.00  0.00    +0.018 A 
ATOM     20  C   UNL     1       1.846  -0.471  -1.293  0.00  0.00    +0.126 A 
ATOM     21  C   UNL     1       2.608   0.548   1.121  0.00  0.00    +0.068 A 
ATOM     22  C   UNL     1       3.502  -0.039   0.240  0.00  0.00    +0.215 A 
BRANCH  22   2
ATOM      2  O   UNL     1       4.825  -0.115   0.588  0.00  0.00    -0.474 OA
BRANCH   2  23
ATOM     23  C   UNL     1       5.700  -0.727  -0.352  0.00  0.00    +0.258 C 
BRANCH  23  24
ATOM     24  C   UNL     1       7.114  -0.697   0.195  0.00  0.00    +0.200 C 
BRANCH  24   3
ATOM      3  O   UNL     1       7.509   0.656   0.387  0.00  0.00    -0.380 OA
ATOM     25  C   UNL     1       8.822   0.745   0.921  0.00  0.00    +0.194 C 
ENDBRANCH  24   3
ENDBRANCH  23  24
ENDBRANCH   2  23
ENDBRANCH  22   2
ENDBRANCH  17  18
BRANCH  14   8
ATOM      4  N   UNL     1      -4.487   0.337   0.666  0.00  0.00    -0.291 NA
ATOM      8  C   UNL     1      -3.964   0.935  -0.579  0.00  0.00    +0.146 C 
ATOM      9  C   UNL     1      -4.136   2.453  -0.386  0.00  0.00    +0.030 C 
ATOM     10  C   UNL     1      -5.492   1.267   1.181  0.00  0.00    +0.085 C 
ATOM     11  C   UNL     1      -4.818   2.607   0.966  0.00  0.00    +0.017 C 
BRANCH   4  12
ATOM     12  C   UNL     1      -5.026  -1.004   0.477  0.00  0.00    +0.088 C 
BRANCH  12  13
ATOM     13  C   UNL     1      -3.931  -2.084   0.489  0.00  0.00    -0.003 C 
ATOM     15  C   UNL     1      -3.196  -2.060   1.831  0.00  0.00    +0.008 C 
ATOM     16  C   UNL     1      -4.488  -3.487   0.232  0.00  0.00    +0.008 C 
ENDBRANCH  12  13
ENDBRANCH   4  12
ENDBRANCH  14   8
TORSDOF 8
