REMARK  Name = 45360669
REMARK  8 active torsions:
REMARK  status: ('A' for Active; 'I' for Inactive)
REMARK    1  A    between atoms: N_5  and  C_8
REMARK    2  A    between atoms: N_5  and  C_16
REMARK    3  A    between atoms: N_6  and  C_21
REMARK    4  A    between atoms: C_9  and  C_14
REMARK    5  A    between atoms: C_14  and  C_15
REMARK    6  A    between atoms: C_15  and  C_17
REMARK    7  A    between atoms: C_16  and  C_18
REMARK    8  A    between atoms: C_21  and  C_25
REMARK                            x       y       z     vdW  Elec       q    Type
REMARK                         _______ _______ _______ _____ _____    ______ ____
ROOT
ATOM      1  O   UNL     1      -0.200  -2.155   2.865  0.00  0.00    -0.274 OA
ATOM      3  N   UNL     1      -0.518   0.753   0.682  0.00  0.00    -0.286 NA
ATOM      4  N   UNL     1      -1.031  -0.085   3.311  0.00  0.00    -0.313 N 
ATOM      7  C   UNL     1      -0.381  -0.678   0.982  0.00  0.00    +0.145 C 
ATOM      8  C   UNL     1       1.589   0.262  -0.083  0.00  0.00    +0.070 C 
ATOM      9  C   UNL     1      -1.552   1.432   1.454  0.00  0.00    +0.075 C 
ATOM     10  C   UNL     1       1.013  -1.050   0.452  0.00  0.00    +0.048 C 
ATOM     11  C   UNL     1       0.826   1.327   0.692  0.00  0.00    +0.104 C 
ATOM     12  C   UNL     1      -1.296   1.288   2.946  0.00  0.00    +0.123 C 
ATOM     13  C   UNL     1      -0.505  -1.028   2.461  0.00  0.00    +0.230 C 
ATOM     31  H   UNL     1      -1.129  -0.338   4.289  0.00  0.00    +0.149 HD
ENDROOT
BRANCH   8   5
ATOM      5  N   UNL     1       3.032   0.355   0.071  0.00  0.00    -0.308 NA
ATOM     32  H   UNL     1       3.311   1.335   0.010  0.00  0.00    +0.123 HD
BRANCH   5  16
ATOM     16  C   UNL     1       3.720  -0.396  -0.971  0.00  0.00    +0.116 C 
BRANCH  16  18
ATOM     18  C   UNL     1       5.213  -0.325  -0.823  0.00  0.00    -0.034 A 
ATOM     19  C   UNL     1       5.927   0.695  -1.452  0.00  0.00    +0.005 A 
ATOM     20  C   UNL     1       5.884  -1.278  -0.058  0.00  0.00    +0.005 A 
ATOM     22  C   UNL     1       7.314   0.761  -1.315  0.00  0.00    +0.000 A 
ATOM     23  C   UNL     1       7.271  -1.212   0.079  0.00  0.00    +0.000 A 
ATOM     24  C   UNL     1       7.986  -0.192  -0.549  0.00  0.00    +0.000 A 
ENDBRANCH  16  18
ENDBRANCH   5  16
ENDBRANCH   8   5
BRANCH   9  14
ATOM     14  C   UNL     1      -1.716   2.902   1.065  0.00  0.00    +0.029 C 
BRANCH  14  15
ATOM     15  C   UNL     1      -1.930   3.054  -0.435  0.00  0.00    +0.097 C 
BRANCH  15  17
ATOM      2  O   UNL     1      -4.309   2.606  -0.495  0.00  0.00    -0.276 OA
ATOM      6  N   UNL     1      -2.891   1.364  -1.851  0.00  0.00    -0.311 N 
ATOM     17  C   UNL     1      -3.183   2.340  -0.908  0.00  0.00    +0.213 C 
ATOM     33  H   UNL     1      -1.927   1.188  -2.117  0.00  0.00    +0.149 HD
BRANCH   6  21
ATOM     21  C   UNL     1      -3.915   0.544  -2.454  0.00  0.00    +0.139 C 
BRANCH  21  25
ATOM     25  C   UNL     1      -4.162  -0.713  -1.672  0.00  0.00    -0.030 A 
ATOM     26  C   UNL     1      -3.435  -1.868  -1.960  0.00  0.00    +0.005 A 
ATOM     27  C   UNL     1      -5.118  -0.726  -0.656  0.00  0.00    +0.005 A 
ATOM     28  C   UNL     1      -3.664  -3.036  -1.233  0.00  0.00    +0.000 A 
ATOM     29  C   UNL     1      -5.348  -1.894   0.071  0.00  0.00    +0.000 A 
ATOM     30  C   UNL     1      -4.620  -3.049  -0.217  0.00  0.00    +0.000 A 
ENDBRANCH  21  25
ENDBRANCH   6  21
ENDBRANCH  15  17
ENDBRANCH  14  15
ENDBRANCH   9  14
TORSDOF 8
