REMARK  Name = 45784114
REMARK  12 active torsions:
REMARK  status: ('A' for Active; 'I' for Inactive)
REMARK    1  A    between atoms: N_3  and  C_15
REMARK    2  A    between atoms: N_3  and  C_21
REMARK    3  A    between atoms: N_7  and  C_27
REMARK    4  A    between atoms: C_8  and  C_12
REMARK    5  A    between atoms: C_9  and  C_15
REMARK    6  A    between atoms: C_11  and  C_16
REMARK    7  A    between atoms: C_12  and  C_17
REMARK    8  A    between atoms: C_12  and  C_18
REMARK    9  A    between atoms: C_13  and  C_19
REMARK   10  A    between atoms: C_16  and  C_20
REMARK   11  A    between atoms: C_22  and  C_26
REMARK   12  A    between atoms: C_28  and  C_29
REMARK                            x       y       z     vdW  Elec       q    Type
REMARK                         _______ _______ _______ _____ _____    ______ ____
ROOT
ATOM      8  C   UNL     1      -1.684  -1.082   1.043  0.00  0.00    +0.000 C 
ATOM      9  C   UNL     1      -0.809  -2.244   0.511  0.00  0.00    +0.032 C 
ATOM     10  C   UNL     1      -3.123  -1.211   0.521  0.00  0.00    +0.012 C 
ATOM     11  C   UNL     1      -3.188  -1.205  -1.018  0.00  0.00    +0.024 C 
ATOM     13  C   UNL     1      -2.160  -2.137  -1.628  0.00  0.00    -0.073 C 
ATOM     14  C   UNL     1      -1.112  -2.602  -0.926  0.00  0.00    -0.022 C 
ATOM     19  C   UNL     1      -2.391  -2.560  -3.052  0.00  0.00    +0.039 C 
ENDROOT
BRANCH   8  12
ATOM     12  C   UNL     1      -1.690  -1.030   2.574  0.00  0.00    -0.013 C 
ATOM     17  C   UNL     1      -2.014   0.380   3.057  0.00  0.00    +0.007 C 
ATOM     18  C   UNL     1      -2.688  -2.037   3.137  0.00  0.00    +0.007 C 
ENDBRANCH   8  12
BRANCH   9  15
ATOM     15  C   UNL     1       0.683  -1.925   0.654  0.00  0.00    +0.109 C 
BRANCH  15   3
ATOM      3  N   UNL     1       1.017  -0.807  -0.186  0.00  0.00    -0.342 N 
ATOM     30  H   UNL     1       0.305  -0.392  -0.776  0.00  0.00    +0.146 HD
BRANCH   3  21
ATOM      6  N   UNL     1       4.615  -0.312   0.389  0.00  0.00    -0.238 NA
ATOM     21  C   UNL     1       2.293  -0.267  -0.286  0.00  0.00    +0.046 A 
ATOM     23  C   UNL     1       2.549   0.817  -1.119  0.00  0.00    +0.028 A 
ATOM     24  C   UNL     1       3.351  -0.790   0.440  0.00  0.00    +0.135 A 
ATOM     25  C   UNL     1       3.837   1.337  -1.199  0.00  0.00    +0.045 A 
ATOM     27  C   UNL     1       4.825   0.742  -0.432  0.00  0.00    +0.125 A 
BRANCH  27   7
ATOM      2  O   UNL     1       7.372  -0.078   0.950  0.00  0.00    -0.276 OA
ATOM      7  N   UNL     1       6.118   1.271  -0.520  0.00  0.00    -0.271 N 
ATOM     28  C   UNL     1       7.269   0.846   0.149  0.00  0.00    +0.215 C 
ATOM     29  C   UNL     1       8.469   1.680  -0.225  0.00  0.00    +0.109 C 
ATOM     31  H   UNL     1       6.224   2.062  -1.152  0.00  0.00    +0.156 HD
ENDBRANCH  27   7
ENDBRANCH   3  21
ENDBRANCH  15   3
ENDBRANCH   9  15
BRANCH  11  16
ATOM     16  C   UNL     1      -3.037   0.216  -1.571  0.00  0.00    +0.105 C 
BRANCH  16  20
ATOM      1  O   UNL     1      -3.660   2.001  -0.029  0.00  0.00    -0.425 OA
ATOM      4  N   UNL     1      -5.348   1.251  -1.292  0.00  0.00    -0.112 NA
ATOM      5  N   UNL     1      -5.839   2.250  -0.472  0.00  0.00    -0.113 NA
ATOM     20  C   UNL     1      -4.073   1.140  -0.999  0.00  0.00    +0.218 A 
ATOM     22  C   UNL     1      -4.820   2.659   0.247  0.00  0.00    +0.214 A 
ATOM     26  C   UNL     1      -4.762   3.699   1.282  0.00  0.00    +0.111 C 
ENDBRANCH  16  20
ENDBRANCH  11  16
TORSDOF 7
