REMARK  Name = 26743868
REMARK  12 active torsions:
REMARK  status: ('A' for Active; 'I' for Inactive)
REMARK    1  A    between atoms: O_1  and  C_11
REMARK    2  A    between atoms: O_3  and  C_16
REMARK    3  A    between atoms: O_3  and  C_25
REMARK    4  A    between atoms: O_4  and  C_19
REMARK    5  A    between atoms: O_4  and  C_29
REMARK    6  A    between atoms: O_5  and  C_21
REMARK    7  A    between atoms: O_5  and  C_30
REMARK    8  A    between atoms: N_6  and  C_13
REMARK    9  A    between atoms: C_9  and  C_14
REMARK   10  A    between atoms: C_13  and  C_15
REMARK   11  A    between atoms: C_18  and  C_22
REMARK   12  A    between atoms: C_26  and  C_31
REMARK                            x       y       z     vdW  Elec       q    Type
REMARK                         _______ _______ _______ _____ _____    ______ ____
ROOT
ATOM      6  N   UNL     1       2.972  -0.519   0.140  0.00  0.00    -0.284 NA
ATOM      9  C   UNL     1       2.510  -1.309  -1.020  0.00  0.00    +0.149 C 
ATOM     10  C   UNL     1       3.020  -2.737  -0.751  0.00  0.00    +0.061 C 
ATOM     11  C   UNL     1       3.794  -2.640   0.558  0.00  0.00    +0.130 C 
ATOM     12  C   UNL     1       4.181  -1.175   0.633  0.00  0.00    +0.116 C 
ENDROOT
BRANCH   9  14
ATOM      2  O   UNL     1       0.566  -0.792  -2.407  0.00  0.00    -0.336 OA
ATOM      7  N   UNL     1       0.055  -1.572  -0.370  0.00  0.00    -0.190 NA
ATOM      8  N   UNL     1      -0.833  -0.826  -2.342  0.00  0.00    -0.056 NA
ATOM     14  C   UNL     1       1.009  -1.248  -1.206  0.00  0.00    +0.245 A 
ATOM     18  C   UNL     1      -1.057  -1.296  -1.112  0.00  0.00    +0.202 A 
BRANCH  18  22
ATOM     22  C   UNL     1      -2.378  -1.502  -0.593  0.00  0.00    +0.023 A 
ATOM     23  C   UNL     1      -2.552  -1.996   0.700  0.00  0.00    +0.015 A 
ATOM     24  C   UNL     1      -3.490  -1.208  -1.383  0.00  0.00    +0.012 A 
ATOM     26  C   UNL     1      -3.837  -2.196   1.204  0.00  0.00    -0.050 A 
ATOM     27  C   UNL     1      -4.776  -1.408  -0.878  0.00  0.00    +0.001 A 
ATOM     28  C   UNL     1      -4.949  -1.901   0.415  0.00  0.00    +0.003 A 
ATOM     31  C   UNL     1      -4.023  -2.723   2.586  0.00  0.00    +0.044 C 
ENDBRANCH  18  22
ENDBRANCH   9  14
BRANCH  11   1
ATOM      1  O   UNL     1       4.929  -3.483   0.533  0.00  0.00    -0.390 OA
ATOM     32  H   UNL     1       4.614  -4.394   0.407  0.00  0.00    +0.210 HD
ENDBRANCH  11   1
BRANCH   6  13
ATOM     13  C   UNL     1       3.201   0.885  -0.176  0.00  0.00    +0.124 C 
BRANCH  13  15
ATOM     15  C   UNL     1       1.915   1.668  -0.213  0.00  0.00    +0.012 A 
ATOM     16  C   UNL     1       1.085   1.730   0.906  0.00  0.00    +0.170 A 
ATOM     17  C   UNL     1       1.557   2.336  -1.385  0.00  0.00    +0.012 A 
ATOM     19  C   UNL     1      -0.102   2.460   0.855  0.00  0.00    +0.204 A 
ATOM     20  C   UNL     1       0.370   3.066  -1.436  0.00  0.00    +0.050 A 
ATOM     21  C   UNL     1      -0.460   3.128  -0.317  0.00  0.00    +0.165 A 
BRANCH  16   3
ATOM      3  O   UNL     1       1.433   1.079   2.053  0.00  0.00    -0.491 OA
ATOM     25  C   UNL     1       2.216   1.806   2.997  0.00  0.00    +0.277 C 
ENDBRANCH  16   3
BRANCH  19   4
ATOM      4  O   UNL     1      -0.915   2.521   1.948  0.00  0.00    -0.488 OA
ATOM     29  C   UNL     1      -1.918   1.514   2.064  0.00  0.00    +0.277 C 
ENDBRANCH  19   4
BRANCH  21   5
ATOM      5  O   UNL     1      -1.617   3.844  -0.382  0.00  0.00    -0.491 OA
ATOM     30  C   UNL     1      -1.907   4.495  -1.617  0.00  0.00    +0.277 C 
ENDBRANCH  21   5
ENDBRANCH  13  15
ENDBRANCH   6  13
TORSDOF 8
