REMARK  Name = 75536062
REMARK  7 active torsions:
REMARK  status: ('A' for Active; 'I' for Inactive)
REMARK    1  A    between atoms: O_1  and  C_10
REMARK    2  A    between atoms: O_2  and  C_12
REMARK    3  A    between atoms: N_5  and  C_9
REMARK    4  A    between atoms: C_8  and  C_13
REMARK    5  A    between atoms: C_15  and  C_17
REMARK    6  A    between atoms: C_20  and  C_22
REMARK    7  A    between atoms: C_21  and  C_23
REMARK                            x       y       z     vdW  Elec       q    Type
REMARK                         _______ _______ _______ _____ _____    ______ ____
ROOT
ATOM      8  C   UNL     1       1.828   0.341   0.996  0.00  0.00    +0.046 C 
ATOM      9  C   UNL     1       0.694   1.013   0.189  0.00  0.00    +0.112 C 
ATOM     10  C   UNL     1       0.706   2.456   0.691  0.00  0.00    +0.164 C 
ATOM     11  C   UNL     1       2.772   1.490   1.435  0.00  0.00    +0.044 C 
ATOM     12  C   UNL     1       2.193   2.764   0.822  0.00  0.00    +0.145 C 
ENDROOT
BRANCH   8  13
ATOM      6  N   UNL     1       3.123  -3.111   0.105  0.00  0.00    -0.263 NA
ATOM     13  C   UNL     1       2.514  -0.775   0.238  0.00  0.00    -0.024 A 
ATOM     14  C   UNL     1       3.150  -0.533  -0.974  0.00  0.00    +0.007 A 
ATOM     16  C   UNL     1       2.529  -2.071   0.731  0.00  0.00    +0.114 A 
ATOM     18  C   UNL     1       3.773  -1.578  -1.647  0.00  0.00    +0.020 A 
ATOM     19  C   UNL     1       3.732  -2.837  -1.071  0.00  0.00    +0.111 A 
ENDBRANCH   8  13
BRANCH   9   5
ATOM      3  O   UNL     1      -1.533   0.949  -1.623  0.00  0.00    -0.270 OA
ATOM      5  N   UNL     1      -0.579   0.376   0.412  0.00  0.00    -0.305 N 
ATOM     15  C   UNL     1      -1.601   0.398  -0.527  0.00  0.00    +0.250 C 
ATOM     24  H   UNL     1      -0.757  -0.003   1.335  0.00  0.00    +0.149 HD
BRANCH  15  17
ATOM      4  O   UNL     1      -5.027  -0.794   0.017  0.00  0.00    -0.359 OA
ATOM      7  N   UNL     1      -4.359  -1.707   0.824  0.00  0.00    -0.083 NA
ATOM     17  C   UNL     1      -2.862  -0.282  -0.134  0.00  0.00    +0.101 A 
ATOM     20  C   UNL     1      -4.125   0.049  -0.548  0.00  0.00    +0.147 A 
ATOM     21  C   UNL     1      -3.067  -1.382   0.717  0.00  0.00    +0.093 A 
ATOM     22  C   UNL     1      -4.670   1.085  -1.436  0.00  0.00    +0.090 C 
ATOM     23  C   UNL     1      -2.058  -2.159   1.456  0.00  0.00    +0.070 C 
ENDBRANCH  15  17
ENDBRANCH   9   5
BRANCH  10   1
ATOM      1  O   UNL     1       0.078   3.344  -0.214  0.00  0.00    -0.387 OA
ATOM     25  H   UNL     1       0.206   4.246   0.126  0.00  0.00    +0.210 HD
ENDBRANCH  10   1
BRANCH  12   2
ATOM      2  O   UNL     1       2.787   2.966  -0.457  0.00  0.00    -0.389 OA
ATOM     26  H   UNL     1       3.737   3.119  -0.317  0.00  0.00    +0.210 HD
ENDBRANCH  12   2
TORSDOF 5
