REMARK  Name = 38344319
REMARK  7 active torsions:
REMARK  status: ('A' for Active; 'I' for Inactive)
REMARK    1  A    between atoms: O_2  and  C_28
REMARK    2  A    between atoms: N_4  and  C_14
REMARK    3  A    between atoms: C_9  and  C_15
REMARK    4  A    between atoms: C_14  and  C_16
REMARK    5  A    between atoms: C_20  and  C_23
REMARK    6  A    between atoms: C_24  and  C_28
REMARK    7  A    between atoms: C_27  and  C_31
REMARK                            x       y       z     vdW  Elec       q    Type
REMARK                         _______ _______ _______ _____ _____    ______ ____
ROOT
ATOM      4  N   UNL     1      -1.227  -1.352   0.476  0.00  0.00    -0.281 NA
ATOM      5  N   UNL     1      -3.312  -4.084  -1.026  0.00  0.00    -0.347 N 
ATOM      6  N   UNL     1      -1.349  -5.009  -1.563  0.00  0.00    -0.240 NA
ATOM      9  C   UNL     1      -0.056  -2.255   0.745  0.00  0.00    +0.152 C 
ATOM     10  C   UNL     1       0.142  -3.333  -0.380  0.00  0.00    +0.086 C 
ATOM     11  C   UNL     1      -2.512  -2.104   0.385  0.00  0.00    +0.140 C 
ATOM     12  C   UNL     1      -2.349  -3.307  -0.457  0.00  0.00    +0.053 A 
ATOM     13  C   UNL     1      -1.159  -3.897  -0.793  0.00  0.00    +0.065 A 
ATOM     17  C   UNL     1      -2.660  -5.097  -1.683  0.00  0.00    +0.197 A 
ATOM     32  H   UNL     1      -4.314  -3.948  -0.974  0.00  0.00    +0.167 HD
ENDROOT
BRANCH   9  15
ATOM      1  O   UNL     1       1.886  -1.662   2.123  0.00  0.00    -0.336 OA
ATOM      7  N   UNL     1       1.909  -0.749   0.078  0.00  0.00    -0.190 NA
ATOM      8  N   UNL     1       3.061  -0.903   2.048  0.00  0.00    -0.056 NA
ATOM     15  C   UNL     1       1.267  -1.517   0.922  0.00  0.00    +0.245 A 
ATOM     20  C   UNL     1       3.002  -0.396   0.813  0.00  0.00    +0.202 A 
BRANCH  20  23
ATOM     23  C   UNL     1       4.021   0.464   0.283  0.00  0.00    +0.023 A 
ATOM     25  C   UNL     1       3.907   0.963  -1.014  0.00  0.00    +0.015 A 
ATOM     26  C   UNL     1       5.124   0.802   1.067  0.00  0.00    +0.012 A 
ATOM     27  C   UNL     1       4.897   1.800  -1.529  0.00  0.00    -0.050 A 
ATOM     29  C   UNL     1       6.114   1.639   0.552  0.00  0.00    +0.001 A 
ATOM     30  C   UNL     1       6.001   2.138  -0.746  0.00  0.00    +0.003 A 
ATOM     31  C   UNL     1       4.777   2.333  -2.916  0.00  0.00    +0.044 C 
ENDBRANCH  20  23
ENDBRANCH   9  15
BRANCH   4  14
ATOM     14  C   UNL     1      -1.379  -0.312   1.503  0.00  0.00    +0.120 C 
BRANCH  14  16
ATOM     16  C   UNL     1      -2.113   0.893   0.978  0.00  0.00    -0.033 A 
ATOM     18  C   UNL     1      -1.456   1.801   0.148  0.00  0.00    +0.006 A 
ATOM     19  C   UNL     1      -3.449   1.100   1.320  0.00  0.00    +0.006 A 
ATOM     21  C   UNL     1      -2.135   2.918  -0.340  0.00  0.00    +0.015 A 
ATOM     22  C   UNL     1      -4.128   2.217   0.833  0.00  0.00    +0.015 A 
ATOM     24  C   UNL     1      -3.471   3.125   0.003  0.00  0.00    +0.059 A 
BRANCH  24  28
ATOM      3  O   UNL     1      -3.700   5.154  -1.245  0.00  0.00    -0.245 OA
ATOM     28  C   UNL     1      -4.181   4.289  -0.506  0.00  0.00    +0.337 C 
BRANCH  28   2
ATOM      2  O   UNL     1      -5.472   4.340  -0.077  0.00  0.00    -0.477 OA
ATOM     33  H   UNL     1      -5.941   5.128  -0.426  0.00  0.00    +0.295 HD
ENDBRANCH  28   2
ENDBRANCH  24  28
ENDBRANCH  14  16
ENDBRANCH   4  14
TORSDOF 6
