REMARK  Name = 26743644
REMARK  6 active torsions:
REMARK  status: ('A' for Active; 'I' for Inactive)
REMARK    1  A    between atoms: O_4  and  C_13
REMARK    2  A    between atoms: N_6  and  C_15
REMARK    3  A    between atoms: C_11  and  C_16
REMARK    4  A    between atoms: C_15  and  C_17
REMARK    5  A    between atoms: C_18  and  C_19
REMARK    6  A    between atoms: C_26  and  C_27
REMARK                            x       y       z     vdW  Elec       q    Type
REMARK                         _______ _______ _______ _____ _____    ______ ____
ROOT
ATOM      5  O   UNL     1      -1.493  -0.183  -2.111  0.00  0.00    -0.336 OA
ATOM      7  N   UNL     1      -0.683   0.756  -0.245  0.00  0.00    -0.190 NA
ATOM     10  N   UNL     1      -0.107  -0.381  -2.145  0.00  0.00    -0.056 NA
ATOM     16  C   UNL     1      -1.748   0.494  -0.960  0.00  0.00    +0.245 A 
ATOM     18  C   UNL     1       0.299   0.200  -1.012  0.00  0.00    +0.202 A 
ENDROOT
BRANCH  18  19
ATOM     19  C   UNL     1       1.678   0.244  -0.619  0.00  0.00    +0.022 A 
ATOM     22  C   UNL     1       2.043   0.867   0.575  0.00  0.00    +0.012 A 
ATOM     23  C   UNL     1       2.653  -0.336  -1.429  0.00  0.00    +0.012 A 
ATOM     24  C   UNL     1       3.383   0.909   0.958  0.00  0.00    +0.013 A 
ATOM     25  C   UNL     1       3.994  -0.293  -1.047  0.00  0.00    +0.013 A 
ATOM     26  C   UNL     1       4.359   0.329   0.147  0.00  0.00    +0.055 A 
BRANCH  26  27
ATOM      1  F   UNL     1       6.355  -0.860   0.716  0.00  0.00    -0.166 F 
ATOM      2  F   UNL     1       5.978   1.017   1.746  0.00  0.00    -0.166 F 
ATOM      3  F   UNL     1       6.597   1.021  -0.338  0.00  0.00    -0.166 F 
ATOM     27  C   UNL     1       5.792   0.375   0.557  0.00  0.00    +0.417 C 
ENDBRANCH  26  27
ENDBRANCH  18  19
BRANCH  16  11
ATOM      6  N   UNL     1      -3.674   0.291   0.604  0.00  0.00    -0.282 NA
ATOM     11  C   UNL     1      -3.198   0.834  -0.684  0.00  0.00    +0.149 C 
ATOM     12  C   UNL     1      -3.446   2.350  -0.589  0.00  0.00    +0.061 C 
ATOM     13  C   UNL     1      -4.105   2.558   0.769  0.00  0.00    +0.130 C 
ATOM     14  C   UNL     1      -4.713   1.203   1.079  0.00  0.00    +0.117 C 
BRANCH  13   4
ATOM      4  O   UNL     1      -5.089   3.571   0.700  0.00  0.00    -0.390 OA
ATOM     28  H   UNL     1      -4.644   4.391   0.425  0.00  0.00    +0.210 HD
ENDBRANCH  13   4
BRANCH   6  15
ATOM     15  C   UNL     1      -4.151  -1.082   0.509  0.00  0.00    +0.159 C 
BRANCH  15  17
ATOM      8  N   UNL     1      -2.119  -2.137   1.529  0.00  0.00    -0.347 N 
ATOM      9  N   UNL     1      -2.744  -2.950  -0.441  0.00  0.00    -0.239 NA
ATOM     17  C   UNL     1      -3.015  -2.071   0.498  0.00  0.00    +0.121 A 
ATOM     20  C   UNL     1      -1.220  -3.120   1.227  0.00  0.00    +0.104 A 
ATOM     21  C   UNL     1      -1.626  -3.607   0.007  0.00  0.00    +0.130 A 
ATOM     29  H   UNL     1      -2.119  -1.562   2.361  0.00  0.00    +0.167 HD
ENDBRANCH  15  17
ENDBRANCH   6  15
ENDBRANCH  16  11
TORSDOF 6
