REMARK  Name = 75536891
REMARK  7 active torsions:
REMARK  status: ('A' for Active; 'I' for Inactive)
REMARK    1  A    between atoms: S_1  and  C_22
REMARK    2  A    between atoms: S_1  and  C_27
REMARK    3  A    between atoms: O_3  and  C_10
REMARK    4  A    between atoms: O_3  and  C_17
REMARK    5  A    between atoms: N_8  and  C_25
REMARK    6  A    between atoms: C_15  and  C_16
REMARK    7  A    between atoms: C_21  and  C_26
REMARK                            x       y       z     vdW  Elec       q    Type
REMARK                         _______ _______ _______ _____ _____    ______ ____
ROOT
ATOM      2  O   UNL     1       0.688  -3.522  -0.542  0.00  0.00    -0.375 OA
ATOM      4  O   UNL     1       4.499  -1.353   1.476  0.00  0.00    -0.268 OA
ATOM      7  N   UNL     1       2.259  -1.173   0.812  0.00  0.00    -0.291 N 
ATOM     10  C   UNL     1       0.026  -1.177  -0.426  0.00  0.00    +0.216 C 
ATOM     11  C   UNL     1       1.207  -0.391   0.150  0.00  0.00    +0.155 C 
ATOM     12  C   UNL     1       1.923  -2.507   1.312  0.00  0.00    +0.136 C 
ATOM     13  C   UNL     1       0.455  -2.346  -1.310  0.00  0.00    +0.206 C 
ATOM     14  C   UNL     1       1.913  -3.529   0.182  0.00  0.00    +0.179 C 
ATOM     15  C   UNL     1       3.580  -0.719   0.958  0.00  0.00    +0.265 C 
ENDROOT
BRANCH  15  16
ATOM      8  N   UNL     1       4.847   0.898  -0.503  0.00  0.00    -0.262 N 
ATOM      9  N   UNL     1       4.966   2.206  -0.784  0.00  0.00    -0.176 NA
ATOM     16  C   UNL     1       3.917   0.622   0.456  0.00  0.00    +0.123 A 
ATOM     18  C   UNL     1       3.392   1.835   0.829  0.00  0.00    +0.057 A 
ATOM     21  C   UNL     1       4.074   2.774   0.033  0.00  0.00    +0.061 A 
ATOM     25  C   UNL     1       5.675  -0.054  -1.208  0.00  0.00    +0.173 C 
ATOM     26  C   UNL     1       3.901   4.236   0.023  0.00  0.00    +0.067 C 
ENDBRANCH  15  16
BRANCH  10   3
ATOM      3  O   UNL     1      -0.738  -0.258  -1.208  0.00  0.00    -0.485 OA
BRANCH   3  17
ATOM     17  C   UNL     1      -2.023  -0.029  -0.801  0.00  0.00    +0.121 A 
ATOM     19  C   UNL     1      -2.425   1.260  -0.450  0.00  0.00    +0.047 A 
ATOM     20  C   UNL     1      -2.932  -1.085  -0.737  0.00  0.00    +0.047 A 
ATOM     22  C   UNL     1      -4.645   0.436   0.029  0.00  0.00    +0.088 A 
ATOM     23  C   UNL     1      -3.736   1.492  -0.035  0.00  0.00    +0.030 A 
ATOM     24  C   UNL     1      -4.243  -0.853  -0.322  0.00  0.00    +0.030 A 
BRANCH  22   1
ATOM      1  S   UNL     1      -6.285   0.727   0.553  0.00  0.00    -0.006 S 
ATOM      5  O   UNL     1      -6.841  -0.515   1.075  0.00  0.00    -0.170 OA
ATOM      6  O   UNL     1      -6.286   1.924   1.382  0.00  0.00    -0.170 OA
ATOM     27  C   UNL     1      -7.168   1.099  -0.946  0.00  0.00    +0.200 C 
ENDBRANCH  22   1
ENDBRANCH   3  17
ENDBRANCH  10   3
TORSDOF 4
