REMARK  Name = 51136650
REMARK  12 active torsions:
REMARK  status: ('A' for Active; 'I' for Inactive)
REMARK    1  A    between atoms: O_2  and  C_17
REMARK    2  A    between atoms: O_4  and  C_29
REMARK    3  A    between atoms: O_4  and  C_30
REMARK    4  A    between atoms: C_7  and  C_12
REMARK    5  A    between atoms: C_8  and  C_13
REMARK    6  A    between atoms: C_12  and  C_15
REMARK    7  A    between atoms: C_13  and  C_17
REMARK    8  A    between atoms: C_14  and  C_16
REMARK    9  A    between atoms: C_16  and  C_19
REMARK   10  A    between atoms: C_16  and  C_20
REMARK   11  A    between atoms: C_19  and  C_25
REMARK   12  A    between atoms: C_20  and  C_26
REMARK                            x       y       z     vdW  Elec       q    Type
REMARK                         _______ _______ _______ _____ _____    ______ ____
ROOT
ATOM      1  O   UNL     1      -0.802  -3.533   1.372  0.00  0.00    -0.275 OA
ATOM      5  N   UNL     1      -1.734  -1.915  -0.011  0.00  0.00    -0.301 N 
ATOM      7  C   UNL     1      -2.038   0.450  -0.708  0.00  0.00    +0.016 C 
ATOM      8  C   UNL     1      -3.429   0.434  -0.024  0.00  0.00    +0.006 C 
ATOM      9  C   UNL     1      -1.650  -0.977  -1.137  0.00  0.00    +0.112 C 
ATOM     10  C   UNL     1      -3.488  -0.598   1.115  0.00  0.00    +0.023 C 
ATOM     11  C   UNL     1      -3.045  -1.978   0.636  0.00  0.00    +0.108 C 
ATOM     14  C   UNL     1      -0.698  -2.732   0.439  0.00  0.00    +0.219 C 
ENDROOT
BRANCH   7  12
ATOM     12  C   UNL     1      -0.928   1.068   0.152  0.00  0.00    +0.061 C 
BRANCH  12  15
ATOM      6  N   UNL     1      -0.052   1.858  -1.940  0.00  0.00    -0.287 NA
ATOM     15  C   UNL     1       0.219   1.504  -0.727  0.00  0.00    +0.044 C 
ATOM     18  C   UNL     1       1.594   1.499  -0.164  0.00  0.00    -0.001 A 
ATOM     21  C   UNL     1       2.651   1.526  -1.082  0.00  0.00    -0.033 A 
ATOM     22  C   UNL     1       1.054   2.339  -2.775  0.00  0.00    +0.146 C 
ATOM     23  C   UNL     1       2.333   1.544  -2.548  0.00  0.00    +0.059 C 
ATOM     24  C   UNL     1       1.847   1.454   1.208  0.00  0.00    +0.013 A 
ATOM     27  C   UNL     1       3.969   1.482  -0.618  0.00  0.00    +0.050 A 
ATOM     28  C   UNL     1       3.167   1.426   1.662  0.00  0.00    +0.046 A 
ATOM     29  C   UNL     1       4.224   1.437   0.752  0.00  0.00    +0.120 A 
BRANCH  29   4
ATOM      4  O   UNL     1       5.508   1.401   1.203  0.00  0.00    -0.495 OA
ATOM     30  C   UNL     1       5.699   1.354   2.616  0.00  0.00    +0.277 C 
ENDBRANCH  29   4
ENDBRANCH  12  15
ENDBRANCH   7  12
BRANCH   8  13
ATOM     13  C   UNL     1      -3.870   1.811   0.472  0.00  0.00    +0.124 C 
BRANCH  13  17
ATOM      3  O   UNL     1      -6.169   1.005   0.389  0.00  0.00    -0.251 OA
ATOM     17  C   UNL     1      -5.364   1.895   0.619  0.00  0.00    +0.305 C 
BRANCH  17   2
ATOM      2  O   UNL     1      -5.712   3.133   1.056  0.00  0.00    -0.481 OA
ATOM     31  H   UNL     1      -6.683   3.223   1.163  0.00  0.00    +0.295 HD
ENDBRANCH  17   2
ENDBRANCH  13  17
ENDBRANCH   8  13
BRANCH  14  16
ATOM     16  C   UNL     1       0.623  -2.606  -0.278  0.00  0.00    +0.075 C 
BRANCH  16  19
ATOM     19  C   UNL     1       1.757  -2.904   0.709  0.00  0.00    +0.009 C 
ATOM     25  C   UNL     1       3.139  -2.750   0.085  0.00  0.00    +0.004 C 
ENDBRANCH  16  19
BRANCH  16  20
ATOM     20  C   UNL     1       0.654  -3.586  -1.457  0.00  0.00    +0.009 C 
ATOM     26  C   UNL     1       0.541  -5.040  -1.017  0.00  0.00    +0.004 C 
ENDBRANCH  16  20
ENDBRANCH  14  16
TORSDOF 9
