REMARK  Name = 11911984
REMARK  7 active torsions:
REMARK  status: ('A' for Active; 'I' for Inactive)
REMARK    1  A    between atoms: N_5  and  C_17
REMARK    2  A    between atoms: C_6  and  C_12
REMARK    3  A    between atoms: C_7  and  C_11
REMARK    4  A    between atoms: C_11  and  C_13
REMARK    5  A    between atoms: C_12  and  C_15
REMARK    6  A    between atoms: C_14  and  C_16
REMARK    7  A    between atoms: C_17  and  C_20
REMARK                            x       y       z     vdW  Elec       q    Type
REMARK                         _______ _______ _______ _____ _____    ______ ____
ROOT
ATOM      2  O   UNL     1      -2.443  -2.654   0.883  0.00  0.00    -0.270 OA
ATOM      4  N   UNL     1      -1.874  -0.527   0.096  0.00  0.00    -0.297 N 
ATOM      6  C   UNL     1      -0.311   1.872   0.675  0.00  0.00    +0.004 C 
ATOM      7  C   UNL     1      -1.815   1.935   0.301  0.00  0.00    +0.010 C 
ATOM      8  C   UNL     1       0.009   0.499   1.299  0.00  0.00    +0.023 C 
ATOM      9  C   UNL     1      -2.234   0.736  -0.564  0.00  0.00    +0.112 C 
ATOM     10  C   UNL     1      -0.456  -0.665   0.426  0.00  0.00    +0.108 C 
ATOM     14  C   UNL     1      -2.751  -1.579   0.371  0.00  0.00    +0.247 C 
ENDROOT
BRANCH  14  16
ATOM     16  C   UNL     1      -4.171  -1.402   0.041  0.00  0.00    +0.037 A 
ATOM     18  C   UNL     1      -4.641  -1.773  -1.216  0.00  0.00    +0.013 A 
ATOM     19  C   UNL     1      -5.040  -0.865   0.988  0.00  0.00    +0.013 A 
ATOM     21  C   UNL     1      -5.990  -1.605  -1.529  0.00  0.00    +0.001 A 
ATOM     22  C   UNL     1      -6.389  -0.698   0.674  0.00  0.00    +0.001 A 
ATOM     23  C   UNL     1      -6.864  -1.068  -0.584  0.00  0.00    +0.000 A 
ENDBRANCH  14  16
BRANCH   7  11
ATOM     11  C   UNL     1      -2.211   3.248  -0.372  0.00  0.00    +0.002 C 
ATOM     13  C   UNL     1      -1.774   4.439   0.455  0.00  0.00    +0.004 C 
ENDBRANCH   7  11
BRANCH   6  12
ATOM     12  C   UNL     1       0.636   2.174  -0.491  0.00  0.00    +0.099 C 
BRANCH  12  15
ATOM      3  O   UNL     1       2.483   2.424   1.050  0.00  0.00    -0.276 OA
ATOM      5  N   UNL     1       2.899   1.718  -1.125  0.00  0.00    -0.311 N 
ATOM     15  C   UNL     1       2.090   2.129  -0.075  0.00  0.00    +0.214 C 
ATOM     29  H   UNL     1       2.479   1.488  -2.021  0.00  0.00    +0.149 HD
BRANCH   5  17
ATOM     17  C   UNL     1       4.333   1.586  -1.012  0.00  0.00    +0.139 C 
BRANCH  17  20
ATOM      1  F   UNL     1       5.849  -3.564   0.652  0.00  0.00    -0.205 F 
ATOM     20  C   UNL     1       4.738   0.210  -0.568  0.00  0.00    -0.030 A 
ATOM     24  C   UNL     1       4.865  -0.064   0.789  0.00  0.00    +0.008 A 
ATOM     25  C   UNL     1       4.982  -0.775  -1.517  0.00  0.00    +0.008 A 
ATOM     26  C   UNL     1       5.241  -1.342   1.202  0.00  0.00    +0.038 A 
ATOM     27  C   UNL     1       5.357  -2.053  -1.105  0.00  0.00    +0.038 A 
ATOM     28  C   UNL     1       5.487  -2.337   0.255  0.00  0.00    +0.123 A 
ENDBRANCH  17  20
ENDBRANCH   5  17
ENDBRANCH  12  15
ENDBRANCH   6  12
TORSDOF 6
