REMARK  Name = 7134475
REMARK  11 active torsions:
REMARK  status: ('A' for Active; 'I' for Inactive)
REMARK    1  A    between atoms: S_1  and  N_12
REMARK    2  A    between atoms: S_1  and  C_23
REMARK    3  A    between atoms: O_5  and  C_16
REMARK    4  A    between atoms: O_6  and  C_18
REMARK    5  A    between atoms: O_7  and  C_20
REMARK    6  A    between atoms: N_12  and  C_15
REMARK    7  A    between atoms: N_13  and  C_22
REMARK    8  A    between atoms: C_16  and  C_21
REMARK    9  A    between atoms: C_22  and  C_25
REMARK   10  A    between atoms: C_22  and  C_27
REMARK   11  A    between atoms: C_28  and  C_31
REMARK                            x       y       z     vdW  Elec       q    Type
REMARK                         _______ _______ _______ _____ _____    ______ ____
ROOT
ATOM     15  C   UNL     1       1.346  -1.730  -0.284  0.00  0.00    +0.111 C 
ATOM     16  C   UNL     1      -1.073  -1.939   0.449  0.00  0.00    +0.145 C 
ATOM     17  C   UNL     1      -0.121  -1.526  -0.674  0.00  0.00    +0.067 C 
ATOM     18  C   UNL     1       1.626  -3.159   0.193  0.00  0.00    +0.162 C 
ATOM     19  C   UNL     1      -0.803  -3.372   0.902  0.00  0.00    +0.078 C 
ATOM     20  C   UNL     1       0.658  -3.587   1.302  0.00  0.00    +0.148 C 
ENDROOT
BRANCH  16  21
ATOM      8  O   UNL     1      -3.265  -2.757  -0.033  0.00  0.00    -0.273 OA
ATOM     13  N   UNL     1      -2.815  -0.493  -0.338  0.00  0.00    -0.302 N 
ATOM     21  C   UNL     1      -2.502  -1.796   0.012  0.00  0.00    +0.245 C 
ATOM     36  H   UNL     1      -2.107   0.231  -0.270  0.00  0.00    +0.150 HD
BRANCH  13  22
ATOM     22  C   UNL     1      -4.119  -0.094  -0.814  0.00  0.00    +0.156 C 
ATOM     25  C   UNL     1      -4.204  -0.196  -2.329  0.00  0.00    +0.038 C 
BRANCH  22  27
ATOM     11  O   UNL     1      -3.505   2.184  -0.239  0.00  0.00    -0.274 OA
ATOM     14  N   UNL     1      -5.715   1.575  -0.101  0.00  0.00    -0.328 N 
ATOM     27  C   UNL     1      -4.381   1.329  -0.347  0.00  0.00    +0.231 C 
ATOM     37  H   UNL     1      -6.028   2.490   0.205  0.00  0.00    +0.145 HD
ATOM     38  H   UNL     1      -6.431   0.864  -0.215  0.00  0.00    +0.145 HD
ENDBRANCH  22  27
ENDBRANCH  13  22
ENDBRANCH  16  21
BRANCH  16   5
ATOM      5  O   UNL     1      -0.939  -1.065   1.564  0.00  0.00    -0.379 OA
ATOM     33  H   UNL     1      -0.885  -0.150   1.243  0.00  0.00    +0.211 HD
ENDBRANCH  16   5
BRANCH  18   6
ATOM      6  O   UNL     1       2.959  -3.197   0.709  0.00  0.00    -0.388 OA
ATOM     34  H   UNL     1       3.012  -2.578   1.458  0.00  0.00    +0.210 HD
ENDBRANCH  18   6
BRANCH  20   7
ATOM      7  O   UNL     1       0.830  -4.977   1.578  0.00  0.00    -0.389 OA
ATOM     35  H   UNL     1       0.227  -5.209   2.305  0.00  0.00    +0.210 HD
ENDBRANCH  20   7
BRANCH  15  12
ATOM     12  N   UNL     1       2.196  -1.438  -1.471  0.00  0.00    -0.184 NA
ATOM     32  H   UNL     1       1.908  -1.838  -2.371  0.00  0.00    +0.148 HD
BRANCH  12   1
ATOM      1  S   UNL     1       3.332  -0.182  -1.399  0.00  0.00    +0.059 S 
ATOM      9  O   UNL     1       3.938  -0.000  -2.704  0.00  0.00    -0.153 OA
ATOM     10  O   UNL     1       4.165  -0.378  -0.229  0.00  0.00    -0.153 OA
BRANCH   1  23
ATOM     23  C   UNL     1       2.308   1.222  -1.073  0.00  0.00    +0.106 A 
ATOM     24  C   UNL     1       2.031   1.593   0.242  0.00  0.00    +0.041 A 
ATOM     26  C   UNL     1       1.776   1.958  -2.132  0.00  0.00    +0.028 A 
ATOM     28  C   UNL     1       1.223   2.700   0.499  0.00  0.00    +0.057 A 
ATOM     29  C   UNL     1       0.968   3.065  -1.876  0.00  0.00    +0.002 A 
ATOM     30  C   UNL     1       0.692   3.437  -0.560  0.00  0.00    +0.012 A 
BRANCH  28  31
ATOM      2  F   UNL     1       0.124   4.199   2.006  0.00  0.00    -0.166 F 
ATOM      3  F   UNL     1       0.290   2.127   2.626  0.00  0.00    -0.166 F 
ATOM      4  F   UNL     1       2.053   3.400   2.614  0.00  0.00    -0.166 F 
ATOM     31  C   UNL     1       0.926   3.098   1.906  0.00  0.00    +0.417 C 
ENDBRANCH  28  31
ENDBRANCH   1  23
ENDBRANCH  12   1
ENDBRANCH  15  12
TORSDOF 10
