REMARK  Name = 25317485
REMARK  6 active torsions:
REMARK  status: ('A' for Active; 'I' for Inactive)
REMARK    1  A    between atoms: O_6  and  C_13
REMARK    2  A    between atoms: N_8  and  C_12
REMARK    3  A    between atoms: N_9  and  C_14
REMARK    4  A    between atoms: N_10  and  C_23
REMARK    5  A    between atoms: N_11  and  C_28
REMARK    6  A    between atoms: C_32  and  C_35
REMARK                            x       y       z     vdW  Elec       q    Type
REMARK                         _______ _______ _______ _____ _____    ______ ____
ROOT
ATOM      4  O   UNL     1       2.102  -2.867   1.790  0.00  0.00    -0.342 OA
ATOM      5  O   UNL     1       3.357  -4.417   0.606  0.00  0.00    -0.347 OA
ATOM     12  C   UNL     1       2.772  -2.329  -0.464  0.00  0.00    +0.144 C 
ATOM     13  C   UNL     1       1.472  -2.953  -1.020  0.00  0.00    +0.159 C 
ATOM     14  C   UNL     1       0.493  -3.419   0.080  0.00  0.00    +0.136 C 
ATOM     15  C   UNL     1       3.179  -3.013   0.854  0.00  0.00    +0.270 C 
ATOM     16  C   UNL     1       1.205  -3.897   1.363  0.00  0.00    +0.170 C 
ATOM     17  C   UNL     1       2.179  -5.038   1.143  0.00  0.00    +0.196 C 
ENDROOT
BRANCH  14   9
ATOM      7  O   UNL     1      -2.015  -2.895  -1.198  0.00  0.00    -0.252 OA
ATOM      9  N   UNL     1      -0.436  -2.358   0.402  0.00  0.00    -0.291 N 
ATOM     11  N   UNL     1      -2.330  -1.075   0.251  0.00  0.00    -0.269 N 
ATOM     22  C   UNL     1      -1.644  -2.174  -0.276  0.00  0.00    +0.304 C 
ATOM     36  H   UNL     1      -0.162  -1.672   1.099  0.00  0.00    +0.151 HD
ATOM     38  H   UNL     1      -1.881  -0.582   1.019  0.00  0.00    +0.156 HD
BRANCH  11  28
ATOM     28  C   UNL     1      -3.583  -0.559  -0.154  0.00  0.00    +0.035 A 
ATOM     30  C   UNL     1      -4.119   0.556   0.491  0.00  0.00    +0.035 A 
ATOM     31  C   UNL     1      -4.282  -1.165  -1.198  0.00  0.00    +0.023 A 
ATOM     32  C   UNL     1      -5.355   1.065   0.091  0.00  0.00    +0.057 A 
ATOM     33  C   UNL     1      -5.518  -0.655  -1.597  0.00  0.00    +0.002 A 
ATOM     34  C   UNL     1      -6.054   0.460  -0.953  0.00  0.00    +0.012 A 
BRANCH  32  35
ATOM      1  F   UNL     1      -6.137   2.069   2.117  0.00  0.00    -0.166 F 
ATOM      2  F   UNL     1      -7.140   2.625   0.270  0.00  0.00    -0.166 F 
ATOM      3  F   UNL     1      -5.141   3.370   0.695  0.00  0.00    -0.166 F 
ATOM     35  C   UNL     1      -5.929   2.257   0.780  0.00  0.00    +0.417 C 
ENDBRANCH  32  35
ENDBRANCH  11  28
ENDBRANCH  14   9
BRANCH  12   8
ATOM      8  N   UNL     1       2.586  -0.894  -0.240  0.00  0.00    -0.290 NA
ATOM     10  N   UNL     1       3.330   1.864  -0.246  0.00  0.00    -0.327 N 
ATOM     18  C   UNL     1       2.697  -0.157  -1.504  0.00  0.00    +0.104 C 
ATOM     19  C   UNL     1       3.576  -0.390   0.721  0.00  0.00    +0.104 C 
ATOM     20  C   UNL     1       2.449   1.339  -1.293  0.00  0.00    +0.120 C 
ATOM     21  C   UNL     1       3.356   1.097   1.006  0.00  0.00    +0.120 C 
BRANCH  10  23
ATOM     23  C   UNL     1       3.590   3.237  -0.181  0.00  0.00    +0.030 A 
ATOM     24  C   UNL     1       2.630   4.150  -0.617  0.00  0.00    +0.023 A 
ATOM     25  C   UNL     1       4.809   3.694   0.320  0.00  0.00    +0.023 A 
ATOM     26  C   UNL     1       2.888   5.519  -0.553  0.00  0.00    +0.002 A 
ATOM     27  C   UNL     1       5.068   5.063   0.385  0.00  0.00    +0.002 A 
ATOM     29  C   UNL     1       4.108   5.976  -0.052  0.00  0.00    +0.000 A 
ENDBRANCH  10  23
ENDBRANCH  12   8
BRANCH  13   6
ATOM      6  O   UNL     1       1.839  -4.085  -1.820  0.00  0.00    -0.388 OA
ATOM     37  H   UNL     1       1.026  -4.439  -2.219  0.00  0.00    +0.210 HD
ENDBRANCH  13   6
TORSDOF 6
