REMARK  Name = 11879719
REMARK  11 active torsions:
REMARK  status: ('A' for Active; 'I' for Inactive)
REMARK    1  A    between atoms: O_4  and  C_20
REMARK    2  A    between atoms: O_4  and  C_29
REMARK    3  A    between atoms: O_5  and  C_22
REMARK    4  A    between atoms: O_5  and  C_33
REMARK    5  A    between atoms: N_9  and  C_19
REMARK    6  A    between atoms: N_10  and  C_24
REMARK    7  A    between atoms: C_12  and  C_16
REMARK    8  A    between atoms: C_17  and  C_20
REMARK    9  A    between atoms: C_19  and  C_21
REMARK   10  A    between atoms: C_19  and  C_22
REMARK   11  A    between atoms: C_21  and  C_23
REMARK                            x       y       z     vdW  Elec       q    Type
REMARK                         _______ _______ _______ _____ _____    ______ ____
ROOT
ATOM      2  O   UNL     1       4.722   1.185   1.123  0.00  0.00    -0.273 OA
ATOM      3  O   UNL     1      -0.216  -3.708  -1.188  0.00  0.00    -0.252 OA
ATOM      7  N   UNL     1       3.502  -0.639   0.352  0.00  0.00    -0.285 N 
ATOM      8  N   UNL     1       1.000  -2.101  -0.050  0.00  0.00    -0.282 N 
ATOM     10  N   UNL     1      -1.194  -2.633   0.631  0.00  0.00    -0.269 N 
ATOM     12  C   UNL     1       2.223  -0.051   0.750  0.00  0.00    +0.179 C 
ATOM     13  C   UNL     1       1.125  -1.084   1.005  0.00  0.00    +0.141 C 
ATOM     14  C   UNL     1       3.469  -1.987  -0.226  0.00  0.00    +0.127 C 
ATOM     15  C   UNL     1       2.154  -2.294  -0.927  0.00  0.00    +0.128 C 
ATOM     17  C   UNL     1       4.684   0.052   0.637  0.00  0.00    +0.242 C 
ATOM     18  C   UNL     1      -0.161  -2.880  -0.276  0.00  0.00    +0.307 C 
ATOM     37  H   UNL     1      -0.940  -2.294   1.554  0.00  0.00    +0.156 HD
ENDROOT
BRANCH  10  24
ATOM     24  C   UNL     1      -2.588  -2.742   0.404  0.00  0.00    +0.035 A 
ATOM     27  C   UNL     1      -3.487  -2.455   1.431  0.00  0.00    +0.023 A 
ATOM     28  C   UNL     1      -3.062  -3.137  -0.848  0.00  0.00    +0.023 A 
ATOM     31  C   UNL     1      -4.860  -2.562   1.207  0.00  0.00    +0.002 A 
ATOM     32  C   UNL     1      -4.435  -3.244  -1.071  0.00  0.00    +0.002 A 
ATOM     35  C   UNL     1      -5.334  -2.956  -0.044  0.00  0.00    +0.000 A 
ENDBRANCH  10  24
BRANCH  12  16
ATOM      1  O   UNL     1       2.475   1.075  -1.344  0.00  0.00    -0.274 OA
ATOM      9  N   UNL     1       0.640   1.584  -0.004  0.00  0.00    -0.301 N 
ATOM     16  C   UNL     1       1.809   0.915  -0.324  0.00  0.00    +0.236 C 
ATOM     36  H   UNL     1       0.176   1.373   0.871  0.00  0.00    +0.150 HD
BRANCH   9  19
ATOM     19  C   UNL     1       0.043   2.584  -0.860  0.00  0.00    +0.186 C 
BRANCH  19  22
ATOM      6  O   UNL     1      -1.105   0.766  -1.963  0.00  0.00    -0.249 OA
ATOM     22  C   UNL     1      -0.851   1.966  -1.927  0.00  0.00    +0.328 C 
BRANCH  22   5
ATOM      5  O   UNL     1      -1.302   2.891  -2.819  0.00  0.00    -0.467 OA
ATOM     33  C   UNL     1      -2.135   2.388  -3.869  0.00  0.00    +0.280 C 
ENDBRANCH  22   5
ENDBRANCH  19  22
BRANCH  19  21
ATOM     21  C   UNL     1      -0.691   3.664  -0.051  0.00  0.00    +0.070 C 
BRANCH  21  23
ATOM     11  N   UNL     1      -2.751   2.251   2.802  0.00  0.00    -0.263 NA
ATOM     23  C   UNL     1      -1.879   3.163   0.740  0.00  0.00    -0.027 A 
ATOM     25  C   UNL     1      -3.152   3.139   0.182  0.00  0.00    +0.006 A 
ATOM     26  C   UNL     1      -1.732   2.712   2.042  0.00  0.00    +0.114 A 
ATOM     30  C   UNL     1      -4.225   2.672   0.933  0.00  0.00    +0.020 A 
ATOM     34  C   UNL     1      -3.974   2.243   2.227  0.00  0.00    +0.111 A 
ENDBRANCH  21  23
ENDBRANCH  19  21
ENDBRANCH   9  19
ENDBRANCH  12  16
BRANCH  17  20
ATOM     20  C   UNL     1       5.973  -0.661   0.310  0.00  0.00    +0.255 C 
BRANCH  20   4
ATOM      4  O   UNL     1       7.016   0.223   0.641  0.00  0.00    -0.374 OA
ATOM     29  C   UNL     1       8.300  -0.340   0.375  0.00  0.00    +0.194 C 
ENDBRANCH  20   4
ENDBRANCH  17  20
TORSDOF 9
