REMARK  Name = 75537060
REMARK  5 active torsions:
REMARK  status: ('A' for Active; 'I' for Inactive)
REMARK    1  A    between atoms: O_2  and  C_24
REMARK    2  A    between atoms: O_2  and  C_25
REMARK    3  A    between atoms: N_4  and  C_13
REMARK    4  A    between atoms: N_5  and  C_14
REMARK    5  A    between atoms: C_13  and  C_15
REMARK                            x       y       z     vdW  Elec       q    Type
REMARK                         _______ _______ _______ _____ _____    ______ ____
ROOT
ATOM      1  O   UNL     1      -3.606  -2.275  -0.299  0.00  0.00    -0.252 OA
ATOM      3  N   UNL     1      -1.375  -1.597  -0.321  0.00  0.00    -0.278 N 
ATOM      4  N   UNL     1       1.386  -1.632   0.220  0.00  0.00    -0.295 NA
ATOM      5  N   UNL     1      -2.948   0.022  -0.147  0.00  0.00    -0.254 N 
ATOM      7  C   UNL     1      -0.630  -0.366  -0.401  0.00  0.00    +0.109 C 
ATOM      8  C   UNL     1       0.595  -0.419   0.511  0.00  0.00    +0.109 C 
ATOM      9  C   UNL     1      -1.660   0.696  -0.032  0.00  0.00    +0.139 C 
ATOM     10  C   UNL     1      -0.671  -2.858  -0.443  0.00  0.00    +0.125 C 
ATOM     11  C   UNL     1       0.579  -2.849   0.440  0.00  0.00    +0.104 C 
ATOM     12  C   UNL     1      -2.763  -1.388  -0.266  0.00  0.00    +0.309 C 
ENDROOT
BRANCH   5  14
ATOM     14  C   UNL     1      -4.187   0.721  -0.060  0.00  0.00    +0.038 A 
ATOM     16  C   UNL     1      -5.389   0.015  -0.088  0.00  0.00    +0.023 A 
ATOM     17  C   UNL     1      -4.197   2.111   0.053  0.00  0.00    +0.023 A 
ATOM     20  C   UNL     1      -6.602   0.699  -0.004  0.00  0.00    +0.002 A 
ATOM     21  C   UNL     1      -5.409   2.795   0.138  0.00  0.00    +0.002 A 
ATOM     22  C   UNL     1      -6.612   2.089   0.110  0.00  0.00    +0.000 A 
ENDBRANCH   5  14
BRANCH   4  13
ATOM     13  C   UNL     1       2.593  -1.663   1.046  0.00  0.00    +0.121 C 
BRANCH  13  15
ATOM      6  N   UNL     1       4.836   1.369   0.725  0.00  0.00    -0.221 NA
ATOM     15  C   UNL     1       3.653  -0.730   0.525  0.00  0.00    -0.015 A 
ATOM     18  C   UNL     1       4.414  -1.061  -0.591  0.00  0.00    +0.011 A 
ATOM     19  C   UNL     1       3.901   0.486   1.141  0.00  0.00    +0.119 A 
ATOM     23  C   UNL     1       5.386  -0.179  -1.049  0.00  0.00    +0.067 A 
ATOM     24  C   UNL     1       5.557   1.012  -0.362  0.00  0.00    +0.214 A 
BRANCH  24   2
ATOM      2  O   UNL     1       6.508   1.898  -0.794  0.00  0.00    -0.480 OA
ATOM     25  C   UNL     1       6.642   3.106  -0.054  0.00  0.00    +0.279 C 
ENDBRANCH  24   2
ENDBRANCH  13  15
ENDBRANCH   4  13
TORSDOF 4
