REMARK  Name = 45361456
REMARK  10 active torsions:
REMARK  status: ('A' for Active; 'I' for Inactive)
REMARK    1  A    between atoms: O_1  and  C_10
REMARK    2  A    between atoms: N_5  and  C_14
REMARK    3  A    between atoms: N_6  and  C_29
REMARK    4  A    between atoms: C_7  and  C_17
REMARK    5  A    between atoms: C_9  and  C_19
REMARK    6  A    between atoms: C_13  and  C_18
REMARK    7  A    between atoms: C_18  and  C_20
REMARK    8  A    between atoms: C_18  and  C_21
REMARK    9  A    between atoms: C_22  and  C_23
REMARK   10  A    between atoms: C_29  and  C_30
REMARK                            x       y       z     vdW  Elec       q    Type
REMARK                         _______ _______ _______ _____ _____    ______ ____
ROOT
ATOM      7  C   UNL     1      -0.062  -0.248  -1.698  0.00  0.00    -0.027 C 
ATOM      8  C   UNL     1       0.210  -0.541  -0.185  0.00  0.00    +0.028 C 
ATOM      9  C   UNL     1       1.697  -0.998   0.037  0.00  0.00    +0.012 C 
ATOM     10  C   UNL     1      -0.875  -1.483   0.412  0.00  0.00    +0.122 C 
ATOM     11  C   UNL     1      -1.496   0.306  -1.866  0.00  0.00    +0.007 C 
ATOM     12  C   UNL     1       0.923   0.838  -2.187  0.00  0.00    +0.009 C 
ATOM     13  C   UNL     1      -2.312  -0.975   0.150  0.00  0.00    +0.029 C 
ATOM     14  C   UNL     1       2.678   0.068  -0.526  0.00  0.00    +0.076 C 
ATOM     15  C   UNL     1      -2.564  -0.631  -1.318  0.00  0.00    +0.007 C 
ATOM     16  C   UNL     1       2.382   0.462  -1.973  0.00  0.00    +0.023 C 
ATOM     17  C   UNL     1       0.090  -1.511  -2.584  0.00  0.00    +0.011 C 
ATOM     19  C   UNL     1       2.042  -1.276   1.510  0.00  0.00    +0.010 C 
ENDROOT
BRANCH  14   5
ATOM      3  O   UNL     1       5.036   1.713  -0.122  0.00  0.00    -0.276 OA
ATOM      5  N   UNL     1       4.054  -0.373  -0.443  0.00  0.00    -0.312 N 
ATOM     22  C   UNL     1       5.114   0.493  -0.247  0.00  0.00    +0.216 C 
ATOM     34  H   UNL     1       4.240  -1.362  -0.586  0.00  0.00    +0.149 HD
BRANCH  22  23
ATOM     23  C   UNL     1       6.429  -0.228  -0.175  0.00  0.00    +0.075 C 
ATOM     24  C   UNL     1       7.563   0.642  -0.722  0.00  0.00    +0.013 C 
ATOM     25  C   UNL     1       6.688  -0.709   1.254  0.00  0.00    +0.013 C 
ATOM     26  C   UNL     1       8.006   1.741   0.243  0.00  0.00    +0.001 C 
ATOM     27  C   UNL     1       7.123   0.414   2.194  0.00  0.00    +0.001 C 
ATOM     28  C   UNL     1       8.308   1.191   1.632  0.00  0.00    +0.000 C 
ENDBRANCH  22  23
ENDBRANCH  14   5
BRANCH  10   1
ATOM      1  O   UNL     1      -0.719  -1.552   1.830  0.00  0.00    -0.391 OA
ATOM     35  H   UNL     1      -0.819  -0.654   2.189  0.00  0.00    +0.210 HD
ENDBRANCH  10   1
BRANCH  13  18
ATOM     18  C   UNL     1      -3.367  -1.980   0.629  0.00  0.00    +0.077 C 
ATOM     20  C   UNL     1      -3.187  -3.313  -0.090  0.00  0.00    +0.017 C 
BRANCH  18  21
ATOM      2  O   UNL     1      -5.407  -1.613  -0.623  0.00  0.00    -0.276 OA
ATOM      6  N   UNL     1      -5.210  -0.659   1.482  0.00  0.00    -0.308 N 
ATOM     21  C   UNL     1      -4.765  -1.413   0.406  0.00  0.00    +0.217 C 
ATOM     36  H   UNL     1      -4.600  -0.521   2.282  0.00  0.00    +0.149 HD
BRANCH   6  29
ATOM     29  C   UNL     1      -6.504  -0.017   1.504  0.00  0.00    +0.178 C 
BRANCH  29  30
ATOM      4  O   UNL     1      -6.059   1.431  -0.397  0.00  0.00    -0.466 OA
ATOM     30  C   UNL     1      -6.461   1.356   0.899  0.00  0.00    +0.122 A 
ATOM     31  C   UNL     1      -6.751   2.609   1.388  0.00  0.00    +0.046 A 
ATOM     32  C   UNL     1      -6.512   3.511   0.323  0.00  0.00    +0.041 A 
ATOM     33  C   UNL     1      -6.093   2.745  -0.740  0.00  0.00    +0.195 A 
ENDBRANCH  29  30
ENDBRANCH   6  29
ENDBRANCH  18  21
ENDBRANCH  13  18
TORSDOF 7
