REMARK  Name = 25390052
REMARK  8 active torsions:
REMARK  status: ('A' for Active; 'I' for Inactive)
REMARK    1  A    between atoms: N_3  and  C_10
REMARK    2  A    between atoms: N_4  and  C_18
REMARK    3  A    between atoms: N_6  and  C_25
REMARK    4  A    between atoms: C_8  and  C_11
REMARK    5  A    between atoms: C_14  and  C_16
REMARK    6  A    between atoms: C_15  and  C_17
REMARK    7  A    between atoms: C_24  and  C_26
REMARK    8  A    between atoms: C_29  and  C_32
REMARK                            x       y       z     vdW  Elec       q    Type
REMARK                         _______ _______ _______ _____ _____    ______ ____
ROOT
ATOM      8  C   UNL     1      -0.569   1.265  -0.474  0.00  0.00    +0.047 C 
ATOM      9  C   UNL     1       0.155  -0.073  -0.220  0.00  0.00    +0.039 C 
ATOM     10  C   UNL     1       1.106  -0.267  -1.408  0.00  0.00    +0.098 C 
ATOM     12  C   UNL     1      -0.411   1.440  -1.957  0.00  0.00    -0.021 C 
ATOM     13  C   UNL     1       0.504   0.606  -2.460  0.00  0.00    -0.009 C 
ENDROOT
BRANCH   8  11
ATOM      4  N   UNL     1      -4.111   0.829   0.352  0.00  0.00    -0.236 N 
ATOM      5  N   UNL     1      -3.880   1.875   1.163  0.00  0.00    -0.171 NA
ATOM     11  C   UNL     1      -1.999   1.272   0.015  0.00  0.00    +0.003 A 
ATOM     14  C   UNL     1      -3.017   0.428  -0.357  0.00  0.00    +0.046 A 
ATOM     15  C   UNL     1      -2.588   2.142   0.953  0.00  0.00    +0.064 A 
ATOM     16  C   UNL     1      -3.037  -0.701  -1.309  0.00  0.00    +0.066 C 
ATOM     17  C   UNL     1      -1.949   3.252   1.681  0.00  0.00    +0.068 C 
BRANCH   4  18
ATOM      1 CL   UNL     1      -7.027  -3.308   1.013  0.00  0.00    -0.083 Cl
ATOM     18  C   UNL     1      -5.385   0.262   0.301  0.00  0.00    +0.067 A 
ATOM     20  C   UNL     1      -5.566  -1.080   0.639  0.00  0.00    +0.048 A 
ATOM     21  C   UNL     1      -6.477   1.036  -0.089  0.00  0.00    +0.028 A 
ATOM     22  C   UNL     1      -6.840  -1.646   0.587  0.00  0.00    +0.046 A 
ATOM     23  C   UNL     1      -7.751   0.469  -0.142  0.00  0.00    +0.007 A 
ATOM     24  C   UNL     1      -7.932  -0.872   0.196  0.00  0.00    -0.032 A 
ATOM     26  C   UNL     1      -9.312  -1.442   0.126  0.00  0.00    +0.045 C 
ENDBRANCH   4  18
ENDBRANCH   8  11
BRANCH  10   3
ATOM      2  O   UNL     1       3.281  -1.861  -0.439  0.00  0.00    -0.252 OA
ATOM      3  N   UNL     1       2.444   0.182  -1.129  0.00  0.00    -0.293 N 
ATOM      6  N   UNL     1       4.646   0.048  -0.477  0.00  0.00    -0.269 N 
ATOM     19  C   UNL     1       3.457  -0.664  -0.655  0.00  0.00    +0.304 C 
ATOM     33  H   UNL     1       2.660   1.169  -1.235  0.00  0.00    +0.151 HD
ATOM     34  H   UNL     1       4.623   1.039  -0.704  0.00  0.00    +0.156 HD
BRANCH   6  25
ATOM     25  C   UNL     1       5.891  -0.442  -0.016  0.00  0.00    +0.036 A 
ATOM     27  C   UNL     1       6.980   0.421   0.102  0.00  0.00    +0.042 A 
ATOM     28  C   UNL     1       6.028  -1.788   0.321  0.00  0.00    +0.023 A 
ATOM     29  C   UNL     1       8.207  -0.062   0.557  0.00  0.00    +0.054 A 
ATOM     30  C   UNL     1       7.255  -2.272   0.776  0.00  0.00    +0.003 A 
ATOM     31  C   UNL     1       8.345  -1.409   0.894  0.00  0.00    +0.019 A 
BRANCH  29  32
ATOM      7  N   UNL     1      10.230   1.539   0.776  0.00  0.00    -0.191 NA
ATOM     32  C   UNL     1       9.323   0.822   0.678  0.00  0.00    +0.099 C 
ENDBRANCH  29  32
ENDBRANCH   6  25
ENDBRANCH  10   3
TORSDOF 5
