REMARK  Name = 7164957
REMARK  7 active torsions:
REMARK  status: ('A' for Active; 'I' for Inactive)
REMARK    1  A    between atoms: N_7  and  C_18
REMARK    2  A    between atoms: C_11  and  C_14
REMARK    3  A    between atoms: C_14  and  C_18
REMARK    4  A    between atoms: C_18  and  C_24
REMARK    5  A    between atoms: C_19  and  C_21
REMARK    6  A    between atoms: C_25  and  C_27
REMARK    7  A    between atoms: C_26  and  C_28
REMARK                            x       y       z     vdW  Elec       q    Type
REMARK                         _______ _______ _______ _____ _____    ______ ____
ROOT
ATOM      5  O   UNL     1       3.277   2.092   2.167  0.00  0.00    -0.269 OA
ATOM      6  O   UNL     1      -2.142  -1.935   1.011  0.00  0.00    -0.270 OA
ATOM      8  N   UNL     1       2.207   0.327   1.106  0.00  0.00    -0.283 N 
ATOM      9  N   UNL     1       0.144  -1.613   1.373  0.00  0.00    -0.294 N 
ATOM     19  C   UNL     1       0.834   0.758   1.407  0.00  0.00    +0.179 C 
ATOM     20  C   UNL     1      -0.022  -0.331   2.053  0.00  0.00    +0.140 C 
ATOM     22  C   UNL     1       2.366  -1.022   0.529  0.00  0.00    +0.128 C 
ATOM     23  C   UNL     1       1.534  -2.058   1.274  0.00  0.00    +0.127 C 
ATOM     25  C   UNL     1       3.261   1.256   1.262  0.00  0.00    +0.254 C 
ATOM     26  C   UNL     1      -0.976  -2.315   0.925  0.00  0.00    +0.247 C 
ENDROOT
BRANCH  26  28
ATOM      2  F   UNL     1      -0.193  -4.978  -3.046  0.00  0.00    -0.205 F 
ATOM     28  C   UNL     1      -0.762  -3.615   0.276  0.00  0.00    +0.040 A 
ATOM     30  C   UNL     1      -0.576  -3.678  -1.103  0.00  0.00    +0.051 A 
ATOM     31  C   UNL     1      -0.746  -4.778   1.042  0.00  0.00    +0.013 A 
ATOM     34  C   UNL     1      -0.373  -4.913  -1.720  0.00  0.00    +0.124 A 
ATOM     35  C   UNL     1      -0.544  -6.013   0.425  0.00  0.00    +0.004 A 
ATOM     36  C   UNL     1      -0.357  -6.080  -0.956  0.00  0.00    +0.038 A 
ENDBRANCH  26  28
BRANCH  25  27
ATOM      1  S   UNL     1       5.922   1.667   0.800  0.00  0.00    -0.092 S 
ATOM     27  C   UNL     1       4.356   1.199   0.299  0.00  0.00    +0.074 A 
ATOM     29  C   UNL     1       4.322   0.806  -1.017  0.00  0.00    +0.021 A 
ATOM     32  C   UNL     1       5.606   0.890  -1.629  0.00  0.00    +0.008 A 
ATOM     33  C   UNL     1       6.567   1.344  -0.753  0.00  0.00    +0.046 A 
ENDBRANCH  25  27
BRANCH  19  21
ATOM      3  O   UNL     1       0.566   0.706  -0.967  0.00  0.00    -0.274 OA
ATOM      7  N   UNL     1      -0.635   2.272   0.269  0.00  0.00    -0.302 N 
ATOM     21  C   UNL     1       0.250   1.220   0.103  0.00  0.00    +0.236 C 
ATOM     37  H   UNL     1      -0.773   2.662   1.197  0.00  0.00    +0.150 HD
BRANCH   7  18
ATOM     18  C   UNL     1      -1.315   2.914  -0.833  0.00  0.00    +0.159 C 
BRANCH  18  24
ATOM      4  O   UNL     1       0.340   4.689  -0.715  0.00  0.00    -0.274 OA
ATOM     10  N   UNL     1      -0.542   4.148  -2.766  0.00  0.00    -0.328 N 
ATOM     24  C   UNL     1      -0.409   3.998  -1.402  0.00  0.00    +0.231 C 
ATOM     38  H   UNL     1      -1.179   3.584  -3.318  0.00  0.00    +0.145 HD
ATOM     39  H   UNL     1       0.001   4.843  -3.268  0.00  0.00    +0.145 HD
ENDBRANCH  18  24
BRANCH  18  14
ATOM     14  C   UNL     1      -2.696   3.443  -0.432  0.00  0.00    +0.035 C 
BRANCH  14  11
ATOM     11  C   UNL     1      -3.619   2.388   0.174  0.00  0.00    -0.009 C 
ATOM     12  C   UNL     1      -3.837   1.230  -0.809  0.00  0.00    +0.003 C 
ATOM     13  C   UNL     1      -4.959   3.013   0.587  0.00  0.00    +0.003 C 
ATOM     15  C   UNL     1      -4.801   0.187  -0.247  0.00  0.00    +0.000 C 
ATOM     16  C   UNL     1      -5.920   1.968   1.146  0.00  0.00    +0.000 C 
ATOM     17  C   UNL     1      -6.127   0.814   0.170  0.00  0.00    +0.000 C 
ENDBRANCH  14  11
ENDBRANCH  18  14
ENDBRANCH   7  18
ENDBRANCH  19  21
TORSDOF 7
