REMARK  Name = 51137826
REMARK  4 active torsions:
REMARK  status: ('A' for Active; 'I' for Inactive)
REMARK    1  A    between atoms: C_7  and  C_11
REMARK    2  A    between atoms: C_12  and  C_13
REMARK    3  A    between atoms: C_14  and  C_15
REMARK    4  A    between atoms: C_15  and  C_18
REMARK                            x       y       z     vdW  Elec       q    Type
REMARK                         _______ _______ _______ _____ _____    ______ ____
ROOT
ATOM      2  O   UNL     1      -2.801  -0.768   2.254  0.00  0.00    -0.270 OA
ATOM      3  N   UNL     1      -1.740  -1.720   0.420  0.00  0.00    -0.297 N 
ATOM      7  C   UNL     1      -0.177  -2.801  -1.014  0.00  0.00    +0.095 C 
ATOM      8  C   UNL     1      -0.713  -3.806   0.018  0.00  0.00    +0.033 C 
ATOM      9  C   UNL     1      -1.236  -1.691  -0.954  0.00  0.00    +0.121 C 
ATOM     10  C   UNL     1      -1.311  -2.928   1.109  0.00  0.00    +0.109 C 
ATOM     12  C   UNL     1      -2.461  -0.733   1.073  0.00  0.00    +0.248 C 
ENDROOT
BRANCH  12  13
ATOM      6  N   UNL     1      -4.010   1.410  -1.591  0.00  0.00    -0.263 NA
ATOM     13  C   UNL     1      -2.836   0.460   0.297  0.00  0.00    +0.055 A 
ATOM     16  C   UNL     1      -2.408   1.726   0.678  0.00  0.00    +0.016 A 
ATOM     17  C   UNL     1      -3.628   0.356  -0.835  0.00  0.00    +0.123 A 
ATOM     19  C   UNL     1      -2.780   2.835  -0.074  0.00  0.00    +0.020 A 
ATOM     22  C   UNL     1      -3.574   2.625  -1.190  0.00  0.00    +0.111 A 
ENDBRANCH  12  13
BRANCH   7  11
ATOM      1  O   UNL     1       1.423  -1.304   0.092  0.00  0.00    -0.424 OA
ATOM      4  N   UNL     1       2.381  -2.935  -1.102  0.00  0.00    -0.112 NA
ATOM      5  N   UNL     1       3.386  -2.172  -0.537  0.00  0.00    -0.112 NA
ATOM     11  C   UNL     1       1.253  -2.392  -0.708  0.00  0.00    +0.222 A 
ATOM     14  C   UNL     1       2.781  -1.232   0.151  0.00  0.00    +0.222 A 
BRANCH  14  15
ATOM     15  C   UNL     1       3.354  -0.146   0.955  0.00  0.00    +0.132 C 
BRANCH  15  18
ATOM     18  C   UNL     1       2.916   1.255   0.540  0.00  0.00    -0.038 A 
ATOM     20  C   UNL     1       3.521   1.880  -0.551  0.00  0.00    +0.004 A 
ATOM     21  C   UNL     1       1.911   1.911   1.250  0.00  0.00    +0.004 A 
ATOM     23  C   UNL     1       3.121   3.161  -0.931  0.00  0.00    +0.000 A 
ATOM     24  C   UNL     1       1.511   3.192   0.870  0.00  0.00    +0.000 A 
ATOM     25  C   UNL     1       2.116   3.817  -0.220  0.00  0.00    +0.000 A 
ENDBRANCH  15  18
ENDBRANCH  14  15
ENDBRANCH   7  11
TORSDOF 4
