REMARK  Name = 11883069
REMARK  11 active torsions:
REMARK  status: ('A' for Active; 'I' for Inactive)
REMARK    1  A    between atoms: O_2  and  C_15
REMARK    2  A    between atoms: O_3  and  C_20
REMARK    3  A    between atoms: N_8  and  C_26
REMARK    4  A    between atoms: N_8  and  C_27
REMARK    5  A    between atoms: C_10  and  C_18
REMARK    6  A    between atoms: C_12  and  C_20
REMARK    7  A    between atoms: C_12  and  C_21
REMARK    8  A    between atoms: C_13  and  C_23
REMARK    9  A    between atoms: C_23  and  C_24
REMARK   10  A    between atoms: C_26  and  C_29
REMARK   11  A    between atoms: C_28  and  C_30
REMARK                            x       y       z     vdW  Elec       q    Type
REMARK                         _______ _______ _______ _____ _____    ______ ____
ROOT
ATOM      1  S   UNL     1       0.416   2.833   0.134  0.00  0.00    -0.057 S 
ATOM      5  O   UNL     1       3.854  -0.242  -0.154  0.00  0.00    -0.266 OA
ATOM      7  N   UNL     1       0.994   0.319  -0.060  0.00  0.00    -0.229 NA
ATOM      9  N   UNL     1       2.847   1.858   0.020  0.00  0.00    -0.258 N 
ATOM     10  C   UNL     1      -2.763  -0.443   0.354  0.00  0.00    -0.019 C 
ATOM     11  C   UNL     1      -3.198   0.918  -0.348  0.00  0.00    +0.011 C 
ATOM     12  C   UNL     1      -4.739   1.251  -0.373  0.00  0.00    +0.021 C 
ATOM     13  C   UNL     1      -1.274  -0.785  -0.112  0.00  0.00    +0.054 C 
ATOM     14  C   UNL     1      -3.698  -1.587  -0.117  0.00  0.00    +0.010 C 
ATOM     15  C   UNL     1      -5.529  -0.012  -0.821  0.00  0.00    +0.123 C 
ATOM     16  C   UNL     1      -2.307   2.107   0.117  0.00  0.00    +0.049 C 
ATOM     17  C   UNL     1      -5.180  -1.256  -0.012  0.00  0.00    +0.032 C 
ATOM     18  C   UNL     1      -2.814  -0.365   1.900  0.00  0.00    +0.012 C 
ATOM     19  C   UNL     1      -0.384   0.428  -0.017  0.00  0.00    +0.058 A 
ATOM     21  C   UNL     1      -5.002   2.360  -1.432  0.00  0.00    +0.016 C 
ATOM     22  C   UNL     1      -0.869   1.717   0.066  0.00  0.00    +0.015 A 
ATOM     25  C   UNL     1       1.519   1.522   0.019  0.00  0.00    +0.165 A 
ATOM     28  C   UNL     1       3.951   0.980  -0.065  0.00  0.00    +0.285 C 
ATOM     37  H   UNL     1       3.038   2.854   0.097  0.00  0.00    +0.157 HD
ENDROOT
BRANCH  28  30
ATOM      6  O   UNL     1       5.310   2.980   0.145  0.00  0.00    -0.458 OA
ATOM     30  C   UNL     1       5.272   1.629   0.007  0.00  0.00    +0.189 A 
ATOM     32  C   UNL     1       6.546   1.112  -0.041  0.00  0.00    +0.054 A 
ATOM     33  C   UNL     1       7.423   2.217   0.076  0.00  0.00    +0.042 A 
ATOM     34  C   UNL     1       6.622   3.330   0.187  0.00  0.00    +0.196 A 
ENDBRANCH  28  30
BRANCH  15   2
ATOM      2  O   UNL     1      -6.934   0.216  -0.730  0.00  0.00    -0.391 OA
ATOM     35  H   UNL     1      -7.384  -0.580  -1.062  0.00  0.00    +0.210 HD
ENDBRANCH  15   2
BRANCH  12  20
ATOM     20  C   UNL     1      -5.296   1.807   0.956  0.00  0.00    +0.165 C 
BRANCH  20   3
ATOM      3  O   UNL     1      -6.671   2.063   0.774  0.00  0.00    -0.394 OA
ATOM     36  H   UNL     1      -7.012   2.422   1.611  0.00  0.00    +0.209 HD
ENDBRANCH  20   3
ENDBRANCH  12  20
BRANCH  13  23
ATOM     23  C   UNL     1      -0.648  -1.997   0.591  0.00  0.00    +0.106 C 
BRANCH  23  24
ATOM      4  O   UNL     1       0.694  -2.235  -1.381  0.00  0.00    -0.276 OA
ATOM      8  N   UNL     1       1.030  -3.787   0.310  0.00  0.00    -0.301 N 
ATOM     24  C   UNL     1       0.413  -2.669  -0.261  0.00  0.00    +0.216 C 
ATOM     27  C   UNL     1       0.680  -4.281   1.636  0.00  0.00    +0.132 C 
BRANCH   8  26
ATOM     26  C   UNL     1       2.071  -4.544  -0.380  0.00  0.00    +0.134 C 
BRANCH  26  29
ATOM     29  C   UNL     1       3.403  -3.963  -0.040  0.00  0.00    -0.016 C 
ATOM     31  C   UNL     1       4.261  -3.482  -0.948  0.00  0.00    +0.005 C 
ENDBRANCH  26  29
ENDBRANCH   8  26
ENDBRANCH  23  24
ENDBRANCH  13  23
TORSDOF 8
