REMARK  Name = 38029812
REMARK  13 active torsions:
REMARK  status: ('A' for Active; 'I' for Inactive)
REMARK    1  A    between atoms: O_1  and  C_18
REMARK    2  A    between atoms: O_1  and  C_21
REMARK    3  A    between atoms: N_4  and  C_13
REMARK    4  A    between atoms: C_6  and  C_10
REMARK    5  A    between atoms: C_7  and  C_13
REMARK    6  A    between atoms: C_9  and  C_14
REMARK    7  A    between atoms: C_10  and  C_15
REMARK    8  A    between atoms: C_10  and  C_16
REMARK    9  A    between atoms: C_11  and  C_17
REMARK   10  A    between atoms: C_14  and  C_18
REMARK   11  A    between atoms: C_19  and  C_20
REMARK   12  A    between atoms: C_21  and  C_24
REMARK   13  A    between atoms: C_27  and  C_28
REMARK                            x       y       z     vdW  Elec       q    Type
REMARK                         _______ _______ _______ _____ _____    ______ ____
ROOT
ATOM      6  C   UNL     1      -2.290  -0.883   0.536  0.00  0.00    +0.000 C 
ATOM      7  C   UNL     1      -2.114  -2.217  -0.232  0.00  0.00    +0.032 C 
ATOM      8  C   UNL     1      -3.198   0.073  -0.251  0.00  0.00    +0.012 C 
ATOM      9  C   UNL     1      -2.639   0.387  -1.652  0.00  0.00    +0.025 C 
ATOM     11  C   UNL     1      -2.191  -0.868  -2.373  0.00  0.00    -0.073 C 
ATOM     12  C   UNL     1      -1.975  -2.026  -1.724  0.00  0.00    -0.022 C 
ATOM     17  C   UNL     1      -2.041  -0.774  -3.866  0.00  0.00    +0.039 C 
ENDROOT
BRANCH   6  10
ATOM     10  C   UNL     1      -2.863  -1.106   1.939  0.00  0.00    -0.013 C 
ATOM     15  C   UNL     1      -4.379  -1.267   1.875  0.00  0.00    +0.007 C 
ATOM     16  C   UNL     1      -2.481   0.048   2.860  0.00  0.00    +0.007 C 
ENDBRANCH   6  10
BRANCH   7  13
ATOM     13  C   UNL     1      -0.911  -3.006   0.297  0.00  0.00    +0.112 C 
BRANCH  13   4
ATOM      3  O   UNL     1       0.993  -2.078   2.236  0.00  0.00    -0.270 OA
ATOM      4  N   UNL     1       0.309  -2.310   0.030  0.00  0.00    -0.311 N 
ATOM     19  C   UNL     1       1.180  -1.893   1.036  0.00  0.00    +0.244 C 
ATOM     29  H   UNL     1       0.525  -2.115  -0.941  0.00  0.00    +0.149 HD
BRANCH  19  20
ATOM     20  C   UNL     1       2.394  -1.158   0.596  0.00  0.00    +0.037 A 
ATOM     22  C   UNL     1       3.005  -0.244   1.454  0.00  0.00    +0.014 A 
ATOM     23  C   UNL     1       2.922  -1.383  -0.676  0.00  0.00    +0.014 A 
ATOM     25  C   UNL     1       4.144   0.446   1.040  0.00  0.00    +0.019 A 
ATOM     26  C   UNL     1       4.061  -0.693  -1.089  0.00  0.00    +0.019 A 
ATOM     27  C   UNL     1       4.673   0.222  -0.231  0.00  0.00    +0.052 A 
BRANCH  27  28
ATOM      5  N   UNL     1       6.788   1.502  -0.999  0.00  0.00    -0.191 NA
ATOM     28  C   UNL     1       5.840   0.928  -0.655  0.00  0.00    +0.099 C 
ENDBRANCH  27  28
ENDBRANCH  19  20
ENDBRANCH  13   4
ENDBRANCH   7  13
BRANCH   9  14
ATOM     14  C   UNL     1      -1.501   1.411  -1.576  0.00  0.00    +0.128 C 
BRANCH  14  18
ATOM      2  O   UNL     1      -2.842   3.403  -1.192  0.00  0.00    -0.251 OA
ATOM     18  C   UNL     1      -1.929   2.662  -0.855  0.00  0.00    +0.308 C 
BRANCH  18   1
ATOM      1  O   UNL     1      -1.124   2.827   0.237  0.00  0.00    -0.465 OA
BRANCH   1  21
ATOM     21  C   UNL     1      -1.401   3.980   1.037  0.00  0.00    +0.229 C 
ATOM     24  C   UNL     1      -0.431   4.019   2.199  0.00  0.00    +0.048 C 
ENDBRANCH   1  21
ENDBRANCH  18   1
ENDBRANCH  14  18
ENDBRANCH   9  14
TORSDOF 9
