REMARK  Name = 45360868
REMARK  6 active torsions:
REMARK  status: ('A' for Active; 'I' for Inactive)
REMARK    1  A    between atoms: N_4  and  C_17
REMARK    2  A    between atoms: N_5  and  C_16
REMARK    3  A    between atoms: C_11  and  C_15
REMARK    4  A    between atoms: C_15  and  C_18
REMARK    5  A    between atoms: C_16  and  C_19
REMARK    6  A    between atoms: C_18  and  C_20
REMARK                            x       y       z     vdW  Elec       q    Type
REMARK                         _______ _______ _______ _____ _____    ______ ____
ROOT
ATOM      2  O   UNL     1      -0.644  -0.777  -1.122  0.00  0.00    -0.274 OA
ATOM      4  N   UNL     1       1.145   2.141   0.688  0.00  0.00    -0.296 NA
ATOM      5  N   UNL     1      -2.279   0.993   0.096  0.00  0.00    -0.286 NA
ATOM      6  N   UNL     1       0.852   0.796  -1.847  0.00  0.00    -0.312 N 
ATOM      8  C   UNL     1      -0.315   2.344   0.553  0.00  0.00    +0.084 C 
ATOM      9  C   UNL     1      -1.075   1.549  -0.549  0.00  0.00    +0.161 C 
ATOM     10  C   UNL     1      -1.115   1.983   1.818  0.00  0.00    +0.036 C 
ATOM     11  C   UNL     1       1.938   2.567  -0.499  0.00  0.00    +0.074 C 
ATOM     12  C   UNL     1      -2.523   1.782   1.299  0.00  0.00    +0.087 C 
ATOM     13  C   UNL     1       1.339   2.161  -1.860  0.00  0.00    +0.123 C 
ATOM     14  C   UNL     1      -0.289   0.400  -1.175  0.00  0.00    +0.232 C 
ATOM     17  C   UNL     1       1.654   2.797   1.904  0.00  0.00    +0.105 C 
ATOM     30  H   UNL     1       1.377   0.089  -2.352  0.00  0.00    +0.149 HD
ENDROOT
BRANCH  11  15
ATOM     15  C   UNL     1       3.367   1.986  -0.429  0.00  0.00    +0.029 C 
BRANCH  15  18
ATOM     18  C   UNL     1       3.361   0.500  -0.129  0.00  0.00    +0.097 C 
BRANCH  18  20
ATOM      3  O   UNL     1       5.730   0.680  -0.295  0.00  0.00    -0.276 OA
ATOM      7  N   UNL     1       4.861  -1.408   0.177  0.00  0.00    -0.301 N 
ATOM     20  C   UNL     1       4.762  -0.055  -0.090  0.00  0.00    +0.216 C 
ATOM     21  C   UNL     1       6.142  -2.096   0.242  0.00  0.00    +0.108 C 
ATOM     22  C   UNL     1       3.758  -2.330   0.432  0.00  0.00    +0.108 C 
ATOM     23  C   UNL     1       5.819  -3.444   0.868  0.00  0.00    +0.020 C 
ATOM     24  C   UNL     1       4.399  -3.710   0.385  0.00  0.00    +0.020 C 
ENDBRANCH  18  20
ENDBRANCH  15  18
ENDBRANCH  11  15
BRANCH   5  16
ATOM     16  C   UNL     1      -3.441   0.959  -0.782  0.00  0.00    +0.120 C 
BRANCH  16  19
ATOM      1 CL   UNL     1      -4.951  -4.011  -0.365  0.00  0.00    -0.084 Cl
ATOM     19  C   UNL     1      -4.466  -0.041  -0.318  0.00  0.00    -0.032 A 
ATOM     25  C   UNL     1      -4.258  -1.404  -0.531  0.00  0.00    +0.025 A 
ATOM     26  C   UNL     1      -5.624   0.395   0.327  0.00  0.00    +0.005 A 
ATOM     27  C   UNL     1      -5.207  -2.331  -0.100  0.00  0.00    +0.041 A 
ATOM     28  C   UNL     1      -6.573  -0.532   0.758  0.00  0.00    +0.002 A 
ATOM     29  C   UNL     1      -6.365  -1.895   0.545  0.00  0.00    +0.020 A 
ENDBRANCH  16  19
ENDBRANCH   5  16
TORSDOF 5
