REMARK  Name = 75536171
REMARK  13 active torsions:
REMARK  status: ('A' for Active; 'I' for Inactive)
REMARK    1  A    between atoms: O_2  and  C_30
REMARK    2  A    between atoms: N_4  and  C_14
REMARK    3  A    between atoms: C_7  and  C_11
REMARK    4  A    between atoms: C_8  and  C_14
REMARK    5  A    between atoms: C_10  and  C_15
REMARK    6  A    between atoms: C_11  and  C_16
REMARK    7  A    between atoms: C_11  and  C_17
REMARK    8  A    between atoms: C_12  and  C_18
REMARK    9  A    between atoms: C_15  and  C_19
REMARK   10  A    between atoms: C_20  and  C_23
REMARK   11  A    between atoms: C_23  and  C_26
REMARK   12  A    between atoms: C_24  and  C_29
REMARK   13  A    between atoms: C_26  and  C_30
REMARK                            x       y       z     vdW  Elec       q    Type
REMARK                         _______ _______ _______ _____ _____    ______ ____
ROOT
ATOM      7  C   UNL     1      -0.686  -1.930  -0.934  0.00  0.00    +0.000 C 
ATOM      8  C   UNL     1      -1.798  -2.853  -0.377  0.00  0.00    +0.032 C 
ATOM      9  C   UNL     1       0.665  -2.265  -0.283  0.00  0.00    +0.012 C 
ATOM     10  C   UNL     1       0.626  -2.112   1.250  0.00  0.00    +0.022 C 
ATOM     12  C   UNL     1      -0.597  -2.774   1.851  0.00  0.00    -0.073 C 
ATOM     13  C   UNL     1      -1.666  -3.110   1.106  0.00  0.00    -0.022 C 
ATOM     18  C   UNL     1      -0.546  -3.083   3.321  0.00  0.00    +0.039 C 
ENDROOT
BRANCH   7  11
ATOM     11  C   UNL     1      -0.568  -2.038  -2.457  0.00  0.00    -0.013 C 
ATOM     16  C   UNL     1       0.048  -0.767  -3.034  0.00  0.00    +0.007 C 
ATOM     17  C   UNL     1       0.257  -3.262  -2.842  0.00  0.00    +0.007 C 
ENDBRANCH   7  11
BRANCH   8  14
ATOM     14  C   UNL     1      -3.190  -2.284  -0.674  0.00  0.00    +0.112 C 
BRANCH  14   4
ATOM      1  O   UNL     1      -3.754   0.315  -1.814  0.00  0.00    -0.276 OA
ATOM      4  N   UNL     1      -3.397  -1.057   0.030  0.00  0.00    -0.315 N 
ATOM     20  C   UNL     1      -3.666   0.159  -0.599  0.00  0.00    +0.214 C 
ATOM     31  H   UNL     1      -3.403  -1.085   1.046  0.00  0.00    +0.149 HD
BRANCH  20  23
ATOM     23  C   UNL     1      -3.839   1.292   0.397  0.00  0.00    +0.107 C 
BRANCH  23  26
ATOM     26  C   UNL     1      -4.133   2.626  -0.281  0.00  0.00    +0.129 C 
BRANCH  26  30
ATOM      3  O   UNL     1      -4.227   3.626   1.936  0.00  0.00    -0.251 OA
ATOM     30  C   UNL     1      -4.295   3.745   0.720  0.00  0.00    +0.305 C 
BRANCH  30   2
ATOM      2  O   UNL     1      -4.532   4.933   0.103  0.00  0.00    -0.481 OA
ATOM     33  H   UNL     1      -4.638   5.665   0.748  0.00  0.00    +0.295 HD
ENDBRANCH  30   2
ENDBRANCH  26  30
ENDBRANCH  23  26
ENDBRANCH  20  23
ENDBRANCH  14   4
ENDBRANCH   8  14
BRANCH  10  15
ATOM     15  C   UNL     1       0.710  -0.638   1.661  0.00  0.00    +0.082 C 
BRANCH  15  19
ATOM      5  N   UNL     1       3.173  -0.200   1.643  0.00  0.00    -0.342 N 
ATOM      6  N   UNL     1       1.992   0.841   0.075  0.00  0.00    -0.232 NA
ATOM     19  C   UNL     1       1.938   0.019   1.099  0.00  0.00    +0.109 A 
ATOM     21  C   UNL     1       4.084   0.528   0.922  0.00  0.00    +0.066 A 
ATOM     22  C   UNL     1       3.322   1.169  -0.051  0.00  0.00    +0.092 A 
ATOM     24  C   UNL     1       3.961   2.013  -0.976  0.00  0.00    -0.023 A 
ATOM     25  C   UNL     1       5.467   0.677   1.034  0.00  0.00    +0.028 A 
ATOM     27  C   UNL     1       5.348   2.177  -0.882  0.00  0.00    +0.005 A 
ATOM     28  C   UNL     1       6.086   1.520   0.105  0.00  0.00    +0.002 A 
ATOM     29  C   UNL     1       3.216   2.737  -2.049  0.00  0.00    +0.046 C 
ATOM     32  H   UNL     1       3.380  -0.794   2.435  0.00  0.00    +0.167 HD
ENDBRANCH  15  19
ENDBRANCH  10  15
TORSDOF 9
