REMARK  Name = 38026946
REMARK  10 active torsions:
REMARK  status: ('A' for Active; 'I' for Inactive)
REMARK    1  A    between atoms: N_4  and  C_14
REMARK    2  A    between atoms: C_7  and  C_11
REMARK    3  A    between atoms: C_8  and  C_14
REMARK    4  A    between atoms: C_10  and  C_16
REMARK    5  A    between atoms: C_11  and  C_19
REMARK    6  A    between atoms: C_11  and  C_20
REMARK    7  A    between atoms: C_12  and  C_22
REMARK    8  A    between atoms: C_15  and  C_21
REMARK    9  A    between atoms: C_16  and  C_23
REMARK   10  A    between atoms: C_28  and  C_29
REMARK                            x       y       z     vdW  Elec       q    Type
REMARK                         _______ _______ _______ _____ _____    ______ ____
ROOT
ATOM      7  C   UNL     1       2.766  -0.893   0.646  0.00  0.00    +0.000 C 
ATOM      8  C   UNL     1       3.777  -0.708  -0.512  0.00  0.00    +0.032 C 
ATOM      9  C   UNL     1       1.845  -2.091   0.368  0.00  0.00    +0.012 C 
ATOM     10  C   UNL     1       1.058  -1.928  -0.945  0.00  0.00    +0.023 C 
ATOM     12  C   UNL     1       1.951  -1.482  -2.086  0.00  0.00    -0.073 C 
ATOM     13  C   UNL     1       3.168  -0.951  -1.873  0.00  0.00    -0.022 C 
ATOM     22  C   UNL     1       1.431  -1.702  -3.479  0.00  0.00    +0.039 C 
ENDROOT
BRANCH   7  11
ATOM     11  C   UNL     1       3.472  -1.083   1.992  0.00  0.00    -0.013 C 
ATOM     19  C   UNL     1       2.554  -0.669   3.138  0.00  0.00    +0.007 C 
ATOM     20  C   UNL     1       3.924  -2.530   2.157  0.00  0.00    +0.007 C 
ENDBRANCH   7  11
BRANCH   8  14
ATOM     14  C   UNL     1       4.409   0.689  -0.478  0.00  0.00    +0.112 C 
BRANCH  14   4
ATOM      1  O   UNL     1       3.618   2.877   1.266  0.00  0.00    -0.276 OA
ATOM      4  N   UNL     1       3.427   1.696  -0.734  0.00  0.00    -0.315 N 
ATOM     21  C   UNL     1       3.112   2.710   0.163  0.00  0.00    +0.216 C 
ATOM     30  H   UNL     1       2.972   1.699  -1.643  0.00  0.00    +0.149 HD
BRANCH  21  15
ATOM     15  C   UNL     1       2.058   3.654  -0.314  0.00  0.00    +0.075 C 
ATOM     17  C   UNL     1       0.730   3.106  -0.748  0.00  0.00    +0.013 C 
ATOM     18  C   UNL     1       0.840   3.877   0.535  0.00  0.00    +0.013 C 
ENDBRANCH  21  15
ENDBRANCH  14   4
ENDBRANCH   8  14
BRANCH  10  16
ATOM     16  C   UNL     1      -0.123  -0.968  -0.766  0.00  0.00    +0.103 C 
BRANCH  16  23
ATOM      2  O   UNL     1      -1.075  -2.820   0.366  0.00  0.00    -0.276 OA
ATOM      3  O   UNL     1      -6.254   2.079  -0.156  0.00  0.00    -0.276 OA
ATOM      5  N   UNL     1      -2.370  -0.895   0.256  0.00  0.00    -0.298 N 
ATOM      6  N   UNL     1      -4.985   0.134  -0.103  0.00  0.00    -0.299 N 
ATOM     23  C   UNL     1      -1.226  -1.651   0.003  0.00  0.00    +0.216 C 
ATOM     24  C   UNL     1      -3.489  -1.486   0.994  0.00  0.00    +0.126 C 
ATOM     25  C   UNL     1      -2.551   0.519  -0.096  0.00  0.00    +0.126 C 
ATOM     26  C   UNL     1      -4.805  -1.281   0.248  0.00  0.00    +0.126 C 
ATOM     27  C   UNL     1      -3.867   0.725  -0.842  0.00  0.00    +0.126 C 
ATOM     28  C   UNL     1      -6.128   0.890   0.151  0.00  0.00    +0.213 C 
ATOM     29  C   UNL     1      -7.263   0.184   0.849  0.00  0.00    +0.109 C 
ENDBRANCH  16  23
ENDBRANCH  10  16
TORSDOF 6
