REMARK  Name = 38030303
REMARK  10 active torsions:
REMARK  status: ('A' for Active; 'I' for Inactive)
REMARK    1  A    between atoms: N_2  and  C_11
REMARK    2  A    between atoms: N_3  and  C_23
REMARK    3  A    between atoms: C_6  and  C_10
REMARK    4  A    between atoms: C_7  and  C_11
REMARK    5  A    between atoms: C_9  and  C_14
REMARK    6  A    between atoms: C_10  and  C_15
REMARK    7  A    between atoms: C_10  and  C_16
REMARK    8  A    between atoms: C_13  and  C_19
REMARK    9  A    between atoms: C_14  and  C_22
REMARK   10  A    between atoms: C_24  and  C_25
REMARK                            x       y       z     vdW  Elec       q    Type
REMARK                         _______ _______ _______ _____ _____    ______ ____
ROOT
ATOM      6  C   UNL     1       1.630  -1.072   0.785  0.00  0.00    +0.000 C 
ATOM      7  C   UNL     1       2.679  -1.473  -0.277  0.00  0.00    +0.029 C 
ATOM      8  C   UNL     1       0.212  -1.163   0.204  0.00  0.00    +0.012 C 
ATOM      9  C   UNL     1      -0.131  -2.562  -0.354  0.00  0.00    +0.024 C 
ATOM     12  C   UNL     1       2.277  -2.703  -1.052  0.00  0.00    -0.023 C 
ATOM     13  C   UNL     1       1.032  -3.211  -1.089  0.00  0.00    -0.073 C 
ATOM     19  C   UNL     1       0.759  -4.495  -1.824  0.00  0.00    +0.039 C 
ENDROOT
BRANCH   6  10
ATOM     10  C   UNL     1       1.765  -1.924   2.055  0.00  0.00    -0.013 C 
ATOM     15  C   UNL     1       3.188  -1.848   2.598  0.00  0.00    +0.007 C 
ATOM     16  C   UNL     1       0.759  -1.472   3.108  0.00  0.00    +0.007 C 
ENDBRANCH   6  10
BRANCH   7  11
ATOM     11  C   UNL     1       2.958  -0.329  -1.258  0.00  0.00    +0.092 C 
BRANCH  11   2
ATOM      2  N   UNL     1       3.374   0.875  -0.541  0.00  0.00    -0.299 NA
ATOM      3  N   UNL     1       4.987   3.252  -0.218  0.00  0.00    -0.303 NA
ATOM     17  C   UNL     1       4.788   0.789  -0.156  0.00  0.00    +0.100 C 
ATOM     18  C   UNL     1       3.136   2.074  -1.354  0.00  0.00    +0.100 C 
ATOM     20  C   UNL     1       5.226   2.052   0.594  0.00  0.00    +0.099 C 
ATOM     21  C   UNL     1       3.573   3.337  -0.604  0.00  0.00    +0.099 C 
ATOM     23  C   UNL     1       5.402   4.456   0.500  0.00  0.00    +0.105 C 
ENDBRANCH  11   2
ENDBRANCH   7  11
BRANCH   9  14
ATOM     14  C   UNL     1      -1.393  -2.448  -1.218  0.00  0.00    +0.105 C 
BRANCH  14  22
ATOM      1  O   UNL     1      -2.799  -0.507  -0.755  0.00  0.00    -0.420 OA
ATOM      4  N   UNL     1      -3.300  -2.313   0.466  0.00  0.00    -0.112 NA
ATOM      5  N   UNL     1      -4.167  -1.298   0.829  0.00  0.00    -0.107 NA
ATOM     22  C   UNL     1      -2.521  -1.806  -0.460  0.00  0.00    +0.218 A 
ATOM     24  C   UNL     1      -3.837  -0.264   0.091  0.00  0.00    +0.248 A 
BRANCH  24  25
ATOM     25  C   UNL     1      -4.393   1.057   0.039  0.00  0.00    +0.038 A 
ATOM     26  C   UNL     1      -3.647   2.106  -0.499  0.00  0.00    +0.013 A 
ATOM     27  C   UNL     1      -5.678   1.293   0.526  0.00  0.00    +0.013 A 
ATOM     28  C   UNL     1      -4.187   3.391  -0.550  0.00  0.00    +0.001 A 
ATOM     29  C   UNL     1      -6.218   2.578   0.475  0.00  0.00    +0.001 A 
ATOM     30  C   UNL     1      -5.473   3.627  -0.063  0.00  0.00    +0.000 A 
ENDBRANCH  24  25
ENDBRANCH  14  22
ENDBRANCH   9  14
TORSDOF 6
