REMARK  Name = 71693896
REMARK  7 active torsions:
REMARK  status: ('A' for Active; 'I' for Inactive)
REMARK    1  A    between atoms: O_1  and  C_10
REMARK    2  A    between atoms: O_2  and  C_12
REMARK    3  A    between atoms: O_4  and  C_20
REMARK    4  A    between atoms: O_4  and  C_28
REMARK    5  A    between atoms: N_7  and  C_9
REMARK    6  A    between atoms: C_8  and  C_13
REMARK    7  A    between atoms: C_16  and  C_19
REMARK                            x       y       z     vdW  Elec       q    Type
REMARK                         _______ _______ _______ _____ _____    ______ ____
ROOT
ATOM      8  C   UNL     1       1.976   1.271   1.003  0.00  0.00    +0.044 C 
ATOM      9  C   UNL     1       1.162   1.741  -0.224  0.00  0.00    +0.112 C 
ATOM     10  C   UNL     1       1.230   3.265  -0.134  0.00  0.00    +0.164 C 
ATOM     11  C   UNL     1       2.921   2.448   1.359  0.00  0.00    +0.044 C 
ATOM     12  C   UNL     1       2.668   3.522   0.303  0.00  0.00    +0.145 C 
ENDROOT
BRANCH   8  13
ATOM     13  C   UNL     1       2.682  -0.049   0.775  0.00  0.00    -0.042 A 
ATOM     14  C   UNL     1       3.615  -0.172  -0.254  0.00  0.00    +0.007 A 
ATOM     15  C   UNL     1       2.398  -1.142   1.594  0.00  0.00    +0.007 A 
ATOM     17  C   UNL     1       4.265  -1.387  -0.464  0.00  0.00    +0.046 A 
ATOM     18  C   UNL     1       3.048  -2.358   1.384  0.00  0.00    +0.046 A 
ATOM     20  C   UNL     1       3.982  -2.481   0.355  0.00  0.00    +0.120 A 
BRANCH  20   4
ATOM      4  O   UNL     1       4.616  -3.667   0.149  0.00  0.00    -0.495 OA
ATOM     28  C   UNL     1       5.559  -3.723  -0.920  0.00  0.00    +0.277 C 
ENDBRANCH  20   4
ENDBRANCH   8  13
BRANCH   9   7
ATOM      3  O   UNL     1       0.158  -0.655  -1.447  0.00  0.00    -0.270 OA
ATOM      7  N   UNL     1      -0.196   1.261  -0.188  0.00  0.00    -0.305 N 
ATOM     16  C   UNL     1      -0.590   0.085  -0.812  0.00  0.00    +0.245 C 
ATOM     29  H   UNL     1      -0.874   1.837   0.298  0.00  0.00    +0.149 HD
BRANCH  16  19
ATOM      5  O   UNL     1      -4.801   0.321   1.588  0.00  0.00    -0.485 OA
ATOM      6  O   UNL     1      -6.070  -1.222  -0.490  0.00  0.00    -0.485 OA
ATOM     19  C   UNL     1      -2.031  -0.259  -0.705  0.00  0.00    +0.040 A 
ATOM     21  C   UNL     1      -2.776   0.194   0.384  0.00  0.00    +0.062 A 
ATOM     22  C   UNL     1      -2.636  -1.038  -1.691  0.00  0.00    +0.017 A 
ATOM     23  C   UNL     1      -4.127  -0.136   0.486  0.00  0.00    +0.163 A 
ATOM     24  C   UNL     1      -3.991  -1.358  -1.597  0.00  0.00    +0.050 A 
ATOM     25  C   UNL     1      -4.740  -0.893  -0.516  0.00  0.00    +0.162 A 
ATOM     26  C   UNL     1      -6.051  -0.350   1.765  0.00  0.00    +0.270 C 
ATOM     27  C   UNL     1      -6.798  -0.425   0.448  0.00  0.00    +0.270 C 
ENDBRANCH  16  19
ENDBRANCH   9   7
BRANCH  10   1
ATOM      1  O   UNL     1       0.954   3.889  -1.373  0.00  0.00    -0.387 OA
ATOM     30  H   UNL     1       1.108   4.842  -1.261  0.00  0.00    +0.210 HD
ENDBRANCH  10   1
BRANCH  12   2
ATOM      2  O   UNL     1       3.573   3.320  -0.778  0.00  0.00    -0.389 OA
ATOM     31  H   UNL     1       4.473   3.457  -0.436  0.00  0.00    +0.210 HD
ENDBRANCH  12   2
TORSDOF 6
