REMARK  Name = 56774195
REMARK  10 active torsions:
REMARK  status: ('A' for Active; 'I' for Inactive)
REMARK    1  A    between atoms: O_2  and  C_27
REMARK    2  A    between atoms: O_2  and  C_28
REMARK    3  A    between atoms: N_3  and  C_8
REMARK    4  A    between atoms: N_3  and  C_14
REMARK    5  A    between atoms: C_6  and  C_11
REMARK    6  A    between atoms: C_6  and  C_12
REMARK    7  A    between atoms: C_7  and  C_10
REMARK    8  A    between atoms: C_10  and  C_13
REMARK    9  A    between atoms: C_14  and  C_16
REMARK   10  A    between atoms: C_17  and  C_20
REMARK                            x       y       z     vdW  Elec       q    Type
REMARK                         _______ _______ _______ _____ _____    ______ ____
ROOT
ATOM      6  C   UNL     1      -2.377   1.759   0.248  0.00  0.00    -0.016 C 
ATOM      7  C   UNL     1      -0.884   1.381   0.344  0.00  0.00    +0.004 C 
ATOM      8  C   UNL     1      -2.681   0.434   0.978  0.00  0.00    +0.060 C 
ATOM      9  C   UNL     1      -1.341  -0.091   0.422  0.00  0.00    +0.023 C 
ATOM     11  C   UNL     1      -2.803   2.970   1.059  0.00  0.00    +0.013 C 
ATOM     12  C   UNL     1      -2.881   1.908  -1.172  0.00  0.00    +0.013 C 
ENDROOT
BRANCH   8   3
ATOM      3  N   UNL     1      -3.778  -0.288   0.334  0.00  0.00    -0.309 NA
ATOM     29  H   UNL     1      -3.592  -1.285   0.221  0.00  0.00    +0.123 HD
BRANCH   3  14
ATOM     14  C   UNL     1      -4.994  -0.134   1.125  0.00  0.00    +0.116 C 
BRANCH  14  16
ATOM      5  N   UNL     1      -8.393  -1.945  -0.790  0.00  0.00    -0.263 NA
ATOM     16  C   UNL     1      -6.183  -0.768   0.454  0.00  0.00    -0.031 A 
ATOM     18  C   UNL     1      -6.798  -0.135  -0.620  0.00  0.00    +0.024 A 
ATOM     19  C   UNL     1      -6.671  -1.989   0.907  0.00  0.00    +0.024 A 
ATOM     21  C   UNL     1      -7.890  -0.759  -1.202  0.00  0.00    +0.111 A 
ATOM     22  C   UNL     1      -7.769  -2.530   0.257  0.00  0.00    +0.111 A 
ENDBRANCH  14  16
ENDBRANCH   3  14
ENDBRANCH   8   3
BRANCH   7  10
ATOM     10  C   UNL     1       0.000   1.713  -0.866  0.00  0.00    +0.063 C 
BRANCH  10  13
ATOM      1  O   UNL     1       3.432   1.907   0.104  0.00  0.00    -0.354 OA
ATOM      4  N   UNL     1       2.167   2.461  -0.055  0.00  0.00    -0.083 NA
ATOM     13  C   UNL     1       1.421   1.476  -0.565  0.00  0.00    +0.084 A 
ATOM     15  C   UNL     1       2.154   0.291  -0.748  0.00  0.00    +0.076 A 
ATOM     17  C   UNL     1       3.412   0.615  -0.312  0.00  0.00    +0.167 A 
BRANCH  17  20
ATOM     20  C   UNL     1       4.662  -0.097  -0.205  0.00  0.00    +0.020 A 
ATOM     23  C   UNL     1       4.741  -1.431  -0.606  0.00  0.00    +0.015 A 
ATOM     24  C   UNL     1       5.791   0.549   0.297  0.00  0.00    +0.015 A 
ATOM     25  C   UNL     1       5.950  -2.119  -0.503  0.00  0.00    +0.046 A 
ATOM     26  C   UNL     1       7.000  -0.139   0.400  0.00  0.00    +0.046 A 
ATOM     27  C   UNL     1       7.079  -1.473  -0.000  0.00  0.00    +0.120 A 
BRANCH  27   2
ATOM      2  O   UNL     1       8.259  -2.144   0.097  0.00  0.00    -0.495 OA
ATOM     28  C   UNL     1       9.375  -1.423   0.620  0.00  0.00    +0.277 C 
ENDBRANCH  27   2
ENDBRANCH  17  20
ENDBRANCH  10  13
ENDBRANCH   7  10
TORSDOF 7
