REMARK  Name = 11883062
REMARK  8 active torsions:
REMARK  status: ('A' for Active; 'I' for Inactive)
REMARK    1  A    between atoms: O_3  and  C_15
REMARK    2  A    between atoms: O_4  and  C_20
REMARK    3  A    between atoms: C_10  and  C_18
REMARK    4  A    between atoms: C_12  and  C_20
REMARK    5  A    between atoms: C_12  and  C_21
REMARK    6  A    between atoms: C_13  and  C_23
REMARK    7  A    between atoms: C_23  and  C_24
REMARK    8  A    between atoms: C_31  and  C_32
REMARK                            x       y       z     vdW  Elec       q    Type
REMARK                         _______ _______ _______ _____ _____    ______ ____
ROOT
ATOM      1  S   UNL     1       0.043   2.736   0.463  0.00  0.00    -0.057 S 
ATOM      6  O   UNL     1       3.319  -0.435  -0.479  0.00  0.00    -0.270 OA
ATOM      7  N   UNL     1       0.460   0.273  -0.211  0.00  0.00    -0.229 NA
ATOM      9  N   UNL     1       2.407   1.656   0.111  0.00  0.00    -0.261 N 
ATOM     10  C   UNL     1      -3.333  -0.329   0.142  0.00  0.00    -0.019 C 
ATOM     11  C   UNL     1      -3.689   1.164  -0.283  0.00  0.00    +0.011 C 
ATOM     12  C   UNL     1      -5.207   1.587  -0.209  0.00  0.00    +0.021 C 
ATOM     13  C   UNL     1      -1.873  -0.665  -0.415  0.00  0.00    +0.054 C 
ATOM     14  C   UNL     1      -4.343  -1.306  -0.513  0.00  0.00    +0.010 C 
ATOM     15  C   UNL     1      -6.079   0.480  -0.866  0.00  0.00    +0.123 C 
ATOM     16  C   UNL     1      -2.720   2.189   0.375  0.00  0.00    +0.049 C 
ATOM     17  C   UNL     1      -5.800  -0.913  -0.313  0.00  0.00    +0.032 C 
ATOM     18  C   UNL     1      -3.359  -0.540   1.676  0.00  0.00    +0.012 C 
ATOM     19  C   UNL     1      -0.908   0.453  -0.117  0.00  0.00    +0.058 A 
ATOM     21  C   UNL     1      -5.411   2.888  -1.036  0.00  0.00    +0.016 C 
ATOM     22  C   UNL     1      -1.309   1.731   0.218  0.00  0.00    +0.015 A 
ATOM     25  C   UNL     1       1.061   1.407   0.079  0.00  0.00    +0.165 A 
ATOM     31  C   UNL     1       3.438   0.743  -0.163  0.00  0.00    +0.250 C 
ATOM     40  H   UNL     1       2.632   2.624   0.318  0.00  0.00    +0.157 HD
ENDROOT
BRANCH  31  32
ATOM      2  F   UNL     1       8.612   2.821   0.136  0.00  0.00    -0.205 F 
ATOM     32  C   UNL     1       4.816   1.296  -0.083  0.00  0.00    +0.037 A 
ATOM     33  C   UNL     1       5.811   0.714  -0.839  0.00  0.00    +0.016 A 
ATOM     34  C   UNL     1       5.053   2.373   0.745  0.00  0.00    +0.016 A 
ATOM     35  C   UNL     1       7.103   1.234  -0.765  0.00  0.00    +0.039 A 
ATOM     36  C   UNL     1       6.345   2.893   0.819  0.00  0.00    +0.039 A 
ATOM     37  C   UNL     1       7.371   2.323   0.064  0.00  0.00    +0.123 A 
ENDBRANCH  31  32
BRANCH  15   3
ATOM      3  O   UNL     1      -7.467   0.770  -0.702  0.00  0.00    -0.391 OA
ATOM     38  H   UNL     1      -7.702   1.477  -1.324  0.00  0.00    +0.210 HD
ENDBRANCH  15   3
BRANCH  12  20
ATOM     20  C   UNL     1      -5.712   1.914   1.213  0.00  0.00    +0.165 C 
BRANCH  20   4
ATOM      4  O   UNL     1      -7.069   2.282   1.115  0.00  0.00    -0.394 OA
ATOM     39  H   UNL     1      -7.111   3.237   0.939  0.00  0.00    +0.209 HD
ENDBRANCH  20   4
ENDBRANCH  12  20
BRANCH  13  23
ATOM     23  C   UNL     1      -1.316  -2.023   0.033  0.00  0.00    +0.106 C 
BRANCH  23  24
ATOM      5  O   UNL     1       0.151  -1.856  -1.819  0.00  0.00    -0.276 OA
ATOM      8  N   UNL     1       0.917  -3.078   0.002  0.00  0.00    -0.301 N 
ATOM     24  C   UNL     1      -0.021  -2.306  -0.684  0.00  0.00    +0.216 C 
ATOM     26  C   UNL     1       0.760  -3.590   1.369  0.00  0.00    +0.108 C 
ATOM     27  C   UNL     1       2.199  -3.399  -0.630  0.00  0.00    +0.108 C 
ATOM     28  C   UNL     1       0.982  -5.100   1.411  0.00  0.00    +0.019 C 
ATOM     29  C   UNL     1       2.447  -4.905  -0.627  0.00  0.00    +0.019 C 
ATOM     30  C   UNL     1       2.321  -5.483   0.782  0.00  0.00    +0.003 C 
ENDBRANCH  23  24
ENDBRANCH  13  23
TORSDOF 6
