REMARK  Name = 11885265
REMARK  3 active torsions:
REMARK  status: ('A' for Active; 'I' for Inactive)
REMARK    1  A    between atoms: C_13  and  C_14
REMARK    2  A    between atoms: C_22  and  C_24
REMARK    3  A    between atoms: C_25  and  C_26
REMARK                            x       y       z     vdW  Elec       q    Type
REMARK                         _______ _______ _______ _____ _____    ______ ____
ROOT
ATOM      2  O   UNL     1       3.670   1.120   2.201  0.00  0.00    -0.275 OA
ATOM      3  O   UNL     1      -0.443  -2.265   1.667  0.00  0.00    -0.267 OA
ATOM      4  N   UNL     1       3.952  -0.238   0.337  0.00  0.00    -0.300 N 
ATOM      5  N   UNL     1       1.311  -2.033   0.149  0.00  0.00    -0.311 N 
ATOM      6  C   UNL     1       3.719  -2.695   0.719  0.00  0.00    +0.027 C 
ATOM      7  C   UNL     1       3.202  -1.751  -1.492  0.00  0.00    +0.054 C 
ATOM      8  C   UNL     1       3.860  -2.931  -0.779  0.00  0.00    +0.018 C 
ATOM      9  C   UNL     1       4.410  -1.382   1.126  0.00  0.00    +0.113 C 
ATOM     10  C   UNL     1       3.936  -0.448  -1.119  0.00  0.00    +0.117 C 
ATOM     11  C   UNL     1       2.229  -2.698   1.084  0.00  0.00    +0.130 C 
ATOM     12  C   UNL     1       1.735  -1.639  -1.123  0.00  0.00    +0.027 A 
ATOM     14  C   UNL     1       3.651   0.965   0.977  0.00  0.00    +0.219 C 
ATOM     17  C   UNL     1       0.852  -1.140  -2.001  0.00  0.00    +0.022 A 
ATOM     20  C   UNL     1      -0.032  -1.910   0.560  0.00  0.00    +0.259 A 
ATOM     22  C   UNL     1      -0.993  -1.319  -0.436  0.00  0.00    +0.040 A 
ATOM     23  C   UNL     1      -0.529  -0.978  -1.647  0.00  0.00    +0.015 A 
ENDROOT
BRANCH  14  13
ATOM     13  C   UNL     1       3.277   2.120   0.097  0.00  0.00    +0.075 C 
ATOM     15  C   UNL     1       1.770   2.107  -0.169  0.00  0.00    +0.013 C 
ATOM     16  C   UNL     1       3.720   3.434   0.744  0.00  0.00    +0.013 C 
ATOM     18  C   UNL     1       1.331   3.320  -0.985  0.00  0.00    +0.001 C 
ATOM     19  C   UNL     1       3.276   4.644  -0.074  0.00  0.00    +0.001 C 
ATOM     21  C   UNL     1       1.773   4.627  -0.334  0.00  0.00    +0.000 C 
ENDBRANCH  14  13
BRANCH  22  24
ATOM     24  C   UNL     1      -2.378  -1.142  -0.082  0.00  0.00    +0.014 C 
ATOM     25  C   UNL     1      -3.139  -0.164  -0.589  0.00  0.00    +0.008 C 
BRANCH  25  26
ATOM      1 CL   UNL     1      -8.873   0.752   0.778  0.00  0.00    -0.084 Cl
ATOM     26  C   UNL     1      -4.555   0.062  -0.251  0.00  0.00    -0.025 A 
ATOM     27  C   UNL     1      -5.295  -0.971   0.300  0.00  0.00    +0.009 A 
ATOM     28  C   UNL     1      -5.120   1.304  -0.491  0.00  0.00    +0.009 A 
ATOM     29  C   UNL     1      -6.636  -0.757   0.620  0.00  0.00    +0.020 A 
ATOM     30  C   UNL     1      -6.461   1.519  -0.172  0.00  0.00    +0.020 A 
ATOM     31  C   UNL     1      -7.219   0.488   0.384  0.00  0.00    +0.041 A 
ENDBRANCH  25  26
ENDBRANCH  22  24
TORSDOF 3
