REMARK  Name = 25389777
REMARK  8 active torsions:
REMARK  status: ('A' for Active; 'I' for Inactive)
REMARK    1  A    between atoms: O_2  and  C_19
REMARK    2  A    between atoms: O_2  and  C_32
REMARK    3  A    between atoms: N_5  and  C_10
REMARK    4  A    between atoms: N_5  and  C_20
REMARK    5  A    between atoms: C_8  and  C_16
REMARK    6  A    between atoms: C_12  and  C_19
REMARK    7  A    between atoms: C_20  and  C_25
REMARK    8  A    between atoms: C_20  and  C_26
REMARK                            x       y       z     vdW  Elec       q    Type
REMARK                         _______ _______ _______ _____ _____    ______ ____
ROOT
ATOM      4  N   UNL     1      -0.251   0.780   0.686  0.00  0.00    -0.274 NA
ATOM      6  N   UNL     1       3.040  -1.045   0.910  0.00  0.00    -0.356 N 
ATOM      7  C   UNL     1       0.637  -0.246   1.307  0.00  0.00    +0.106 C 
ATOM      8  C   UNL     1      -0.893   0.380  -0.592  0.00  0.00    +0.090 C 
ATOM      9  C   UNL     1       0.032  -1.650   1.196  0.00  0.00    +0.044 C 
ATOM     10  C   UNL     1      -0.206  -2.100  -0.249  0.00  0.00    +0.058 C 
ATOM     11  C   UNL     1      -0.333  -0.918  -1.215  0.00  0.00    +0.042 C 
ATOM     12  C   UNL     1       0.409   2.111   0.679  0.00  0.00    +0.172 C 
ATOM     13  C   UNL     1       2.038  -0.127   0.777  0.00  0.00    +0.038 A 
ATOM     14  C   UNL     1       1.693   2.162  -0.182  0.00  0.00    +0.068 C 
ATOM     15  C   UNL     1       2.544   0.971   0.108  0.00  0.00    -0.016 A 
ATOM     17  C   UNL     1       3.902   0.697  -0.206  0.00  0.00    +0.003 A 
ATOM     18  C   UNL     1       4.187  -0.574   0.307  0.00  0.00    +0.047 A 
ATOM     23  C   UNL     1       4.922   1.401  -0.875  0.00  0.00    +0.010 A 
ATOM     24  C   UNL     1       5.447  -1.171   0.182  0.00  0.00    +0.026 A 
ATOM     27  C   UNL     1       6.186   0.814  -1.008  0.00  0.00    +0.001 A 
ATOM     30  C   UNL     1       6.442  -0.452  -0.487  0.00  0.00    +0.002 A 
ATOM     34  H   UNL     1       2.959  -1.940   1.373  0.00  0.00    +0.166 HD
ENDROOT
BRANCH   8  16
ATOM      1  F   UNL     1      -6.539   0.243  -0.249  0.00  0.00    -0.205 F 
ATOM     16  C   UNL     1      -2.419   0.343  -0.499  0.00  0.00    -0.030 A 
ATOM     21  C   UNL     1      -3.194   0.820  -1.556  0.00  0.00    +0.008 A 
ATOM     22  C   UNL     1      -3.037  -0.168   0.643  0.00  0.00    +0.008 A 
ATOM     28  C   UNL     1      -4.585   0.786  -1.472  0.00  0.00    +0.038 A 
ATOM     29  C   UNL     1      -4.428  -0.201   0.727  0.00  0.00    +0.038 A 
ATOM     31  C   UNL     1      -5.203   0.276  -0.330  0.00  0.00    +0.123 A 
ENDBRANCH   8  16
BRANCH  12  19
ATOM      3  O   UNL     1      -0.412   3.944  -0.647  0.00  0.00    -0.249 OA
ATOM     19  C   UNL     1      -0.579   3.163   0.280  0.00  0.00    +0.325 C 
BRANCH  19   2
ATOM      2  O   UNL     1      -1.665   3.103   1.101  0.00  0.00    -0.467 OA
ATOM     32  C   UNL     1      -2.695   4.059   0.830  0.00  0.00    +0.280 C 
ENDBRANCH  19   2
ENDBRANCH  12  19
BRANCH  10   5
ATOM      5  N   UNL     1      -1.371  -2.986  -0.302  0.00  0.00    -0.311 NA
ATOM     33  H   UNL     1      -1.701  -3.083  -1.261  0.00  0.00    +0.122 HD
BRANCH   5  20
ATOM     20  C   UNL     1      -1.048  -4.295   0.245  0.00  0.00    +0.048 C 
ATOM     25  C   UNL     1      -2.333  -4.996   0.675  0.00  0.00    +0.023 C 
ATOM     26  C   UNL     1      -0.288  -5.126  -0.785  0.00  0.00    +0.023 C 
ENDBRANCH   5  20
ENDBRANCH  10   5
TORSDOF 5
