REMARK  Name = 56775545
REMARK  10 active torsions:
REMARK  status: ('A' for Active; 'I' for Inactive)
REMARK    1  A    between atoms: O_4  and  C_20
REMARK    2  A    between atoms: O_4  and  C_22
REMARK    3  A    between atoms: O_5  and  C_21
REMARK    4  A    between atoms: N_6  and  C_8
REMARK    5  A    between atoms: N_6  and  C_12
REMARK    6  A    between atoms: C_8  and  C_11
REMARK    7  A    between atoms: C_11  and  C_13
REMARK    8  A    between atoms: C_12  and  C_14
REMARK    9  A    between atoms: C_16  and  C_20
REMARK   10  A    between atoms: C_18  and  C_21
REMARK                            x       y       z     vdW  Elec       q    Type
REMARK                         _______ _______ _______ _____ _____    ______ ____
ROOT
ATOM      1  O   UNL     1      -0.522  -3.449   1.294  0.00  0.00    -0.376 OA
ATOM      8  C   UNL     1       0.061  -1.857  -0.003  0.00  0.00    +0.072 C 
ATOM      9  C   UNL     1      -0.998  -2.954   0.022  0.00  0.00    +0.184 C 
ATOM     10  C   UNL     1       0.563  -2.494   1.288  0.00  0.00    +0.184 C 
ENDROOT
BRANCH   8   6
ATOM      6  N   UNL     1      -0.574  -0.586   0.318  0.00  0.00    -0.300 NA
ATOM     23  H   UNL     1       0.051   0.133   0.683  0.00  0.00    +0.123 HD
BRANCH   6  12
ATOM     12  C   UNL     1      -1.282  -0.077  -0.854  0.00  0.00    +0.156 C 
BRANCH  12  14
ATOM      2  O   UNL     1      -3.532   0.265   0.009  0.00  0.00    -0.461 OA
ATOM     14  C   UNL     1      -2.404   0.851  -0.472  0.00  0.00    +0.119 A 
ATOM     17  C   UNL     1      -2.546   2.219  -0.504  0.00  0.00    +0.046 A 
ATOM     18  C   UNL     1      -4.404   1.270   0.287  0.00  0.00    +0.131 A 
ATOM     19  C   UNL     1      -3.845   2.491  -0.011  0.00  0.00    +0.047 A 
BRANCH  18  21
ATOM     21  C   UNL     1      -5.710   0.867   0.827  0.00  0.00    +0.230 C 
BRANCH  21   5
ATOM      5  O   UNL     1      -6.528   0.324  -0.212  0.00  0.00    -0.387 OA
ATOM     24  H   UNL     1      -7.374   0.074   0.196  0.00  0.00    +0.210 HD
ENDBRANCH  21   5
ENDBRANCH  18  21
ENDBRANCH  12  14
ENDBRANCH   6  12
ENDBRANCH   8   6
BRANCH   8  11
ATOM     11  C   UNL     1       0.985  -1.768  -1.178  0.00  0.00    +0.085 C 
BRANCH  11  13
ATOM      3  O   UNL     1       4.244  -0.617  -0.124  0.00  0.00    -0.357 OA
ATOM      7  N   UNL     1       3.300  -1.615  -0.332  0.00  0.00    -0.083 NA
ATOM     13  C   UNL     1       2.231  -0.982  -0.824  0.00  0.00    +0.086 A 
ATOM     15  C   UNL     1       2.440   0.403  -0.947  0.00  0.00    +0.073 A 
ATOM     16  C   UNL     1       3.721   0.580  -0.494  0.00  0.00    +0.163 A 
BRANCH  16  20
ATOM     20  C   UNL     1       4.591   1.752  -0.339  0.00  0.00    +0.236 C 
BRANCH  20   4
ATOM      4  O   UNL     1       4.686   2.121   1.040  0.00  0.00    -0.375 OA
ATOM     22  C   UNL     1       5.523   3.252   1.211  0.00  0.00    +0.194 C 
ENDBRANCH  20   4
ENDBRANCH  16  20
ENDBRANCH  11  13
ENDBRANCH   8  11
TORSDOF 9
