REMARK  Name = 56775241
REMARK  3 active torsions:
REMARK  status: ('A' for Active; 'I' for Inactive)
REMARK    1  A    between atoms: N_5  and  C_17
REMARK    2  A    between atoms: C_8  and  C_14
REMARK    3  A    between atoms: C_17  and  C_18
REMARK                            x       y       z     vdW  Elec       q    Type
REMARK                         _______ _______ _______ _____ _____    ______ ____
ROOT
ATOM      1  O   UNL     1      -0.909   2.406   0.661  0.00  0.00    -0.364 OA
ATOM      2  O   UNL     1      -4.662  -0.445   1.427  0.00  0.00    -0.275 OA
ATOM      3  O   UNL     1       1.846   2.400  -1.590  0.00  0.00    -0.273 OA
ATOM      4  N   UNL     1      -2.495  -0.136   0.676  0.00  0.00    -0.297 N 
ATOM      5  N   UNL     1       0.884   0.605  -0.464  0.00  0.00    -0.288 N 
ATOM      7  C   UNL     1      -0.159   0.131   0.436  0.00  0.00    +0.124 C 
ATOM      9  C   UNL     1      -0.688   1.201   1.389  0.00  0.00    +0.158 C 
ATOM     10  C   UNL     1      -1.424  -0.321  -0.298  0.00  0.00    +0.133 C 
ATOM     11  C   UNL     1      -2.038   0.643   1.821  0.00  0.00    +0.141 C 
ATOM     14  C   UNL     1      -3.788  -0.623   0.584  0.00  0.00    +0.219 C 
ATOM     15  C   UNL     1       1.072   1.957  -0.740  0.00  0.00    +0.242 C 
ATOM     16  C   UNL     1       0.305   2.914   0.156  0.00  0.00    +0.256 C 
ENDROOT
BRANCH  14   8
ATOM      8  C   UNL     1      -4.110  -1.443  -0.623  0.00  0.00    +0.075 C 
ATOM     12  C   UNL     1      -4.550  -0.752  -1.880  0.00  0.00    +0.013 C 
ATOM     13  C   UNL     1      -5.537  -1.546  -1.076  0.00  0.00    +0.013 C 
ENDBRANCH  14   8
BRANCH   5  17
ATOM     17  C   UNL     1       1.629  -0.406  -1.202  0.00  0.00    +0.145 C 
BRANCH  17  18
ATOM      6  N   UNL     1       5.188  -0.210   0.061  0.00  0.00    -0.263 NA
ATOM     18  C   UNL     1       2.909  -0.778  -0.510  0.00  0.00    -0.012 A 
ATOM     19  C   UNL     1       3.027  -1.979   0.179  0.00  0.00    +0.008 A 
ATOM     20  C   UNL     1       4.008   0.065  -0.539  0.00  0.00    +0.115 A 
ATOM     21  C   UNL     1       4.225  -2.297   0.810  0.00  0.00    +0.020 A 
ATOM     22  C   UNL     1       5.266  -1.387   0.722  0.00  0.00    +0.111 A 
ENDBRANCH  17  18
ENDBRANCH   5  17
TORSDOF 3
