REMARK  Name = 28961668
REMARK  8 active torsions:
REMARK  status: ('A' for Active; 'I' for Inactive)
REMARK    1  A    between atoms: O_2  and  C_11
REMARK    2  A    between atoms: O_3  and  C_18
REMARK    3  A    between atoms: N_5  and  C_9
REMARK    4  A    between atoms: N_6  and  C_19
REMARK    5  A    between atoms: N_7  and  C_15
REMARK    6  A    between atoms: N_8  and  C_21
REMARK    7  A    between atoms: C_10  and  C_15
REMARK    8  A    between atoms: C_12  and  C_18
REMARK                            x       y       z     vdW  Elec       q    Type
REMARK                         _______ _______ _______ _____ _____    ______ ____
ROOT
ATOM      1  O   UNL     1      -0.249  -1.661  -0.699  0.00  0.00    -0.365 OA
ATOM      9  C   UNL     1      -2.449  -0.753  -0.674  0.00  0.00    +0.118 C 
ATOM     10  C   UNL     1      -0.956  -0.401  -0.697  0.00  0.00    +0.155 C 
ATOM     11  C   UNL     1      -2.468  -2.124  -0.017  0.00  0.00    +0.165 C 
ATOM     12  C   UNL     1      -1.203  -2.736  -0.608  0.00  0.00    +0.174 C 
ENDROOT
BRANCH   9   5
ATOM      5  N   UNL     1      -3.337   0.239  -0.071  0.00  0.00    -0.292 NA
ATOM      6  N   UNL     1      -5.571   2.073  -0.138  0.00  0.00    -0.303 NA
ATOM     13  C   UNL     1      -3.252   1.519  -0.786  0.00  0.00    +0.100 C 
ATOM     14  C   UNL     1      -4.723  -0.245  -0.051  0.00  0.00    +0.100 C 
ATOM     16  C   UNL     1      -4.186   2.559  -0.158  0.00  0.00    +0.099 C 
ATOM     17  C   UNL     1      -5.656   0.795   0.579  0.00  0.00    +0.099 C 
ATOM     19  C   UNL     1      -6.461   3.065   0.463  0.00  0.00    +0.105 C 
ENDBRANCH   9   5
BRANCH  11   2
ATOM      2  O   UNL     1      -2.357  -2.027   1.397  0.00  0.00    -0.388 OA
ATOM     27  H   UNL     1      -2.482  -2.918   1.764  0.00  0.00    +0.210 HD
ENDBRANCH  11   2
BRANCH  10  15
ATOM     15  C   UNL     1      -0.427   0.412   0.479  0.00  0.00    +0.139 C 
BRANCH  15   7
ATOM      4  O   UNL     1       2.209  -0.652   0.829  0.00  0.00    -0.253 OA
ATOM      7  N   UNL     1       0.808   1.057   0.146  0.00  0.00    -0.297 N 
ATOM      8  N   UNL     1       3.087   1.330  -0.070  0.00  0.00    -0.269 N 
ATOM     20  C   UNL     1       2.069   0.469   0.348  0.00  0.00    +0.304 C 
ATOM     28  H   UNL     1       0.768   1.983  -0.268  0.00  0.00    +0.150 HD
ATOM     30  H   UNL     1       2.799   2.229  -0.447  0.00  0.00    +0.156 HD
BRANCH   8  21
ATOM     21  C   UNL     1       4.484   1.105  -0.032  0.00  0.00    +0.035 A 
ATOM     22  C   UNL     1       5.361   2.087  -0.494  0.00  0.00    +0.023 A 
ATOM     23  C   UNL     1       4.983  -0.097   0.468  0.00  0.00    +0.023 A 
ATOM     24  C   UNL     1       6.737   1.865  -0.457  0.00  0.00    +0.002 A 
ATOM     25  C   UNL     1       6.360  -0.319   0.505  0.00  0.00    +0.002 A 
ATOM     26  C   UNL     1       7.237   0.662   0.042  0.00  0.00    +0.000 A 
ENDBRANCH   8  21
ENDBRANCH  15   7
ENDBRANCH  10  15
BRANCH  12  18
ATOM     18  C   UNL     1      -0.597  -3.878   0.187  0.00  0.00    +0.190 C 
BRANCH  18   3
ATOM      3  O   UNL     1       0.558  -4.346  -0.491  0.00  0.00    -0.392 OA
ATOM     29  H   UNL     1       0.924  -5.077   0.037  0.00  0.00    +0.210 HD
ENDBRANCH  18   3
ENDBRANCH  12  18
TORSDOF 7
