REMARK  Name = 45361159
REMARK  9 active torsions:
REMARK  status: ('A' for Active; 'I' for Inactive)
REMARK    1  A    between atoms: O_4  and  C_30
REMARK    2  A    between atoms: O_4  and  C_34
REMARK    3  A    between atoms: N_6  and  C_19
REMARK    4  A    between atoms: N_7  and  C_18
REMARK    5  A    between atoms: C_13  and  C_17
REMARK    6  A    between atoms: C_17  and  C_20
REMARK    7  A    between atoms: C_18  and  C_21
REMARK    8  A    between atoms: C_20  and  C_22
REMARK    9  A    between atoms: C_23  and  C_30
REMARK                            x       y       z     vdW  Elec       q    Type
REMARK                         _______ _______ _______ _____ _____    ______ ____
ROOT
ATOM      2  O   UNL     1       1.161   0.522  -0.935  0.00  0.00    -0.274 OA
ATOM      6  N   UNL     1       0.543  -3.026   0.485  0.00  0.00    -0.296 NA
ATOM      7  N   UNL     1       3.376  -0.790  -0.121  0.00  0.00    -0.286 NA
ATOM      8  N   UNL     1       0.141  -1.329  -1.813  0.00  0.00    -0.312 N 
ATOM     10  C   UNL     1       1.972  -2.739   0.231  0.00  0.00    +0.084 C 
ATOM     11  C   UNL     1       2.333  -1.605  -0.773  0.00  0.00    +0.161 C 
ATOM     12  C   UNL     1       2.758  -2.318   1.486  0.00  0.00    +0.036 C 
ATOM     13  C   UNL     1      -0.208  -3.516  -0.704  0.00  0.00    +0.074 C 
ATOM     14  C   UNL     1       3.975  -1.616   0.922  0.00  0.00    +0.087 C 
ATOM     15  C   UNL     1       0.090  -2.763  -2.016  0.00  0.00    +0.123 C 
ATOM     16  C   UNL     1       1.175  -0.688  -1.156  0.00  0.00    +0.232 C 
ATOM     19  C   UNL     1       0.390  -3.966   1.608  0.00  0.00    +0.105 C 
ATOM     35  H   UNL     1      -0.624  -0.761  -2.164  0.00  0.00    +0.149 HD
ENDROOT
BRANCH  13  17
ATOM     17  C   UNL     1      -1.729  -3.429  -0.455  0.00  0.00    +0.029 C 
BRANCH  17  20
ATOM     20  C   UNL     1      -2.139  -2.071   0.080  0.00  0.00    +0.097 C 
BRANCH  20  22
ATOM      3  O   UNL     1      -4.327  -2.979   0.027  0.00  0.00    -0.276 OA
ATOM      9  N   UNL     1      -4.132  -0.792   0.784  0.00  0.00    -0.301 N 
ATOM     22  C   UNL     1      -3.630  -1.996   0.292  0.00  0.00    +0.216 C 
ATOM     23  C   UNL     1      -5.356   1.825   0.655  0.00  0.00    +0.101 C 
ATOM     24  C   UNL     1      -5.564  -0.655   1.057  0.00  0.00    +0.108 C 
ATOM     25  C   UNL     1      -3.328   0.394   1.109  0.00  0.00    +0.108 C 
ATOM     26  C   UNL     1      -6.144   0.554   0.328  0.00  0.00    +0.033 C 
ATOM     27  C   UNL     1      -3.863   1.625   0.382  0.00  0.00    +0.033 C 
BRANCH  23  30
ATOM      5  O   UNL     1      -6.785   2.856  -0.985  0.00  0.00    -0.251 OA
ATOM     30  C   UNL     1      -5.881   2.962  -0.167  0.00  0.00    +0.310 C 
BRANCH  30   4
ATOM      4  O   UNL     1      -5.200   4.102   0.144  0.00  0.00    -0.468 OA
ATOM     34  C   UNL     1      -5.603   5.273  -0.573  0.00  0.00    +0.280 C 
ENDBRANCH  30   4
ENDBRANCH  23  30
ENDBRANCH  20  22
ENDBRANCH  17  20
ENDBRANCH  13  17
BRANCH   7  18
ATOM     18  C   UNL     1       4.372  -0.274  -1.051  0.00  0.00    +0.120 C 
BRANCH  18  21
ATOM      1  F   UNL     1       7.062   4.217   1.033  0.00  0.00    -0.205 F 
ATOM     21  C   UNL     1       5.091   0.925  -0.494  0.00  0.00    -0.033 A 
ATOM     28  C   UNL     1       4.591   2.207  -0.725  0.00  0.00    +0.008 A 
ATOM     29  C   UNL     1       6.257   0.756   0.252  0.00  0.00    +0.008 A 
ATOM     31  C   UNL     1       5.257   3.319  -0.210  0.00  0.00    +0.038 A 
ATOM     32  C   UNL     1       6.923   1.868   0.768  0.00  0.00    +0.038 A 
ATOM     33  C   UNL     1       6.423   3.149   0.537  0.00  0.00    +0.123 A 
ENDBRANCH  18  21
ENDBRANCH   7  18
TORSDOF 7
