REMARK  Name = 26742955
REMARK  11 active torsions:
REMARK  status: ('A' for Active; 'I' for Inactive)
REMARK    1  A    between atoms: N_4  and  C_17
REMARK    2  A    between atoms: N_4  and  C_18
REMARK    3  A    between atoms: C_6  and  C_12
REMARK    4  A    between atoms: C_7  and  C_10
REMARK    5  A    between atoms: C_10  and  C_13
REMARK    6  A    between atoms: C_12  and  C_14
REMARK    7  A    between atoms: C_16  and  C_19
REMARK    8  A    between atoms: C_17  and  C_21
REMARK    9  A    between atoms: C_19  and  C_20
REMARK   10  A    between atoms: C_20  and  C_22
REMARK   11  A    between atoms: C_22  and  C_25
REMARK                            x       y       z     vdW  Elec       q    Type
REMARK                         _______ _______ _______ _____ _____    ______ ____
ROOT
ATOM      3  N   UNL     1       5.452  -1.030  -0.625  0.00  0.00    -0.316 NA
ATOM      6  C   UNL     1       2.578  -0.359  -0.624  0.00  0.00    +0.004 C 
ATOM      7  C   UNL     1       3.613   0.393   0.248  0.00  0.00    +0.012 C 
ATOM      8  C   UNL     1       3.297  -0.981  -1.833  0.00  0.00    +0.019 C 
ATOM      9  C   UNL     1       4.824  -0.494   0.584  0.00  0.00    +0.085 C 
ATOM     11  C   UNL     1       4.511  -1.813  -1.424  0.00  0.00    +0.081 C 
ATOM     29  H   UNL     1       6.242  -1.618  -0.362  0.00  0.00    +0.122 HD
ENDROOT
BRANCH   7  10
ATOM     10  C   UNL     1       3.008   0.981   1.523  0.00  0.00    +0.064 C 
BRANCH  10  13
ATOM      2  O   UNL     1       0.902   3.798   0.755  0.00  0.00    -0.359 OA
ATOM      5  N   UNL     1       2.139   3.224   1.022  0.00  0.00    -0.083 NA
ATOM     13  C   UNL     1       1.884   1.926   1.210  0.00  0.00    +0.084 A 
ATOM     15  C   UNL     1       0.517   1.625   1.075  0.00  0.00    +0.071 A 
ATOM     16  C   UNL     1      -0.056   2.836   0.789  0.00  0.00    +0.138 A 
BRANCH  16  19
ATOM     19  C   UNL     1      -1.432   3.272   0.526  0.00  0.00    +0.077 C 
BRANCH  19  20
ATOM     20  C   UNL     1      -1.915   2.924  -0.900  0.00  0.00    +0.007 C 
BRANCH  20  22
ATOM     22  C   UNL     1      -3.333   3.422  -1.178  0.00  0.00    -0.003 C 
ATOM     25  C   UNL     1      -3.768   3.103  -2.599  0.00  0.00    +0.004 C 
ENDBRANCH  20  22
ENDBRANCH  19  20
ENDBRANCH  16  19
ENDBRANCH  10  13
ENDBRANCH   7  10
BRANCH   6  12
ATOM     12  C   UNL     1       1.774  -1.419   0.138  0.00  0.00    +0.100 C 
BRANCH  12  14
ATOM      1  O   UNL     1       0.155  -1.220  -1.617  0.00  0.00    -0.276 OA
ATOM      4  N   UNL     1      -0.319  -2.736   0.072  0.00  0.00    -0.300 N 
ATOM     14  C   UNL     1       0.471  -1.770  -0.559  0.00  0.00    +0.216 C 
ATOM     18  C   UNL     1       0.075  -3.373   1.323  0.00  0.00    +0.132 C 
BRANCH   4  17
ATOM     17  C   UNL     1      -1.600  -3.180  -0.474  0.00  0.00    +0.142 C 
BRANCH  17  21
ATOM     21  C   UNL     1      -2.738  -2.320  -0.006  0.00  0.00    -0.030 A 
ATOM     23  C   UNL     1      -3.422  -2.645   1.165  0.00  0.00    +0.005 A 
ATOM     24  C   UNL     1      -3.111  -1.196  -0.743  0.00  0.00    +0.005 A 
ATOM     26  C   UNL     1      -4.480  -1.847   1.599  0.00  0.00    +0.000 A 
ATOM     27  C   UNL     1      -4.169  -0.397  -0.308  0.00  0.00    +0.000 A 
ATOM     28  C   UNL     1      -4.854  -0.722   0.863  0.00  0.00    +0.000 A 
ENDBRANCH  17  21
ENDBRANCH   4  17
ENDBRANCH  12  14
ENDBRANCH   6  12
TORSDOF 9
