REMARK  Name = 11885280
REMARK  5 active torsions:
REMARK  status: ('A' for Active; 'I' for Inactive)
REMARK    1  A    between atoms: S_1  and  N_6
REMARK    2  A    between atoms: S_1  and  C_20
REMARK    3  A    between atoms: N_8  and  C_31
REMARK    4  A    between atoms: C_18  and  C_21
REMARK    5  A    between atoms: C_32  and  C_33
REMARK                            x       y       z     vdW  Elec       q    Type
REMARK                         _______ _______ _______ _____ _____    ______ ____
ROOT
ATOM      4  O   UNL     1      -1.722   1.076  -1.750  0.00  0.00    -0.267 OA
ATOM      6  N   UNL     1       2.956   0.100  -0.330  0.00  0.00    -0.176 NA
ATOM      7  N   UNL     1       0.099   1.451  -0.342  0.00  0.00    -0.311 N 
ATOM      9  C   UNL     1       2.337   2.360  -1.193  0.00  0.00    +0.025 C 
ATOM     10  C   UNL     1       2.057   1.849   1.193  0.00  0.00    +0.052 C 
ATOM     11  C   UNL     1       2.475   2.938   0.209  0.00  0.00    +0.017 C 
ATOM     12  C   UNL     1       3.249   1.134  -1.364  0.00  0.00    +0.114 C 
ATOM     13  C   UNL     1       3.006   0.644   1.060  0.00  0.00    +0.119 C 
ATOM     14  C   UNL     1       0.862   2.034  -1.454  0.00  0.00    +0.130 C 
ATOM     15  C   UNL     1       0.622   1.418   0.953  0.00  0.00    +0.026 A 
ATOM     16  C   UNL     1      -0.136   0.988   1.974  0.00  0.00    +0.022 A 
ATOM     17  C   UNL     1      -1.214   1.029  -0.628  0.00  0.00    +0.259 A 
ATOM     18  C   UNL     1      -2.027   0.519   0.531  0.00  0.00    +0.047 A 
ATOM     19  C   UNL     1      -1.478   0.527   1.755  0.00  0.00    +0.015 A 
ENDROOT
BRANCH  18  21
ATOM     21  C   UNL     1      -3.396   0.009   0.338  0.00  0.00    -0.013 A 
ATOM     24  C   UNL     1      -4.485   0.877   0.436  0.00  0.00    +0.010 A 
ATOM     25  C   UNL     1      -3.606  -1.341   0.057  0.00  0.00    +0.010 A 
ATOM     29  C   UNL     1      -5.781   0.394   0.253  0.00  0.00    +0.024 A 
ATOM     30  C   UNL     1      -4.902  -1.824  -0.126  0.00  0.00    +0.024 A 
ATOM     31  C   UNL     1      -5.989  -0.957  -0.027  0.00  0.00    +0.033 A 
BRANCH  31   8
ATOM      5  O   UNL     1      -8.639   0.471   0.070  0.00  0.00    -0.276 OA
ATOM      8  N   UNL     1      -7.285  -1.439  -0.211  0.00  0.00    -0.286 N 
ATOM     32  C   UNL     1      -8.490  -0.726  -0.153  0.00  0.00    +0.214 C 
ATOM     33  C   UNL     1      -9.680  -1.617  -0.410  0.00  0.00    +0.109 C 
ATOM     34  H   UNL     1      -7.353  -2.435  -0.412  0.00  0.00    +0.155 HD
ENDBRANCH  31   8
ENDBRANCH  18  21
BRANCH   6   1
ATOM      1  S   UNL     1       3.718  -1.414  -0.559  0.00  0.00    +0.061 S 
ATOM      2  O   UNL     1       3.729  -1.715  -1.976  0.00  0.00    -0.153 OA
ATOM      3  O   UNL     1       3.214  -2.354   0.419  0.00  0.00    -0.153 OA
BRANCH   1  20
ATOM     20  C   UNL     1       5.442  -1.220  -0.121  0.00  0.00    +0.105 A 
ATOM     22  C   UNL     1       5.816  -1.452   1.180  0.00  0.00    +0.028 A 
ATOM     23  C   UNL     1       6.328  -0.846  -1.101  0.00  0.00    +0.028 A 
ATOM     26  C   UNL     1       7.160  -1.299   1.523  0.00  0.00    +0.002 A 
ATOM     27  C   UNL     1       7.672  -0.694  -0.759  0.00  0.00    +0.002 A 
ATOM     28  C   UNL     1       8.088  -0.920   0.553  0.00  0.00    +0.000 A 
ENDBRANCH   1  20
ENDBRANCH   6   1
TORSDOF 4
