REMARK  Name = 7161596
REMARK  6 active torsions:
REMARK  status: ('A' for Active; 'I' for Inactive)
REMARK    1  A    between atoms: S_1  and  N_8
REMARK    2  A    between atoms: S_1  and  C_16
REMARK    3  A    between atoms: O_5  and  C_14
REMARK    4  A    between atoms: O_5  and  C_24
REMARK    5  A    between atoms: C_10  and  C_14
REMARK    6  A    between atoms: C_15  and  C_17
REMARK                            x       y       z     vdW  Elec       q    Type
REMARK                         _______ _______ _______ _____ _____    ______ ____
ROOT
ATOM      7  O   UNL     1      -2.617  -0.491   2.426  0.00  0.00    -0.270 OA
ATOM      8  N   UNL     1       1.320  -0.475  -0.765  0.00  0.00    -0.160 NA
ATOM      9  N   UNL     1      -1.124   0.009   0.696  0.00  0.00    -0.294 N 
ATOM     10  C   UNL     1       1.021  -1.251   0.470  0.00  0.00    +0.205 C 
ATOM     11  C   UNL     1       0.033  -0.549   1.398  0.00  0.00    +0.140 C 
ATOM     12  C   UNL     1       0.615   0.829  -0.875  0.00  0.00    +0.129 C 
ATOM     13  C   UNL     1      -0.870   0.616  -0.615  0.00  0.00    +0.125 C 
ATOM     15  C   UNL     1      -2.372   0.009   1.329  0.00  0.00    +0.247 C 
ENDROOT
BRANCH  15  17
ATOM      2  F   UNL     1      -6.138  -0.169  -1.716  0.00  0.00    -0.205 F 
ATOM     17  C   UNL     1      -3.495   0.661   0.637  0.00  0.00    +0.040 A 
ATOM     20  C   UNL     1      -4.298  -0.079  -0.227  0.00  0.00    +0.051 A 
ATOM     21  C   UNL     1      -3.750   2.013   0.851  0.00  0.00    +0.013 A 
ATOM     26  C   UNL     1      -5.364   0.538  -0.883  0.00  0.00    +0.124 A 
ATOM     27  C   UNL     1      -4.815   2.630   0.195  0.00  0.00    +0.004 A 
ATOM     28  C   UNL     1      -5.622   1.893  -0.672  0.00  0.00    +0.038 A 
ENDBRANCH  15  17
BRANCH   8   1
ATOM      1  S   UNL     1       2.935  -0.508  -1.324  0.00  0.00    +0.062 S 
ATOM      3  O   UNL     1       2.965   0.013  -2.676  0.00  0.00    -0.153 OA
ATOM      4  O   UNL     1       3.531  -1.781  -0.980  0.00  0.00    -0.153 OA
BRANCH   1  16
ATOM     16  C   UNL     1       3.863   0.678  -0.357  0.00  0.00    +0.106 A 
ATOM     18  C   UNL     1       4.463   0.250   0.801  0.00  0.00    +0.028 A 
ATOM     19  C   UNL     1       3.940   1.973  -0.809  0.00  0.00    +0.028 A 
ATOM     22  C   UNL     1       5.186   1.175   1.556  0.00  0.00    +0.002 A 
ATOM     23  C   UNL     1       4.663   2.897  -0.055  0.00  0.00    +0.002 A 
ATOM     25  C   UNL     1       5.286   2.498   1.127  0.00  0.00    +0.000 A 
ENDBRANCH   1  16
ENDBRANCH   8   1
BRANCH  10  14
ATOM      6  O   UNL     1       0.297  -2.808  -1.214  0.00  0.00    -0.249 OA
ATOM     14  C   UNL     1       0.472  -2.549  -0.031  0.00  0.00    +0.327 C 
BRANCH  14   5
ATOM      5  O   UNL     1       0.206  -3.369   1.026  0.00  0.00    -0.467 OA
ATOM     24  C   UNL     1      -0.329  -4.653   0.688  0.00  0.00    +0.280 C 
ENDBRANCH  14   5
ENDBRANCH  10  14
TORSDOF 5
