REMARK  Name = 45783440
REMARK  9 active torsions:
REMARK  status: ('A' for Active; 'I' for Inactive)
REMARK    1  A    between atoms: O_3  and  C_24
REMARK    2  A    between atoms: O_3  and  C_27
REMARK    3  A    between atoms: O_4  and  C_28
REMARK    4  A    between atoms: O_4  and  C_29
REMARK    5  A    between atoms: N_5  and  C_13
REMARK    6  A    between atoms: C_9  and  C_14
REMARK    7  A    between atoms: C_13  and  C_15
REMARK    8  A    between atoms: C_18  and  C_21
REMARK    9  A    between atoms: C_27  and  C_28
REMARK                            x       y       z     vdW  Elec       q    Type
REMARK                         _______ _______ _______ _____ _____    ______ ____
ROOT
ATOM      2  O   UNL     1      -2.474  -2.280   0.726  0.00  0.00    -0.336 OA
ATOM      6  N   UNL     1      -1.092  -0.948  -0.429  0.00  0.00    -0.189 NA
ATOM      7  N   UNL     1      -1.179  -2.751   0.977  0.00  0.00    -0.054 NA
ATOM     14  C   UNL     1      -2.333  -1.218  -0.110  0.00  0.00    +0.245 A 
ATOM     18  C   UNL     1      -0.421  -1.915   0.261  0.00  0.00    +0.221 A 
ENDROOT
BRANCH  18  21
ATOM      8  N   UNL     1       1.547  -3.022   0.943  0.00  0.00    -0.252 NA
ATOM     21  C   UNL     1       1.009  -2.019   0.213  0.00  0.00    +0.115 A 
ATOM     23  C   UNL     1       1.750  -1.128  -0.545  0.00  0.00    +0.077 A 
ATOM     24  C   UNL     1       3.133  -1.274  -0.556  0.00  0.00    +0.124 A 
ATOM     25  C   UNL     1       2.894  -3.134   0.908  0.00  0.00    +0.115 A 
ATOM     26  C   UNL     1       3.724  -2.294   0.182  0.00  0.00    +0.065 A 
BRANCH  24   3
ATOM      3  O   UNL     1       3.904  -0.424  -1.285  0.00  0.00    -0.490 OA
BRANCH   3  27
ATOM     27  C   UNL     1       3.415   0.904  -1.466  0.00  0.00    +0.257 C 
BRANCH  27  28
ATOM     28  C   UNL     1       4.592   1.855  -1.575  0.00  0.00    +0.200 C 
BRANCH  28   4
ATOM      4  O   UNL     1       5.349   1.795  -0.372  0.00  0.00    -0.380 OA
ATOM     29  C   UNL     1       6.481   2.652  -0.427  0.00  0.00    +0.194 C 
ENDBRANCH  28   4
ENDBRANCH  27  28
ENDBRANCH   3  27
ENDBRANCH  24   3
ENDBRANCH  18  21
BRANCH  14   9
ATOM      5  N   UNL     1      -3.393   0.903  -0.864  0.00  0.00    -0.287 NA
ATOM      9  C   UNL     1      -3.608  -0.520  -0.536  0.00  0.00    +0.146 C 
ATOM     10  C   UNL     1      -4.220  -1.128  -1.812  0.00  0.00    +0.030 C 
ATOM     11  C   UNL     1      -4.368   0.040  -2.777  0.00  0.00    +0.017 C 
ATOM     12  C   UNL     1      -4.399   1.252  -1.868  0.00  0.00    +0.085 C 
BRANCH   5  13
ATOM     13  C   UNL     1      -3.455   1.777   0.301  0.00  0.00    +0.123 C 
BRANCH  13  15
ATOM      1  F   UNL     1      -0.947   2.486  -0.809  0.00  0.00    -0.205 F 
ATOM     15  C   UNL     1      -2.172   1.754   1.088  0.00  0.00    +0.002 A 
ATOM     16  C   UNL     1      -0.971   2.115   0.479  0.00  0.00    +0.128 A 
ATOM     17  C   UNL     1      -2.187   1.371   2.429  0.00  0.00    +0.008 A 
ATOM     19  C   UNL     1       0.216   2.093   1.210  0.00  0.00    +0.038 A 
ATOM     20  C   UNL     1      -0.999   1.349   3.161  0.00  0.00    +0.000 A 
ATOM     22  C   UNL     1       0.202   1.710   2.552  0.00  0.00    +0.003 A 
ENDBRANCH  13  15
ENDBRANCH   5  13
ENDBRANCH  14   9
TORSDOF 8
