REMARK  Name = 51136829
REMARK  6 active torsions:
REMARK  status: ('A' for Active; 'I' for Inactive)
REMARK    1  A    between atoms: N_6  and  C_16
REMARK    2  A    between atoms: C_12  and  C_17
REMARK    3  A    between atoms: C_16  and  C_18
REMARK    4  A    between atoms: C_23  and  C_27
REMARK    5  A    between atoms: C_29  and  C_35
REMARK    6  A    between atoms: C_32  and  C_36
REMARK                            x       y       z     vdW  Elec       q    Type
REMARK                         _______ _______ _______ _____ _____    ______ ____
ROOT
ATOM      4  O   UNL     1      -3.755  -0.420   2.020  0.00  0.00    -0.336 OA
ATOM      9  N   UNL     1      -1.918  -0.983   0.868  0.00  0.00    -0.190 NA
ATOM     10  N   UNL     1      -2.674   0.144   2.710  0.00  0.00    -0.056 NA
ATOM     17  C   UNL     1      -3.222  -1.066   0.950  0.00  0.00    +0.245 A 
ATOM     23  C   UNL     1      -1.627  -0.232   1.969  0.00  0.00    +0.202 A 
ENDROOT
BRANCH  23  27
ATOM      5  O   UNL     1       6.370  -2.892  -1.861  0.00  0.00    -0.276 OA
ATOM      7  N   UNL     1       3.103  -0.349   1.044  0.00  0.00    -0.312 N 
ATOM      8  N   UNL     1       5.227  -1.223  -0.717  0.00  0.00    -0.299 N 
ATOM     11  N   UNL     1       2.351   0.824   2.951  0.00  0.00    -0.240 NA
ATOM     19  C   UNL     1       4.329   0.442   0.907  0.00  0.00    +0.125 C 
ATOM     20  C   UNL     1       3.018  -1.625   0.328  0.00  0.00    +0.125 C 
ATOM     21  C   UNL     1       4.984   0.196  -0.453  0.00  0.00    +0.126 C 
ATOM     22  C   UNL     1       4.413  -2.174   0.036  0.00  0.00    +0.126 C 
ATOM     24  C   UNL     1       2.059   0.079   1.861  0.00  0.00    +0.122 A 
ATOM     27  C   UNL     1      -0.277   0.125   2.303  0.00  0.00    +0.027 A 
ATOM     28  C   UNL     1       0.775  -0.293   1.497  0.00  0.00    +0.055 A 
ATOM     29  C   UNL     1       6.164  -1.698  -1.637  0.00  0.00    +0.213 C 
ATOM     33  C   UNL     1      -0.018   0.893   3.433  0.00  0.00    +0.031 A 
ATOM     34  C   UNL     1       1.302   1.212   3.711  0.00  0.00    +0.113 A 
ATOM     35  C   UNL     1       6.957  -0.651  -2.380  0.00  0.00    +0.109 C 
ENDBRANCH  23  27
BRANCH  17  12
ATOM      6  N   UNL     1      -3.700  -1.872  -1.356  0.00  0.00    -0.287 NA
ATOM     12  C   UNL     1      -4.199  -1.768   0.030  0.00  0.00    +0.146 C 
ATOM     13  C   UNL     1      -4.477  -3.221   0.456  0.00  0.00    +0.030 C 
ATOM     14  C   UNL     1      -4.163  -4.063  -0.773  0.00  0.00    +0.017 C 
ATOM     15  C   UNL     1      -4.298  -3.083  -1.920  0.00  0.00    +0.085 C 
BRANCH   6  16
ATOM     16  C   UNL     1      -3.989  -0.692  -2.160  0.00  0.00    +0.120 C 
BRANCH  16  18
ATOM     18  C   UNL     1      -3.019   0.426  -1.883  0.00  0.00    -0.033 A 
ATOM     25  C   UNL     1      -3.487   1.660  -1.432  0.00  0.00    +0.005 A 
ATOM     26  C   UNL     1      -1.652   0.228  -2.078  0.00  0.00    +0.005 A 
ATOM     30  C   UNL     1      -2.589   2.695  -1.175  0.00  0.00    +0.012 A 
ATOM     31  C   UNL     1      -0.753   1.263  -1.821  0.00  0.00    +0.012 A 
ATOM     32  C   UNL     1      -1.222   2.497  -1.369  0.00  0.00    +0.055 A 
BRANCH  32  36
ATOM      1  F   UNL     1       0.662   3.299  -0.132  0.00  0.00    -0.166 F 
ATOM      2  F   UNL     1      -0.880   4.739  -0.656  0.00  0.00    -0.166 F 
ATOM      3  F   UNL     1       0.469   3.980  -2.182  0.00  0.00    -0.166 F 
ATOM     36  C   UNL     1      -0.261   3.603  -1.091  0.00  0.00    +0.417 C 
ENDBRANCH  32  36
ENDBRANCH  16  18
ENDBRANCH   6  16
ENDBRANCH  17  12
TORSDOF 5
