REMARK  Name = 51136665
REMARK  8 active torsions:
REMARK  status: ('A' for Active; 'I' for Inactive)
REMARK    1  A    between atoms: O_3  and  C_18
REMARK    2  A    between atoms: O_5  and  C_26
REMARK    3  A    between atoms: O_5  and  C_30
REMARK    4  A    between atoms: C_8  and  C_12
REMARK    5  A    between atoms: C_9  and  C_14
REMARK    6  A    between atoms: C_12  and  C_15
REMARK    7  A    between atoms: C_14  and  C_18
REMARK    8  A    between atoms: C_16  and  C_22
REMARK                            x       y       z     vdW  Elec       q    Type
REMARK                         _______ _______ _______ _____ _____    ______ ____
ROOT
ATOM      2  O   UNL     1      -0.844   3.626  -1.504  0.00  0.00    -0.269 OA
ATOM      6  N   UNL     1      -1.794   2.074  -0.032  0.00  0.00    -0.297 N 
ATOM      8  C   UNL     1      -2.094  -0.278   0.712  0.00  0.00    +0.016 C 
ATOM      9  C   UNL     1      -3.500  -0.263   0.061  0.00  0.00    +0.006 C 
ATOM     10  C   UNL     1      -3.579   0.749  -1.094  0.00  0.00    +0.023 C 
ATOM     11  C   UNL     1      -1.684   1.153   1.107  0.00  0.00    +0.112 C 
ATOM     13  C   UNL     1      -3.118   2.134  -0.648  0.00  0.00    +0.108 C 
ATOM     16  C   UNL     1      -0.758   2.858  -0.547  0.00  0.00    +0.253 C 
ENDROOT
BRANCH  16  22
ATOM      1  S   UNL     1       1.905   2.259  -0.827  0.00  0.00    -0.092 S 
ATOM     22  C   UNL     1       0.557   2.771   0.097  0.00  0.00    +0.074 A 
ATOM     27  C   UNL     1       0.901   3.053   1.401  0.00  0.00    +0.021 A 
ATOM     28  C   UNL     1       2.289   2.845   1.645  0.00  0.00    +0.008 A 
ATOM     29  C   UNL     1       2.954   2.413   0.518  0.00  0.00    +0.046 A 
ENDBRANCH  16  22
BRANCH   8  12
ATOM     12  C   UNL     1      -1.009  -0.920  -0.163  0.00  0.00    +0.061 C 
BRANCH  12  15
ATOM      7  N   UNL     1      -0.091  -1.681   1.922  0.00  0.00    -0.287 NA
ATOM     15  C   UNL     1       0.155  -1.350   0.697  0.00  0.00    +0.044 C 
ATOM     17  C   UNL     1       1.516  -1.365   0.102  0.00  0.00    -0.001 A 
ATOM     19  C   UNL     1       2.594  -1.386   0.996  0.00  0.00    -0.033 A 
ATOM     20  C   UNL     1       2.310  -1.377   2.469  0.00  0.00    +0.059 C 
ATOM     21  C   UNL     1       1.030  -2.157   2.739  0.00  0.00    +0.146 C 
ATOM     23  C   UNL     1       1.738  -1.346  -1.276  0.00  0.00    +0.013 A 
ATOM     24  C   UNL     1       3.901  -1.361   0.501  0.00  0.00    +0.050 A 
ATOM     25  C   UNL     1       3.046  -1.336  -1.761  0.00  0.00    +0.046 A 
ATOM     26  C   UNL     1       4.125  -1.341  -0.876  0.00  0.00    +0.120 A 
BRANCH  26   5
ATOM      5  O   UNL     1       5.398  -1.324  -1.357  0.00  0.00    -0.495 OA
ATOM     30  C   UNL     1       5.556  -1.302  -2.775  0.00  0.00    +0.277 C 
ENDBRANCH  26   5
ENDBRANCH  12  15
ENDBRANCH   8  12
BRANCH   9  14
ATOM     14  C   UNL     1      -3.963  -1.645  -0.401  0.00  0.00    +0.124 C 
BRANCH  14  18
ATOM      4  O   UNL     1      -6.254  -0.820  -0.279  0.00  0.00    -0.251 OA
ATOM     18  C   UNL     1      -5.461  -1.720  -0.511  0.00  0.00    +0.305 C 
BRANCH  18   3
ATOM      3  O   UNL     1      -5.827  -2.963  -0.918  0.00  0.00    -0.481 OA
ATOM     31  H   UNL     1      -6.801  -3.047  -1.002  0.00  0.00    +0.295 HD
ENDBRANCH  18   3
ENDBRANCH  14  18
ENDBRANCH   9  14
TORSDOF 7
