REMARK  Name = 51136654
REMARK  8 active torsions:
REMARK  status: ('A' for Active; 'I' for Inactive)
REMARK    1  A    between atoms: O_2  and  C_22
REMARK    2  A    between atoms: O_4  and  C_30
REMARK    3  A    between atoms: O_4  and  C_31
REMARK    4  A    between atoms: C_7  and  C_12
REMARK    5  A    between atoms: C_8  and  C_14
REMARK    6  A    between atoms: C_12  and  C_21
REMARK    7  A    between atoms: C_13  and  C_15
REMARK    8  A    between atoms: C_14  and  C_22
REMARK                            x       y       z     vdW  Elec       q    Type
REMARK                         _______ _______ _______ _____ _____    ______ ____
ROOT
ATOM      1  O   UNL     1       0.661   3.416   1.683  0.00  0.00    -0.275 OA
ATOM      5  N   UNL     1       1.699   2.000   0.161  0.00  0.00    -0.301 N 
ATOM      7  C   UNL     1       2.204  -0.269  -0.717  0.00  0.00    +0.016 C 
ATOM      8  C   UNL     1       3.607  -0.167  -0.068  0.00  0.00    +0.006 C 
ATOM      9  C   UNL     1       1.669   1.141  -1.029  0.00  0.00    +0.112 C 
ATOM     10  C   UNL     1       3.603   0.781   1.143  0.00  0.00    +0.023 C 
ATOM     11  C   UNL     1       3.017   2.143   0.780  0.00  0.00    +0.108 C 
ATOM     15  C   UNL     1       0.604   2.679   0.695  0.00  0.00    +0.219 C 
ENDROOT
BRANCH  15  13
ATOM     13  C   UNL     1      -0.711   2.478   0.007  0.00  0.00    +0.075 C 
ATOM     16  C   UNL     1      -0.858   3.512  -1.111  0.00  0.00    +0.013 C 
ATOM     17  C   UNL     1      -1.851   2.584   1.021  0.00  0.00    +0.013 C 
ATOM     18  C   UNL     1      -2.224   3.419  -1.786  0.00  0.00    +0.001 C 
ATOM     19  C   UNL     1      -3.215   2.488   0.342  0.00  0.00    +0.001 C 
ATOM     20  C   UNL     1      -3.361   3.520  -0.773  0.00  0.00    +0.000 C 
ENDBRANCH  15  13
BRANCH   7  12
ATOM     12  C   UNL     1       1.185  -1.052   0.121  0.00  0.00    +0.061 C 
BRANCH  12  21
ATOM      6  N   UNL     1       0.323  -1.770  -2.003  0.00  0.00    -0.287 NA
ATOM     21  C   UNL     1       0.057  -1.532  -0.761  0.00  0.00    +0.044 C 
ATOM     23  C   UNL     1      -1.294  -1.700  -0.167  0.00  0.00    -0.001 A 
ATOM     24  C   UNL     1      -2.372  -1.764  -1.059  0.00  0.00    -0.033 A 
ATOM     25  C   UNL     1      -0.757  -2.294  -2.845  0.00  0.00    +0.146 C 
ATOM     26  C   UNL     1      -2.098  -1.645  -2.529  0.00  0.00    +0.059 C 
ATOM     27  C   UNL     1      -1.508  -1.778   1.210  0.00  0.00    +0.013 A 
ATOM     28  C   UNL     1      -3.672  -1.881  -0.562  0.00  0.00    +0.050 A 
ATOM     29  C   UNL     1      -2.809  -1.911   1.697  0.00  0.00    +0.046 A 
ATOM     30  C   UNL     1      -3.889  -1.959   0.814  0.00  0.00    +0.120 A 
BRANCH  30   4
ATOM      4  O   UNL     1      -5.156  -2.081   1.297  0.00  0.00    -0.495 OA
ATOM     31  C   UNL     1      -5.306  -2.153   2.714  0.00  0.00    +0.277 C 
ENDBRANCH  30   4
ENDBRANCH  12  21
ENDBRANCH   7  12
BRANCH   8  14
ATOM     14  C   UNL     1       4.192  -1.527   0.315  0.00  0.00    +0.124 C 
BRANCH  14  22
ATOM      3  O   UNL     1       6.401  -0.498   0.237  0.00  0.00    -0.251 OA
ATOM     22  C   UNL     1       5.692  -1.476   0.419  0.00  0.00    +0.305 C 
BRANCH  22   2
ATOM      2  O   UNL     1       6.168  -2.703   0.754  0.00  0.00    -0.481 OA
ATOM     32  H   UNL     1       7.146  -2.706   0.832  0.00  0.00    +0.295 HD
ENDBRANCH  22   2
ENDBRANCH  14  22
ENDBRANCH   8  14
TORSDOF 7
