REMARK  Name = 45784017
REMARK  4 active torsions:
REMARK  status: ('A' for Active; 'I' for Inactive)
REMARK    1  A    between atoms: O_3  and  C_15
REMARK    2  A    between atoms: O_3  and  C_20
REMARK    3  A    between atoms: C_7  and  C_11
REMARK    4  A    between atoms: C_12  and  C_15
REMARK                            x       y       z     vdW  Elec       q    Type
REMARK                         _______ _______ _______ _____ _____    ______ ____
ROOT
ATOM      1  F   UNL     1       6.190   0.918   0.295  0.00  0.00    -0.205 F 
ATOM      5  N   UNL     1       2.017  -1.589   0.029  0.00  0.00    -0.341 N 
ATOM      6  N   UNL     1       0.779   0.224  -0.321  0.00  0.00    -0.232 NA
ATOM     11  C   UNL     1       0.764  -1.083  -0.184  0.00  0.00    +0.113 A 
ATOM     13  C   UNL     1       2.898  -0.538   0.030  0.00  0.00    +0.069 A 
ATOM     14  C   UNL     1       2.102   0.582  -0.190  0.00  0.00    +0.089 A 
ATOM     16  C   UNL     1       4.281  -0.474   0.199  0.00  0.00    +0.066 A 
ATOM     17  C   UNL     1       2.704   1.850  -0.247  0.00  0.00    +0.032 A 
ATOM     18  C   UNL     1       4.864   0.796   0.139  0.00  0.00    +0.125 A 
ATOM     19  C   UNL     1       4.092   1.939  -0.080  0.00  0.00    +0.040 A 
ATOM     21  H   UNL     1       2.253  -2.563   0.163  0.00  0.00    +0.167 HD
ENDROOT
BRANCH  11   7
ATOM      2  O   UNL     1      -3.823   0.263  -1.688  0.00  0.00    -0.273 OA
ATOM      4  N   UNL     1      -2.488  -0.767  -0.108  0.00  0.00    -0.299 N 
ATOM      7  C   UNL     1      -0.453  -1.989  -0.244  0.00  0.00    +0.074 C 
ATOM      8  C   UNL     1      -1.079  -2.187   1.146  0.00  0.00    +0.032 C 
ATOM      9  C   UNL     1      -1.648  -1.481  -1.061  0.00  0.00    +0.119 C 
ATOM     10  C   UNL     1      -2.081  -1.044   1.265  0.00  0.00    +0.108 C 
ATOM     12  C   UNL     1      -3.519   0.062  -0.511  0.00  0.00    +0.241 C 
BRANCH  12  15
ATOM     15  C   UNL     1      -4.288   0.730   0.601  0.00  0.00    +0.255 C 
BRANCH  15   3
ATOM      3  O   UNL     1      -5.255   1.547  -0.013  0.00  0.00    -0.374 OA
ATOM     20  C   UNL     1      -6.056   2.240   0.943  0.00  0.00    +0.194 C 
ENDBRANCH  15   3
ENDBRANCH  12  15
ENDBRANCH  11   7
TORSDOF 3
