REMARK  Name = 28959666
REMARK  10 active torsions:
REMARK  status: ('A' for Active; 'I' for Inactive)
REMARK    1  A    between atoms: O_2  and  C_23
REMARK    2  A    between atoms: O_5  and  C_29
REMARK    3  A    between atoms: O_5  and  C_30
REMARK    4  A    between atoms: N_6  and  C_14
REMARK    5  A    between atoms: C_9  and  C_11
REMARK    6  A    between atoms: C_10  and  C_17
REMARK    7  A    between atoms: C_11  and  C_14
REMARK    8  A    between atoms: C_16  and  C_22
REMARK    9  A    between atoms: C_17  and  C_23
REMARK   10  A    between atoms: C_21  and  C_24
REMARK                            x       y       z     vdW  Elec       q    Type
REMARK                         _______ _______ _______ _____ _____    ______ ____
ROOT
ATOM      1  O   UNL     1      -0.278   3.364  -2.032  0.00  0.00    -0.270 OA
ATOM      7  N   UNL     1      -1.253   2.280  -0.203  0.00  0.00    -0.297 N 
ATOM      9  C   UNL     1      -1.962   0.182   0.926  0.00  0.00    +0.011 C 
ATOM     10  C   UNL     1      -3.425   0.513   0.536  0.00  0.00    +0.006 C 
ATOM     12  C   UNL     1      -1.139   1.480   1.025  0.00  0.00    +0.112 C 
ATOM     13  C   UNL     1      -3.490   1.390  -0.726  0.00  0.00    +0.023 C 
ATOM     15  C   UNL     1      -2.620   2.635  -0.579  0.00  0.00    +0.108 C 
ATOM     21  C   UNL     1      -0.187   2.699  -1.001  0.00  0.00    +0.247 C 
ENDROOT
BRANCH  21  24
ATOM     24  C   UNL     1       1.171   2.323  -0.592  0.00  0.00    +0.037 A 
ATOM     25  C   UNL     1       1.666   2.736   0.645  0.00  0.00    +0.016 A 
ATOM     26  C   UNL     1       1.968   1.554  -1.440  0.00  0.00    +0.016 A 
ATOM     27  C   UNL     1       2.957   2.381   1.034  0.00  0.00    +0.046 A 
ATOM     28  C   UNL     1       3.259   1.199  -1.052  0.00  0.00    +0.046 A 
ATOM     29  C   UNL     1       3.754   1.612   0.185  0.00  0.00    +0.120 A 
BRANCH  29   5
ATOM      5  O   UNL     1       5.015   1.265   0.564  0.00  0.00    -0.495 OA
ATOM     30  C   UNL     1       5.457   1.721   1.842  0.00  0.00    +0.277 C 
ENDBRANCH  29   5
ENDBRANCH  21  24
BRANCH   9  11
ATOM     11  C   UNL     1      -1.276  -0.812  -0.019  0.00  0.00    +0.021 C 
BRANCH  11  14
ATOM     14  C   UNL     1      -0.164  -1.565   0.698  0.00  0.00    +0.085 C 
BRANCH  14   6
ATOM      6  N   UNL     1       0.483  -2.489  -0.223  0.00  0.00    -0.291 NA
ATOM     16  C   UNL     1       1.599  -3.222   0.384  0.00  0.00    +0.143 C 
ATOM     18  C   UNL     1      -0.446  -3.497  -0.738  0.00  0.00    +0.085 C 
ATOM     19  C   UNL     1       1.637  -4.576  -0.325  0.00  0.00    +0.029 C 
ATOM     20  C   UNL     1       0.501  -4.519  -1.336  0.00  0.00    +0.017 C 
BRANCH  16  22
ATOM      3  O   UNL     1       3.193  -2.135  -1.020  0.00  0.00    -0.274 OA
ATOM      8  N   UNL     1       3.537  -2.097   1.255  0.00  0.00    -0.328 N 
ATOM     22  C   UNL     1       2.839  -2.432   0.119  0.00  0.00    +0.228 C 
ATOM     31  H   UNL     1       3.228  -2.356   2.186  0.00  0.00    +0.145 HD
ATOM     32  H   UNL     1       4.398  -1.563   1.197  0.00  0.00    +0.145 HD
ENDBRANCH  16  22
ENDBRANCH  14   6
ENDBRANCH  11  14
ENDBRANCH   9  11
BRANCH  10  17
ATOM     17  C   UNL     1      -4.300  -0.731   0.373  0.00  0.00    +0.124 C 
BRANCH  17  23
ATOM      4  O   UNL     1      -6.240   0.691   0.769  0.00  0.00    -0.251 OA
ATOM     23  C   UNL     1      -5.759  -0.408   0.539  0.00  0.00    +0.305 C 
BRANCH  23   2
ATOM      2  O   UNL     1      -6.497  -1.539   0.392  0.00  0.00    -0.481 OA
ATOM     33  H   UNL     1      -7.457  -1.364   0.494  0.00  0.00    +0.295 HD
ENDBRANCH  23   2
ENDBRANCH  17  23
ENDBRANCH  10  17
TORSDOF 9
