REMARK  Name = 71693286
REMARK  9 active torsions:
REMARK  status: ('A' for Active; 'I' for Inactive)
REMARK    1  A    between atoms: S_1  and  N_8
REMARK    2  A    between atoms: S_1  and  C_24
REMARK    3  A    between atoms: O_3  and  C_11
REMARK    4  A    between atoms: N_7  and  C_13
REMARK    5  A    between atoms: N_8  and  C_19
REMARK    6  A    between atoms: C_9  and  C_11
REMARK    7  A    between atoms: C_10  and  C_12
REMARK    8  A    between atoms: C_13  and  C_18
REMARK    9  A    between atoms: C_24  and  C_28
REMARK                            x       y       z     vdW  Elec       q    Type
REMARK                         _______ _______ _______ _____ _____    ______ ____
ROOT
ATOM     12  C   UNL     1       1.727  -2.033  -0.154  0.00  0.00    -0.017 A 
ATOM     16  C   UNL     1       0.918  -2.851   0.635  0.00  0.00    +0.008 A 
ATOM     17  C   UNL     1       1.204  -1.428  -1.297  0.00  0.00    +0.008 A 
ATOM     19  C   UNL     1      -0.937  -2.460  -0.863  0.00  0.00    +0.048 A 
ATOM     20  C   UNL     1      -0.414  -3.064   0.281  0.00  0.00    +0.025 A 
ATOM     21  C   UNL     1      -0.128  -1.641  -1.651  0.00  0.00    +0.025 A 
ENDROOT
BRANCH  12  10
ATOM      2  O   UNL     1       3.922  -1.685  -0.985  0.00  0.00    -0.361 OA
ATOM      4  O   UNL     1       5.409   1.396  -1.059  0.00  0.00    -0.273 OA
ATOM      7  N   UNL     1       3.830   0.600   0.464  0.00  0.00    -0.287 N 
ATOM      9  C   UNL     1       3.318  -0.577   1.174  0.00  0.00    +0.135 C 
ATOM     10  C   UNL     1       3.176  -1.802   0.232  0.00  0.00    +0.171 C 
ATOM     14  C   UNL     1       4.817   0.469  -0.510  0.00  0.00    +0.242 C 
ATOM     15  C   UNL     1       5.132  -0.969  -0.845  0.00  0.00    +0.256 C 
BRANCH   9  11
ATOM     11  C   UNL     1       4.204  -0.908   2.383  0.00  0.00    +0.181 C 
BRANCH  11   3
ATOM      3  O   UNL     1       3.938   0.039   3.397  0.00  0.00    -0.393 OA
ATOM     34  H   UNL     1       4.500  -0.186   4.157  0.00  0.00    +0.209 HD
ENDBRANCH  11   3
ENDBRANCH   9  11
BRANCH   7  13
ATOM     13  C   UNL     1       3.377   1.913   0.900  0.00  0.00    +0.143 C 
BRANCH  13  18
ATOM     18  C   UNL     1       2.193   2.389   0.110  0.00  0.00    -0.030 A 
ATOM     22  C   UNL     1       0.901   2.090   0.541  0.00  0.00    +0.005 A 
ATOM     23  C   UNL     1       2.385   3.132  -1.056  0.00  0.00    +0.005 A 
ATOM     25  C   UNL     1      -0.200   2.532  -0.194  0.00  0.00    +0.000 A 
ATOM     26  C   UNL     1       1.284   3.574  -1.790  0.00  0.00    +0.000 A 
ATOM     27  C   UNL     1      -0.008   3.274  -1.359  0.00  0.00    +0.000 A 
ENDBRANCH  13  18
ENDBRANCH   7  13
ENDBRANCH  12  10
BRANCH  19   8
ATOM      8  N   UNL     1      -2.300  -2.678  -1.226  0.00  0.00    -0.220 N 
ATOM     35  H   UNL     1      -2.472  -2.642  -2.240  0.00  0.00    +0.173 HD
BRANCH   8   1
ATOM      1  S   UNL     1      -3.527  -1.962  -0.252  0.00  0.00    +0.047 S 
ATOM      5  O   UNL     1      -4.808  -2.521  -0.643  0.00  0.00    -0.155 OA
ATOM      6  O   UNL     1      -3.130  -1.933   1.142  0.00  0.00    -0.155 OA
BRANCH   1  24
ATOM     24  C   UNL     1      -3.483  -0.294  -0.867  0.00  0.00    +0.223 C 
BRANCH  24  28
ATOM     28  C   UNL     1      -4.510   0.496  -0.117  0.00  0.00    -0.025 A 
ATOM     29  C   UNL     1      -4.276   0.864   1.209  0.00  0.00    +0.005 A 
ATOM     30  C   UNL     1      -5.700   0.865  -0.743  0.00  0.00    +0.005 A 
ATOM     31  C   UNL     1      -5.233   1.601   1.907  0.00  0.00    +0.000 A 
ATOM     32  C   UNL     1      -6.657   1.602  -0.045  0.00  0.00    +0.000 A 
ATOM     33  C   UNL     1      -6.423   1.969   1.280  0.00  0.00    +0.000 A 
ENDBRANCH  24  28
ENDBRANCH   1  24
ENDBRANCH   8   1
ENDBRANCH  19   8
TORSDOF 9
