REMARK  Name = 56774828
REMARK  10 active torsions:
REMARK  status: ('A' for Active; 'I' for Inactive)
REMARK    1  A    between atoms: O_5  and  C_13
REMARK    2  A    between atoms: N_8  and  C_15
REMARK    3  A    between atoms: N_9  and  C_26
REMARK    4  A    between atoms: N_10  and  C_35
REMARK    5  A    between atoms: C_12  and  C_13
REMARK    6  A    between atoms: C_13  and  C_17
REMARK    7  A    between atoms: C_15  and  C_19
REMARK    8  A    between atoms: C_29  and  C_30
REMARK    9  A    between atoms: C_31  and  C_32
REMARK   10  A    between atoms: C_34  and  C_36
REMARK                            x       y       z     vdW  Elec       q    Type
REMARK                         _______ _______ _______ _____ _____    ______ ____
ROOT
ATOM     13  C   UNL     1      -0.519  -1.807   0.809  0.00  0.00    +0.167 C 
ENDROOT
BRANCH  13  12
ATOM      4  O   UNL     1      -1.150  -2.598  -1.945  0.00  0.00    -0.369 OA
ATOM      6  O   UNL     1      -4.337  -3.435  -0.469  0.00  0.00    -0.273 OA
ATOM      8  N   UNL     1      -2.873  -1.711   0.080  0.00  0.00    -0.287 N 
ATOM     12  C   UNL     1      -1.540  -1.124  -0.105  0.00  0.00    +0.135 C 
ATOM     14  C   UNL     1      -1.124  -1.226  -1.567  0.00  0.00    +0.185 C 
ATOM     16  C   UNL     1      -3.309  -2.791  -0.685  0.00  0.00    +0.242 C 
ATOM     18  C   UNL     1      -2.465  -3.105  -1.915  0.00  0.00    +0.255 C 
BRANCH   8  15
ATOM     15  C   UNL     1      -3.661  -1.248   1.215  0.00  0.00    +0.143 C 
BRANCH  15  19
ATOM     19  C   UNL     1      -4.690  -0.233   0.809  0.00  0.00    -0.030 A 
ATOM     22  C   UNL     1      -4.302   1.075   0.519  0.00  0.00    +0.006 A 
ATOM     23  C   UNL     1      -6.033  -0.598   0.721  0.00  0.00    +0.006 A 
ATOM     27  C   UNL     1      -5.257   2.018   0.141  0.00  0.00    +0.013 A 
ATOM     28  C   UNL     1      -6.989   0.345   0.343  0.00  0.00    +0.013 A 
ATOM     29  C   UNL     1      -6.601   1.653   0.053  0.00  0.00    +0.055 A 
BRANCH  29  30
ATOM      1  F   UNL     1      -8.302   2.323  -1.490  0.00  0.00    -0.166 F 
ATOM      2  F   UNL     1      -7.078   3.888  -0.605  0.00  0.00    -0.166 F 
ATOM      3  F   UNL     1      -8.587   2.874   0.589  0.00  0.00    -0.166 F 
ATOM     30  C   UNL     1      -7.622   2.661  -0.354  0.00  0.00    +0.417 C 
ENDBRANCH  29  30
ENDBRANCH  15  19
ENDBRANCH   8  15
ENDBRANCH  13  12
BRANCH  13  17
ATOM     17  C   UNL     1       0.854  -1.199   0.668  0.00  0.00    -0.017 A 
ATOM     20  C   UNL     1       1.046   0.158   0.928  0.00  0.00    +0.008 A 
ATOM     21  C   UNL     1       1.931  -1.994   0.277  0.00  0.00    +0.008 A 
ATOM     24  C   UNL     1       2.316   0.720   0.798  0.00  0.00    +0.023 A 
ATOM     25  C   UNL     1       3.201  -1.432   0.147  0.00  0.00    +0.023 A 
ATOM     26  C   UNL     1       3.394  -0.075   0.407  0.00  0.00    +0.034 A 
BRANCH  26   9
ATOM      7  O   UNL     1       5.997  -1.332  -0.390  0.00  0.00    -0.268 OA
ATOM      9  N   UNL     1       4.664   0.487   0.278  0.00  0.00    -0.280 N 
ATOM     31  C   UNL     1       5.854  -0.149  -0.101  0.00  0.00    +0.266 C 
ATOM     38  H   UNL     1       4.716   1.480   0.492  0.00  0.00    +0.155 HD
BRANCH  31  32
ATOM     10  N   UNL     1       8.336   0.339   0.053  0.00  0.00    -0.262 N 
ATOM     11  N   UNL     1       9.237   1.328  -0.079  0.00  0.00    -0.176 NA
ATOM     32  C   UNL     1       7.050   0.731  -0.176  0.00  0.00    +0.124 A 
ATOM     33  C   UNL     1       7.114   2.069  -0.479  0.00  0.00    +0.057 A 
ATOM     34  C   UNL     1       8.484   2.382  -0.405  0.00  0.00    +0.061 A 
ATOM     35  C   UNL     1       8.789  -0.985   0.410  0.00  0.00    +0.173 C 
ATOM     36  C   UNL     1       9.120   3.690  -0.640  0.00  0.00    +0.067 C 
ENDBRANCH  31  32
ENDBRANCH  26   9
ENDBRANCH  13  17
BRANCH  13   5
ATOM      5  O   UNL     1      -0.950  -1.698   2.161  0.00  0.00    -0.385 OA
ATOM     37  H   UNL     1      -0.835  -0.781   2.461  0.00  0.00    +0.210 HD
ENDBRANCH  13   5
TORSDOF 8
