REMARK  Name = 23983671
REMARK  14 active torsions:
REMARK  status: ('A' for Active; 'I' for Inactive)
REMARK    1  A    between atoms: S_1  and  C_32
REMARK    2  A    between atoms: S_1  and  C_38
REMARK    3  A    between atoms: O_2  and  C_15
REMARK    4  A    between atoms: O_2  and  C_24
REMARK    5  A    between atoms: O_3  and  C_16
REMARK    6  A    between atoms: O_4  and  C_20
REMARK    7  A    between atoms: N_7  and  C_25
REMARK    8  A    between atoms: N_8  and  C_26
REMARK    9  A    between atoms: C_9  and  C_19
REMARK   10  A    between atoms: C_11  and  C_20
REMARK   11  A    between atoms: C_11  and  C_21
REMARK   12  A    between atoms: C_12  and  C_22
REMARK   13  A    between atoms: C_22  and  C_23
REMARK   14  A    between atoms: C_25  and  C_27
REMARK                            x       y       z     vdW  Elec       q    Type
REMARK                         _______ _______ _______ _____ _____    ______ ____
ROOT
ATOM      9  C   UNL     1      -1.205  -1.697   0.638  0.00  0.00    -0.023 C 
ATOM     10  C   UNL     1      -0.491  -2.436  -0.559  0.00  0.00    +0.007 C 
ATOM     11  C   UNL     1       1.078  -2.570  -0.473  0.00  0.00    +0.031 C 
ATOM     12  C   UNL     1      -2.694  -1.406   0.180  0.00  0.00    +0.032 C 
ATOM     13  C   UNL     1      -0.475  -0.350   0.890  0.00  0.00    +0.011 C 
ATOM     14  C   UNL     1      -1.231  -3.743  -0.920  0.00  0.00    +0.007 C 
ATOM     15  C   UNL     1       1.686  -1.174  -0.139  0.00  0.00    +0.186 C 
ATOM     16  C   UNL     1      -3.455  -2.671  -0.278  0.00  0.00    +0.119 C 
ATOM     17  C   UNL     1       1.033  -0.489   1.057  0.00  0.00    +0.046 C 
ATOM     18  C   UNL     1      -2.679  -3.466  -1.324  0.00  0.00    +0.032 C 
ATOM     19  C   UNL     1      -1.191  -2.502   1.960  0.00  0.00    +0.012 C 
ATOM     21  C   UNL     1       1.629  -2.996  -1.865  0.00  0.00    +0.017 C 
ENDROOT
BRANCH  16   3
ATOM      3  O   UNL     1      -3.764  -3.509   0.831  0.00  0.00    -0.391 OA
ATOM     39  H   UNL     1      -4.265  -4.271   0.496  0.00  0.00    +0.210 HD
ENDBRANCH  16   3
BRANCH  15   2
ATOM      2  O   UNL     1       3.084  -1.256   0.137  0.00  0.00    -0.446 OA
BRANCH   2  24
ATOM      6  O   UNL     1       3.357   0.859  -0.688  0.00  0.00    -0.226 OA
ATOM      8  N   UNL     1       5.152  -0.395   0.139  0.00  0.00    -0.251 N 
ATOM     24  C   UNL     1       3.833  -0.153  -0.189  0.00  0.00    +0.405 C 
ATOM     42  H   UNL     1       5.377  -1.363   0.359  0.00  0.00    +0.158 HD
BRANCH   8  26
ATOM     26  C   UNL     1       6.261   0.466  -0.024  0.00  0.00    +0.037 A 
ATOM     28  C   UNL     1       6.088   1.848   0.035  0.00  0.00    +0.038 A 
ATOM     29  C   UNL     1       7.531  -0.069  -0.246  0.00  0.00    +0.023 A 
ATOM     32  C   UNL     1       7.183   2.697  -0.128  0.00  0.00    +0.009 A 
ATOM     33  C   UNL     1       8.626   0.779  -0.409  0.00  0.00    +0.003 A 
ATOM     36  C   UNL     1       8.452   2.162  -0.350  0.00  0.00    +0.015 A 
BRANCH  32   1
ATOM      1  S   UNL     1       6.960   4.463  -0.053  0.00  0.00    -0.129 S 
ATOM     38  C   UNL     1       8.036   4.911   1.339  0.00  0.00    +0.090 C 
ENDBRANCH  32   1
ENDBRANCH   8  26
ENDBRANCH   2  24
ENDBRANCH  15   2
BRANCH  11  20
ATOM     20  C   UNL     1       1.565  -3.647   0.517  0.00  0.00    +0.166 C 
BRANCH  20   4
ATOM      4  O   UNL     1       2.886  -3.994   0.165  0.00  0.00    -0.394 OA
ATOM     40  H   UNL     1       3.183  -4.677   0.791  0.00  0.00    +0.209 HD
ENDBRANCH  20   4
ENDBRANCH  11  20
BRANCH  12  22
ATOM     22  C   UNL     1      -3.543  -0.626   1.198  0.00  0.00    +0.102 C 
BRANCH  22  23
ATOM      5  O   UNL     1      -5.961  -0.720   1.195  0.00  0.00    -0.276 OA
ATOM      7  N   UNL     1      -4.855   0.446  -0.484  0.00  0.00    -0.311 N 
ATOM     23  C   UNL     1      -4.925  -0.325   0.667  0.00  0.00    +0.214 C 
ATOM     41  H   UNL     1      -3.956   0.792  -0.805  0.00  0.00    +0.149 HD
BRANCH   7  25
ATOM     25  C   UNL     1      -6.023   0.885  -1.212  0.00  0.00    +0.139 C 
BRANCH  25  27
ATOM     27  C   UNL     1      -6.525   2.213  -0.723  0.00  0.00    -0.030 A 
ATOM     30  C   UNL     1      -7.468   2.267   0.304  0.00  0.00    +0.005 A 
ATOM     31  C   UNL     1      -6.048   3.392  -1.294  0.00  0.00    +0.005 A 
ATOM     34  C   UNL     1      -7.934   3.500   0.759  0.00  0.00    +0.000 A 
ATOM     35  C   UNL     1      -6.514   4.626  -0.840  0.00  0.00    +0.000 A 
ATOM     37  C   UNL     1      -7.457   4.680   0.187  0.00  0.00    +0.000 A 
ENDBRANCH  25  27
ENDBRANCH   7  25
ENDBRANCH  22  23
ENDBRANCH  12  22
TORSDOF 11
