REMARK  Name = 7682251
REMARK  3 active torsions:
REMARK  status: ('A' for Active; 'I' for Inactive)
REMARK    1  A    between atoms: N_4  and  C_13
REMARK    2  A    between atoms: C_13  and  C_17
REMARK    3  A    between atoms: C_14  and  C_19
REMARK                            x       y       z     vdW  Elec       q    Type
REMARK                         _______ _______ _______ _____ _____    ______ ____
ROOT
ATOM      3  O   UNL     1      -3.262   1.383  -3.032  0.00  0.00    -0.268 OA
ATOM      4  N   UNL     1      -0.354   2.106   0.942  0.00  0.00    -0.294 NA
ATOM      5  N   UNL     1      -2.593   0.766  -0.874  0.00  0.00    -0.311 N 
ATOM      6  C   UNL     1      -2.835   2.369   1.116  0.00  0.00    +0.024 C 
ATOM      7  C   UNL     1      -1.842   0.157   1.445  0.00  0.00    +0.051 C 
ATOM      8  C   UNL     1      -2.943   1.094   1.935  0.00  0.00    +0.017 C 
ATOM      9  C   UNL     1      -1.447   3.014   1.307  0.00  0.00    +0.090 C 
ATOM     10  C   UNL     1      -0.463   0.828   1.659  0.00  0.00    +0.094 C 
ATOM     11  C   UNL     1      -3.125   2.031  -0.348  0.00  0.00    +0.130 C 
ATOM     12  C   UNL     1      -2.042  -0.220  -0.028  0.00  0.00    +0.034 A 
ATOM     14  C   UNL     1      -1.699  -1.433  -0.538  0.00  0.00    +0.009 A 
ATOM     15  C   UNL     1      -2.775   0.562  -2.253  0.00  0.00    +0.252 A 
ATOM     16  C   UNL     1      -1.869  -1.675  -1.959  0.00  0.00    +0.016 A 
ATOM     18  C   UNL     1      -2.358  -0.753  -2.788  0.00  0.00    +0.071 A 
ENDROOT
BRANCH  14  19
ATOM      1  S   UNL     1      -2.221  -3.576   1.058  0.00  0.00    -0.097 S 
ATOM     19  C   UNL     1      -1.159  -2.461   0.310  0.00  0.00    +0.021 A 
ATOM     21  C   UNL     1       0.157  -2.703   0.634  0.00  0.00    +0.016 A 
ATOM     24  C   UNL     1       0.296  -3.820   1.508  0.00  0.00    +0.008 A 
ATOM     25  C   UNL     1      -0.920  -4.388   1.819  0.00  0.00    +0.046 A 
ENDBRANCH  14  19
BRANCH   4  13
ATOM     13  C   UNL     1       0.946   2.729   1.178  0.00  0.00    +0.158 C 
BRANCH  13  17
ATOM      2  O   UNL     1       1.908   1.298  -0.493  0.00  0.00    -0.458 OA
ATOM     17  C   UNL     1       2.079   1.858   0.717  0.00  0.00    +0.120 A 
ATOM     20  C   UNL     1       3.257   1.522   1.294  0.00  0.00    +0.054 A 
ATOM     22  C   UNL     1       3.901   0.666   0.362  0.00  0.00    +0.020 A 
ATOM     23  C   UNL     1       3.032   0.560  -0.718  0.00  0.00    +0.135 A 
ATOM     26  C   UNL     1       5.122  -0.030   0.313  0.00  0.00    +0.011 A 
ATOM     27  C   UNL     1       3.291  -0.198  -1.859  0.00  0.00    +0.047 A 
ATOM     28  C   UNL     1       5.411  -0.802  -0.821  0.00  0.00    +0.001 A 
ATOM     29  C   UNL     1       4.510  -0.883  -1.886  0.00  0.00    +0.004 A 
ENDBRANCH  13  17
ENDBRANCH   4  13
TORSDOF 3
