REMARK  Name = 25390149
REMARK  12 active torsions:
REMARK  status: ('A' for Active; 'I' for Inactive)
REMARK    1  A    between atoms: O_5  and  C_14
REMARK    2  A    between atoms: O_6  and  C_15
REMARK    3  A    between atoms: O_9  and  C_31
REMARK    4  A    between atoms: O_9  and  C_32
REMARK    5  A    between atoms: N_10  and  C_19
REMARK    6  A    between atoms: N_12  and  C_23
REMARK    7  A    between atoms: C_16  and  C_18
REMARK    8  A    between atoms: C_17  and  C_19
REMARK    9  A    between atoms: C_18  and  C_20
REMARK   10  A    between atoms: C_22  and  C_24
REMARK   11  A    between atoms: C_23  and  C_25
REMARK   12  A    between atoms: C_23  and  C_26
REMARK                            x       y       z     vdW  Elec       q    Type
REMARK                         _______ _______ _______ _____ _____    ______ ____
ROOT
ATOM      4  O   UNL     1       3.322  -0.060  -0.601  0.00  0.00    -0.366 OA
ATOM     14  C   UNL     1       5.335   0.612   0.427  0.00  0.00    +0.175 C 
ATOM     15  C   UNL     1       5.680  -0.363  -0.679  0.00  0.00    +0.176 C 
ATOM     16  C   UNL     1       3.956   1.084  -0.003  0.00  0.00    +0.159 C 
ATOM     17  C   UNL     1       4.336  -1.032  -0.944  0.00  0.00    +0.167 C 
ENDROOT
BRANCH  14   5
ATOM      5  O   UNL     1       6.251   1.681   0.537  0.00  0.00    -0.387 OA
ATOM     33  H   UNL     1       7.129   1.296   0.697  0.00  0.00    +0.210 HD
ENDBRANCH  14   5
BRANCH  15   6
ATOM      6  O   UNL     1       6.063   0.343  -1.859  0.00  0.00    -0.387 OA
ATOM     34  H   UNL     1       6.239  -0.320  -2.550  0.00  0.00    +0.210 HD
ENDBRANCH  15   6
BRANCH  16  18
ATOM     18  C   UNL     1       3.108   1.595   1.149  0.00  0.00    +0.133 C 
BRANCH  18  20
ATOM      7  O   UNL     1       1.581   3.144   0.048  0.00  0.00    -0.338 OA
ATOM     11  N   UNL     1       0.595   1.302   0.856  0.00  0.00    -0.191 NA
ATOM     13  N   UNL     1       0.220   3.264  -0.260  0.00  0.00    -0.056 NA
ATOM     20  C   UNL     1       1.716   1.961   0.703  0.00  0.00    +0.230 A 
ATOM     22  C   UNL     1      -0.294   2.140   0.249  0.00  0.00    +0.202 A 
BRANCH  22  24
ATOM     24  C   UNL     1      -1.691   1.825   0.167  0.00  0.00    +0.023 A 
ATOM     27  C   UNL     1      -2.494   2.453  -0.786  0.00  0.00    +0.015 A 
ATOM     28  C   UNL     1      -2.247   0.890   1.040  0.00  0.00    +0.015 A 
ATOM     29  C   UNL     1      -3.852   2.146  -0.865  0.00  0.00    +0.046 A 
ATOM     30  C   UNL     1      -3.606   0.584   0.962  0.00  0.00    +0.046 A 
ATOM     31  C   UNL     1      -4.408   1.212   0.009  0.00  0.00    +0.130 A 
BRANCH  31   9
ATOM      9  O   UNL     1      -5.734   0.913  -0.067  0.00  0.00    -0.406 OA
BRANCH   9  32
ATOM      1  F   UNL     1      -7.267  -0.433  -1.032  0.00  0.00    -0.133 F 
ATOM      2  F   UNL     1      -5.172  -1.054  -1.091  0.00  0.00    -0.133 F 
ATOM      3  F   UNL     1      -6.305  -1.123   0.805  0.00  0.00    -0.133 F 
ATOM     32  C   UNL     1      -6.106  -0.434  -0.339  0.00  0.00    +0.575 C 
ENDBRANCH   9  32
ENDBRANCH  31   9
ENDBRANCH  22  24
ENDBRANCH  18  20
ENDBRANCH  16  18
BRANCH  17  19
ATOM     19  C   UNL     1       4.106  -2.268  -0.084  0.00  0.00    +0.140 C 
BRANCH  19  10
ATOM      8  O   UNL     1       1.594  -1.676   1.207  0.00  0.00    -0.253 OA
ATOM     10  N   UNL     1       2.832  -2.862  -0.361  0.00  0.00    -0.297 N 
ATOM     12  N   UNL     1       0.565  -3.248  -0.154  0.00  0.00    -0.297 N 
ATOM     21  C   UNL     1       1.656  -2.519   0.313  0.00  0.00    +0.300 C 
ATOM     35  H   UNL     1       2.780  -3.563  -1.094  0.00  0.00    +0.150 HD
ATOM     36  H   UNL     1       0.714  -3.923  -0.898  0.00  0.00    +0.150 HD
BRANCH  12  23
ATOM     23  C   UNL     1      -0.769  -3.085   0.374  0.00  0.00    +0.068 C 
ATOM     25  C   UNL     1      -1.256  -4.389   0.994  0.00  0.00    +0.027 C 
ATOM     26  C   UNL     1      -1.720  -2.603  -0.715  0.00  0.00    +0.027 C 
ENDBRANCH  12  23
ENDBRANCH  19  10
ENDBRANCH  17  19
TORSDOF 10
