REMARK  Name = 75537131
REMARK  4 active torsions:
REMARK  status: ('A' for Active; 'I' for Inactive)
REMARK    1  A    between atoms: N_2  and  C_8
REMARK    2  A    between atoms: N_4  and  C_19
REMARK    3  A    between atoms: N_5  and  C_23
REMARK    4  A    between atoms: C_19  and  C_20
REMARK                            x       y       z     vdW  Elec       q    Type
REMARK                         _______ _______ _______ _____ _____    ______ ____
ROOT
ATOM      1  O   UNL     1       2.520   2.736   0.032  0.00  0.00    -0.252 OA
ATOM      2  N   UNL     1       2.397   0.387  -0.150  0.00  0.00    -0.281 N 
ATOM      3  N   UNL     1       0.489   1.572  -0.166  0.00  0.00    -0.278 N 
ATOM      4  N   UNL     1      -2.181   0.847   0.340  0.00  0.00    -0.292 NA
ATOM      7  C   UNL     1       0.072   0.208  -0.417  0.00  0.00    +0.109 C 
ATOM      9  C   UNL     1       1.340  -0.609  -0.176  0.00  0.00    +0.133 C 
ATOM     10  C   UNL     1      -1.110  -0.161   0.479  0.00  0.00    +0.109 C 
ATOM     13  C   UNL     1       1.882   1.698  -0.085  0.00  0.00    +0.305 C 
ATOM     14  C   UNL     1      -0.507   2.622  -0.132  0.00  0.00    +0.125 C 
ATOM     15  C   UNL     1      -1.697   2.187   0.727  0.00  0.00    +0.104 C 
ENDROOT
BRANCH   2   8
ATOM      8  C   UNL     1       3.789   0.022  -0.052  0.00  0.00    +0.078 C 
ATOM     11  C   UNL     1       4.260  -0.652  -1.342  0.00  0.00    +0.022 C 
ATOM     12  C   UNL     1       4.029  -0.875   1.165  0.00  0.00    +0.022 C 
ATOM     16  C   UNL     1       5.717  -1.097  -1.246  0.00  0.00    +0.002 C 
ATOM     17  C   UNL     1       5.487  -1.318   1.259  0.00  0.00    +0.002 C 
ATOM     18  C   UNL     1       5.955  -1.988  -0.030  0.00  0.00    +0.000 C 
ENDBRANCH   2   8
BRANCH   4  19
ATOM     19  C   UNL     1      -3.341   0.471   1.148  0.00  0.00    +0.158 C 
BRANCH  19  20
ATOM      5  N   UNL     1      -4.983  -0.379  -0.558  0.00  0.00    -0.336 N 
ATOM      6  N   UNL     1      -4.153  -1.889   0.843  0.00  0.00    -0.239 NA
ATOM     20  C   UNL     1      -4.148  -0.621   0.497  0.00  0.00    +0.124 A 
ATOM     21  C   UNL     1      -5.558  -1.569  -0.907  0.00  0.00    +0.106 A 
ATOM     22  C   UNL     1      -5.030  -2.485  -0.029  0.00  0.00    +0.130 A 
ATOM     23  C   UNL     1      -5.226   0.892  -1.199  0.00  0.00    +0.150 C 
ENDBRANCH  19  20
ENDBRANCH   4  19
TORSDOF 3
