REMARK  Name = 75537019
REMARK  3 active torsions:
REMARK  status: ('A' for Active; 'I' for Inactive)
REMARK    1  A    between atoms: S_1  and  N_8
REMARK    2  A    between atoms: S_1  and  C_21
REMARK    3  A    between atoms: N_6  and  C_10
REMARK                            x       y       z     vdW  Elec       q    Type
REMARK                         _______ _______ _______ _____ _____    ______ ____
ROOT
ATOM      3  O   UNL     1       2.460  -0.932  -2.539  0.00  0.00    -0.252 OA
ATOM      6  N   UNL     1       2.778  -0.402  -0.264  0.00  0.00    -0.281 N 
ATOM      7  N   UNL     1       0.902  -1.479  -0.868  0.00  0.00    -0.278 N 
ATOM      8  N   UNL     1      -1.594  -1.744   0.363  0.00  0.00    -0.173 NA
ATOM      9  C   UNL     1       0.835  -1.416   0.580  0.00  0.00    +0.111 C 
ATOM     11  C   UNL     1       2.001  -0.506   0.958  0.00  0.00    +0.133 C 
ATOM     12  C   UNL     1      -0.534  -0.916   1.028  0.00  0.00    +0.133 C 
ATOM     15  C   UNL     1       2.094  -0.940  -1.371  0.00  0.00    +0.305 C 
ATOM     16  C   UNL     1      -0.151  -2.149  -1.606  0.00  0.00    +0.127 C 
ATOM     17  C   UNL     1      -1.515  -1.657  -1.133  0.00  0.00    +0.128 C 
ENDROOT
BRANCH   6  10
ATOM     10  C   UNL     1       4.039   0.298  -0.310  0.00  0.00    +0.078 C 
ATOM     13  C   UNL     1       5.101  -0.456   0.493  0.00  0.00    +0.022 C 
ATOM     14  C   UNL     1       3.879   1.736   0.190  0.00  0.00    +0.022 C 
ATOM     18  C   UNL     1       6.433   0.290   0.505  0.00  0.00    +0.002 C 
ATOM     19  C   UNL     1       5.213   2.479   0.200  0.00  0.00    +0.002 C 
ATOM     20  C   UNL     1       6.271   1.725   1.000  0.00  0.00    +0.000 C 
ENDBRANCH   6  10
BRANCH   8   1
ATOM      1  S   UNL     1      -3.168  -1.578   1.022  0.00  0.00    +0.061 S 
ATOM      4  O   UNL     1      -3.071  -1.516   2.464  0.00  0.00    -0.153 OA
ATOM      5  O   UNL     1      -4.050  -2.524   0.372  0.00  0.00    -0.153 OA
BRANCH   1  21
ATOM      2  F   UNL     1      -4.530   3.814  -0.931  0.00  0.00    -0.205 F 
ATOM     21  C   UNL     1      -3.577   0.036   0.437  0.00  0.00    +0.106 A 
ATOM     22  C   UNL     1      -4.208   0.192  -0.797  0.00  0.00    +0.031 A 
ATOM     23  C   UNL     1      -3.267   1.156   1.208  0.00  0.00    +0.031 A 
ATOM     24  C   UNL     1      -4.531   1.468  -1.259  0.00  0.00    +0.040 A 
ATOM     25  C   UNL     1      -3.590   2.432   0.746  0.00  0.00    +0.040 A 
ATOM     26  C   UNL     1      -4.221   2.588  -0.487  0.00  0.00    +0.124 A 
ENDBRANCH   1  21
ENDBRANCH   8   1
TORSDOF 3
