REMARK  Name = 7156507
REMARK  11 active torsions:
REMARK  status: ('A' for Active; 'I' for Inactive)
REMARK    1  A    between atoms: O_2  and  C_13
REMARK    2  A    between atoms: O_3  and  C_18
REMARK    3  A    between atoms: N_6  and  C_25
REMARK    4  A    between atoms: C_8  and  C_16
REMARK    5  A    between atoms: C_10  and  C_18
REMARK    6  A    between atoms: C_10  and  C_19
REMARK    7  A    between atoms: C_11  and  C_21
REMARK    8  A    between atoms: C_21  and  C_22
REMARK    9  A    between atoms: C_23  and  C_24
REMARK   10  A    between atoms: C_25  and  C_28
REMARK   11  A    between atoms: C_25  and  C_29
REMARK                            x       y       z     vdW  Elec       q    Type
REMARK                         _______ _______ _______ _____ _____    ______ ____
ROOT
ATOM      1  S   UNL     1      -1.127   3.451  -0.259  0.00  0.00    -0.072 S 
ATOM      5  N   UNL     1       0.564   1.548   0.202  0.00  0.00    -0.243 NA
ATOM      8  C   UNL     1      -2.437  -0.833   0.648  0.00  0.00    -0.020 C 
ATOM      9  C   UNL     1      -3.334  -0.022  -0.387  0.00  0.00    +0.011 C 
ATOM     10  C   UNL     1      -4.832  -0.488  -0.554  0.00  0.00    +0.021 C 
ATOM     11  C   UNL     1      -0.905  -0.499   0.339  0.00  0.00    +0.053 C 
ATOM     12  C   UNL     1      -2.656  -2.354   0.441  0.00  0.00    +0.010 C 
ATOM     13  C   UNL     1      -4.874  -2.035  -0.703  0.00  0.00    +0.123 C 
ATOM     14  C   UNL     1      -3.173   1.514  -0.199  0.00  0.00    +0.049 C 
ATOM     15  C   UNL     1      -4.121  -2.766   0.404  0.00  0.00    +0.032 C 
ATOM     16  C   UNL     1      -2.753  -0.481   2.123  0.00  0.00    +0.012 C 
ATOM     17  C   UNL     1      -0.698   0.984   0.163  0.00  0.00    +0.056 A 
ATOM     19  C   UNL     1      -5.409   0.118  -1.864  0.00  0.00    +0.016 C 
ATOM     20  C   UNL     1      -1.727   1.866  -0.096  0.00  0.00    +0.014 A 
ATOM     23  C   UNL     1       0.459   2.843  -0.001  0.00  0.00    +0.110 A 
ENDROOT
BRANCH  23  24
ATOM      7  N   UNL     1       2.353   6.045   0.160  0.00  0.00    -0.263 NA
ATOM     24  C   UNL     1       1.566   3.770  -0.022  0.00  0.00    +0.025 A 
ATOM     26  C   UNL     1       2.864   3.325  -0.232  0.00  0.00    +0.013 A 
ATOM     27  C   UNL     1       1.362   5.125   0.168  0.00  0.00    +0.121 A 
ATOM     30  C   UNL     1       3.910   4.240  -0.247  0.00  0.00    +0.020 A 
ATOM     31  C   UNL     1       3.605   5.577  -0.048  0.00  0.00    +0.111 A 
ENDBRANCH  23  24
BRANCH  13   2
ATOM      2  O   UNL     1      -6.223  -2.502  -0.726  0.00  0.00    -0.391 OA
ATOM     37  H   UNL     1      -6.200  -3.464  -0.867  0.00  0.00    +0.210 HD
ENDBRANCH  13   2
BRANCH  10  18
ATOM     18  C   UNL     1      -5.778  -0.017   0.573  0.00  0.00    +0.165 C 
BRANCH  18   3
ATOM      3  O   UNL     1      -7.071  -0.498   0.280  0.00  0.00    -0.394 OA
ATOM     38  H   UNL     1      -7.508   0.146  -0.302  0.00  0.00    +0.209 HD
ENDBRANCH  18   3
ENDBRANCH  10  18
BRANCH  11  21
ATOM     21  C   UNL     1       0.092  -1.090   1.345  0.00  0.00    +0.106 C 
BRANCH  21  22
ATOM      4  O   UNL     1       2.345  -0.238   1.575  0.00  0.00    -0.276 OA
ATOM      6  N   UNL     1       1.775  -1.480  -0.305  0.00  0.00    -0.309 N 
ATOM     22  C   UNL     1       1.525  -0.873   0.917  0.00  0.00    +0.214 C 
ATOM     39  H   UNL     1       1.059  -2.068  -0.721  0.00  0.00    +0.149 HD
BRANCH   6  25
ATOM     25  C   UNL     1       3.062  -1.434  -0.961  0.00  0.00    +0.100 C 
ATOM     28  C   UNL     1       2.879  -1.441  -2.477  0.00  0.00    +0.033 C 
BRANCH  25  29
ATOM     29  C   UNL     1       3.968  -2.547  -0.480  0.00  0.00    -0.027 A 
ATOM     32  C   UNL     1       3.416  -3.771  -0.147  0.00  0.00    +0.005 A 
ATOM     33  C   UNL     1       5.330  -2.316  -0.384  0.00  0.00    +0.005 A 
ATOM     34  C   UNL     1       4.251  -4.797   0.297  0.00  0.00    +0.000 A 
ATOM     35  C   UNL     1       6.165  -3.341   0.059  0.00  0.00    +0.000 A 
ATOM     36  C   UNL     1       5.625  -4.582   0.399  0.00  0.00    +0.000 A 
ENDBRANCH  25  29
ENDBRANCH   6  25
ENDBRANCH  21  22
ENDBRANCH  11  21
TORSDOF 8
