REMARK  Name = 26745347
REMARK  7 active torsions:
REMARK  status: ('A' for Active; 'I' for Inactive)
REMARK    1  A    between atoms: O_3  and  C_26
REMARK    2  A    between atoms: N_5  and  C_14
REMARK    3  A    between atoms: N_8  and  C_20
REMARK    4  A    between atoms: C_9  and  C_15
REMARK    5  A    between atoms: C_14  and  C_16
REMARK    6  A    between atoms: C_20  and  C_23
REMARK    7  A    between atoms: C_24  and  C_26
REMARK                            x       y       z     vdW  Elec       q    Type
REMARK                         _______ _______ _______ _____ _____    ______ ____
ROOT
ATOM      5  N   UNL     1       0.940   0.946  -0.252  0.00  0.00    -0.281 NA
ATOM      6  N   UNL     1       2.263   4.441  -0.504  0.00  0.00    -0.347 N 
ATOM      7  N   UNL     1       4.000   3.644   0.657  0.00  0.00    -0.240 NA
ATOM      9  C   UNL     1       2.297   0.337  -0.151  0.00  0.00    +0.150 C 
ATOM     10  C   UNL     1       3.301   1.206   0.666  0.00  0.00    +0.085 C 
ATOM     11  C   UNL     1       0.973   2.271  -0.934  0.00  0.00    +0.140 C 
ATOM     12  C   UNL     1       2.072   3.097  -0.392  0.00  0.00    +0.053 A 
ATOM     13  C   UNL     1       3.150   2.632   0.316  0.00  0.00    +0.065 A 
ATOM     17  C   UNL     1       3.439   4.723   0.146  0.00  0.00    +0.197 A 
ATOM     29  H   UNL     1       1.662   5.104  -0.975  0.00  0.00    +0.167 HD
ENDROOT
BRANCH   9  15
ATOM      1  O   UNL     1       1.739  -1.066   1.698  0.00  0.00    -0.274 OA
ATOM      8  N   UNL     1       2.665  -2.029  -0.208  0.00  0.00    -0.307 N 
ATOM     15  C   UNL     1       2.189  -0.979   0.559  0.00  0.00    +0.231 C 
ATOM     30  H   UNL     1       3.002  -1.852  -1.150  0.00  0.00    +0.149 HD
BRANCH   8  20
ATOM     20  C   UNL     1       2.692  -3.397   0.255  0.00  0.00    +0.178 C 
BRANCH  20  23
ATOM      2  O   UNL     1       0.714  -4.654   0.899  0.00  0.00    -0.466 OA
ATOM     23  C   UNL     1       1.446  -4.144  -0.126  0.00  0.00    +0.122 A 
ATOM     25  C   UNL     1       0.858  -4.438  -1.334  0.00  0.00    +0.046 A 
ATOM     27  C   UNL     1      -0.311  -5.176  -1.032  0.00  0.00    +0.041 A 
ATOM     28  C   UNL     1      -0.354  -5.280   0.339  0.00  0.00    +0.195 A 
ENDBRANCH  20  23
ENDBRANCH   8  20
ENDBRANCH   9  15
BRANCH   5  14
ATOM     14  C   UNL     1      -0.010   0.080  -0.961  0.00  0.00    +0.120 C 
BRANCH  14  16
ATOM     16  C   UNL     1      -1.432   0.371  -0.575  0.00  0.00    -0.033 A 
ATOM     18  C   UNL     1      -1.922  -0.064   0.656  0.00  0.00    +0.006 A 
ATOM     19  C   UNL     1      -2.261   1.076  -1.447  0.00  0.00    +0.006 A 
ATOM     21  C   UNL     1      -3.243   0.206   1.016  0.00  0.00    +0.015 A 
ATOM     22  C   UNL     1      -3.582   1.346  -1.088  0.00  0.00    +0.015 A 
ATOM     24  C   UNL     1      -4.072   0.911   0.144  0.00  0.00    +0.059 A 
BRANCH  24  26
ATOM      4  O   UNL     1      -5.986   0.859   1.579  0.00  0.00    -0.245 OA
ATOM     26  C   UNL     1      -5.449   1.194   0.518  0.00  0.00    +0.337 C 
BRANCH  26   3
ATOM      3  O   UNL     1      -6.118   1.889  -0.443  0.00  0.00    -0.477 OA
ATOM     31  H   UNL     1      -7.045   2.074  -0.181  0.00  0.00    +0.295 HD
ENDBRANCH  26   3
ENDBRANCH  24  26
ENDBRANCH  14  16
ENDBRANCH   5  14
TORSDOF 7
