REMARK  Name = 11912195
REMARK  7 active torsions:
REMARK  status: ('A' for Active; 'I' for Inactive)
REMARK    1  A    between atoms: S_1  and  N_7
REMARK    2  A    between atoms: S_1  and  C_19
REMARK    3  A    between atoms: N_7  and  C_14
REMARK    4  A    between atoms: N_8  and  C_15
REMARK    5  A    between atoms: N_11  and  C_27
REMARK    6  A    between atoms: C_22  and  C_28
REMARK    7  A    between atoms: C_31  and  C_35
REMARK                            x       y       z     vdW  Elec       q    Type
REMARK                         _______ _______ _______ _____ _____    ______ ____
ROOT
ATOM      2  O   UNL     1      -0.982   2.449   1.301  0.00  0.00    -0.370 OA
ATOM      3  O   UNL     1       1.334   0.590   2.275  0.00  0.00    -0.370 OA
ATOM     12  C   UNL     1       0.996   1.161   1.000  0.00  0.00    +0.170 C 
ATOM     13  C   UNL     1      -0.516   1.153   0.888  0.00  0.00    +0.171 C 
ATOM     14  C   UNL     1       1.362   2.625   0.970  0.00  0.00    +0.133 C 
ATOM     15  C   UNL     1      -0.955   0.099   1.878  0.00  0.00    +0.130 C 
ATOM     16  C   UNL     1       0.147   3.286   1.592  0.00  0.00    +0.183 C 
ATOM     17  C   UNL     1       0.133   0.161   2.934  0.00  0.00    +0.185 C 
ENDROOT
BRANCH  15   8
ATOM      8  N   UNL     1      -0.965  -1.201   1.244  0.00  0.00    -0.306 N 
ATOM      9  N   UNL     1      -3.129  -0.891   0.391  0.00  0.00    -0.214 NA
ATOM     10  N   UNL     1      -1.912  -2.928  -0.033  0.00  0.00    -0.223 NA
ATOM     18  C   UNL     1      -2.034  -1.688   0.512  0.00  0.00    +0.216 A 
ATOM     22  C   UNL     1      -4.152  -1.397  -0.329  0.00  0.00    +0.076 A 
ATOM     23  C   UNL     1      -2.972  -3.371  -0.740  0.00  0.00    +0.116 A 
ATOM     26  C   UNL     1      -4.130  -2.642  -0.923  0.00  0.00    +0.048 A 
ATOM     37  H   UNL     1      -0.134  -1.780   1.283  0.00  0.00    +0.149 HD
BRANCH  22  28
ATOM     28  C   UNL     1      -5.304  -0.535  -0.446  0.00  0.00    +0.001 A 
ATOM     29  C   UNL     1      -6.580  -1.086  -0.579  0.00  0.00    +0.010 A 
ATOM     30  C   UNL     1      -5.146   0.852  -0.426  0.00  0.00    +0.010 A 
ATOM     32  C   UNL     1      -7.694  -0.253  -0.692  0.00  0.00    +0.001 A 
ATOM     33  C   UNL     1      -6.260   1.685  -0.539  0.00  0.00    +0.001 A 
ATOM     34  C   UNL     1      -7.534   1.132  -0.672  0.00  0.00    +0.000 A 
ENDBRANCH  22  28
ENDBRANCH  15   8
BRANCH  14   7
ATOM      7  N   UNL     1       1.506   3.074  -0.436  0.00  0.00    -0.182 NA
ATOM     36  H   UNL     1       0.676   2.978  -1.034  0.00  0.00    +0.148 HD
BRANCH   7   1
ATOM      1  S   UNL     1       3.042   3.104  -1.159  0.00  0.00    +0.059 S 
ATOM      4  O   UNL     1       3.948   3.884  -0.337  0.00  0.00    -0.153 OA
ATOM      5  O   UNL     1       2.889   3.411  -2.568  0.00  0.00    -0.153 OA
BRANCH   1  19
ATOM     19  C   UNL     1       3.531   1.409  -1.050  0.00  0.00    +0.105 A 
ATOM     20  C   UNL     1       4.220   0.975   0.069  0.00  0.00    +0.030 A 
ATOM     21  C   UNL     1       3.214   0.547  -2.086  0.00  0.00    +0.030 A 
ATOM     24  C   UNL     1       4.605  -0.363   0.154  0.00  0.00    +0.025 A 
ATOM     25  C   UNL     1       3.599  -0.791  -2.000  0.00  0.00    +0.025 A 
ATOM     27  C   UNL     1       4.295  -1.246  -0.880  0.00  0.00    +0.033 A 
BRANCH  27  11
ATOM      6  O   UNL     1       5.785  -2.716   1.285  0.00  0.00    -0.276 OA
ATOM     11  N   UNL     1       4.680  -2.585  -0.793  0.00  0.00    -0.286 N 
ATOM     31  C   UNL     1       5.378  -3.219   0.243  0.00  0.00    +0.214 C 
ATOM     35  C   UNL     1       5.600  -4.682  -0.046  0.00  0.00    +0.109 C 
ATOM     38  H   UNL     1       4.417  -3.164  -1.588  0.00  0.00    +0.155 HD
ENDBRANCH  27  11
ENDBRANCH   1  19
ENDBRANCH   7   1
ENDBRANCH  14   7
TORSDOF 6
