REMARK  Name = 28960388
REMARK  7 active torsions:
REMARK  status: ('A' for Active; 'I' for Inactive)
REMARK    1  A    between atoms: O_3  and  C_8
REMARK    2  A    between atoms: N_5  and  C_7
REMARK    3  A    between atoms: N_6  and  C_9
REMARK    4  A    between atoms: N_6  and  C_19
REMARK    5  A    between atoms: C_14  and  C_18
REMARK    6  A    between atoms: C_18  and  C_20
REMARK    7  A    between atoms: C_19  and  C_21
REMARK                            x       y       z     vdW  Elec       q    Type
REMARK                         _______ _______ _______ _____ _____    ______ ____
ROOT
ATOM      1  O   UNL     1       2.660  -1.980  -1.422  0.00  0.00    -0.343 OA
ATOM      2  O   UNL     1       3.067  -3.700   0.080  0.00  0.00    -0.347 OA
ATOM      7  C   UNL     1       1.350  -2.081   0.603  0.00  0.00    +0.143 C 
ATOM      8  C   UNL     1       2.382  -1.190   1.333  0.00  0.00    +0.156 C 
ATOM      9  C   UNL     1       3.513  -0.661   0.416  0.00  0.00    +0.116 C 
ATOM     10  C   UNL     1       2.034  -2.894  -0.511  0.00  0.00    +0.270 C 
ATOM     11  C   UNL     1       3.864  -1.648  -0.721  0.00  0.00    +0.166 C 
ATOM     15  C   UNL     1       4.292  -3.023  -0.242  0.00  0.00    +0.196 C 
ENDROOT
BRANCH   7   5
ATOM      5  N   UNL     1       0.272  -1.268   0.039  0.00  0.00    -0.293 NA
ATOM     12  C   UNL     1      -0.695  -0.900   1.082  0.00  0.00    +0.085 C 
ATOM     13  C   UNL     1      -0.385  -1.980  -1.065  0.00  0.00    +0.085 C 
ATOM     14  C   UNL     1      -2.512  -0.673  -0.661  0.00  0.00    -0.004 C 
ATOM     16  C   UNL     1      -1.800  -0.005   0.520  0.00  0.00    +0.019 C 
ATOM     17  C   UNL     1      -1.480  -1.122  -1.702  0.00  0.00    +0.019 C 
BRANCH  14  18
ATOM     18  C   UNL     1      -3.545   0.263  -1.281  0.00  0.00    +0.038 C 
BRANCH  18  20
ATOM     20  C   UNL     1      -4.812   0.307  -0.471  0.00  0.00    -0.047 A 
ATOM     22  C   UNL     1      -5.845  -0.591  -0.742  0.00  0.00    +0.003 A 
ATOM     23  C   UNL     1      -4.954   1.246   0.550  0.00  0.00    +0.003 A 
ATOM     25  C   UNL     1      -7.019  -0.550   0.009  0.00  0.00    +0.000 A 
ATOM     26  C   UNL     1      -6.129   1.286   1.302  0.00  0.00    +0.000 A 
ATOM     27  C   UNL     1      -7.162   0.389   1.031  0.00  0.00    +0.000 A 
ENDBRANCH  18  20
ENDBRANCH  14  18
ENDBRANCH   7   5
BRANCH   8   3
ATOM      3  O   UNL     1       2.973  -1.978   2.377  0.00  0.00    -0.388 OA
ATOM     31  H   UNL     1       3.575  -1.400   2.876  0.00  0.00    +0.210 HD
ENDBRANCH   8   3
BRANCH   9   6
ATOM      6  N   UNL     1       3.129   0.618  -0.190  0.00  0.00    -0.302 NA
ATOM     30  H   UNL     1       3.750   0.823  -0.972  0.00  0.00    +0.123 HD
BRANCH   6  19
ATOM     19  C   UNL     1       3.233   1.694   0.781  0.00  0.00    +0.156 C 
BRANCH  19  21
ATOM      4  O   UNL     1       3.800   3.995   0.224  0.00  0.00    -0.467 OA
ATOM     21  C   UNL     1       2.850   3.023   0.188  0.00  0.00    +0.119 A 
ATOM     24  C   UNL     1       1.703   3.492  -0.409  0.00  0.00    +0.046 A 
ATOM     28  C   UNL     1       1.964   4.837  -0.761  0.00  0.00    +0.041 A 
ATOM     29  C   UNL     1       3.253   5.095  -0.355  0.00  0.00    +0.195 A 
ENDBRANCH  19  21
ENDBRANCH   6  19
ENDBRANCH   9   6
TORSDOF 7
