REMARK  Name = 26745439
REMARK  5 active torsions:
REMARK  status: ('A' for Active; 'I' for Inactive)
REMARK    1  A    between atoms: N_4  and  C_13
REMARK    2  A    between atoms: N_7  and  C_17
REMARK    3  A    between atoms: C_8  and  C_14
REMARK    4  A    between atoms: C_13  and  C_15
REMARK    5  A    between atoms: C_17  and  C_19
REMARK                            x       y       z     vdW  Elec       q    Type
REMARK                         _______ _______ _______ _____ _____    ______ ____
ROOT
ATOM      4  N   UNL     1      -1.522  -0.493  -0.792  0.00  0.00    -0.281 NA
ATOM      5  N   UNL     1      -3.614   0.496   2.133  0.00  0.00    -0.347 N 
ATOM      6  N   UNL     1      -4.506   1.981   0.719  0.00  0.00    -0.240 NA
ATOM      8  C   UNL     1      -1.601   0.827  -1.466  0.00  0.00    +0.150 C 
ATOM      9  C   UNL     1      -2.967   1.540  -1.253  0.00  0.00    +0.085 C 
ATOM     10  C   UNL     1      -1.737  -0.457   0.673  0.00  0.00    +0.140 C 
ATOM     11  C   UNL     1      -2.897   0.409   0.979  0.00  0.00    +0.053 A 
ATOM     12  C   UNL     1      -3.459   1.331   0.130  0.00  0.00    +0.065 A 
ATOM     16  C   UNL     1      -4.573   1.457   1.927  0.00  0.00    +0.197 A 
ATOM     27  H   UNL     1      -3.470  -0.037   2.980  0.00  0.00    +0.167 HD
ENDROOT
BRANCH   8  14
ATOM      3  O   UNL     1      -0.598   2.475  -0.054  0.00  0.00    -0.274 OA
ATOM      7  N   UNL     1       0.657   1.568  -1.792  0.00  0.00    -0.310 N 
ATOM     14  C   UNL     1      -0.475   1.712  -1.008  0.00  0.00    +0.231 C 
ATOM     28  H   UNL     1       0.653   0.909  -2.565  0.00  0.00    +0.149 HD
BRANCH   7  17
ATOM     17  C   UNL     1       1.870   2.323  -1.575  0.00  0.00    +0.139 C 
BRANCH  17  19
ATOM      1 CL   UNL     1       5.622  -0.488   2.189  0.00  0.00    -0.084 Cl
ATOM     19  C   UNL     1       2.808   1.621  -0.636  0.00  0.00    -0.030 A 
ATOM     22  C   UNL     1       2.725   1.858   0.737  0.00  0.00    +0.006 A 
ATOM     23  C   UNL     1       3.760   0.733  -1.135  0.00  0.00    +0.006 A 
ATOM     24  C   UNL     1       3.596   1.206   1.610  0.00  0.00    +0.020 A 
ATOM     25  C   UNL     1       4.631   0.082  -0.262  0.00  0.00    +0.020 A 
ATOM     26  C   UNL     1       4.549   0.318   1.111  0.00  0.00    +0.041 A 
ENDBRANCH  17  19
ENDBRANCH   7  17
ENDBRANCH   8  14
BRANCH   4  13
ATOM     13  C   UNL     1      -0.321  -1.248  -1.135  0.00  0.00    +0.128 C 
BRANCH  13  15
ATOM      2  S   UNL     1       0.781  -3.260   0.431  0.00  0.00    -0.100 S 
ATOM     15  C   UNL     1      -0.397  -2.671  -0.663  0.00  0.00    +0.004 A 
ATOM     18  C   UNL     1      -1.323  -3.636  -0.994  0.00  0.00    +0.012 A 
ATOM     20  C   UNL     1      -1.063  -4.875  -0.340  0.00  0.00    +0.008 A 
ATOM     21  C   UNL     1       0.053  -4.810   0.466  0.00  0.00    +0.045 A 
ENDBRANCH  13  15
ENDBRANCH   4  13
TORSDOF 5
