REMARK  Name = 40780382
REMARK  9 active torsions:
REMARK  status: ('A' for Active; 'I' for Inactive)
REMARK    1  A    between atoms: N_2  and  C_8
REMARK    2  A    between atoms: N_3  and  C_15
REMARK    3  A    between atoms: N_5  and  C_26
REMARK    4  A    between atoms: C_6  and  C_9
REMARK    5  A    between atoms: C_12  and  C_14
REMARK    6  A    between atoms: C_13  and  C_16
REMARK    7  A    between atoms: C_20  and  C_21
REMARK    8  A    between atoms: C_21  and  C_24
REMARK    9  A    between atoms: C_21  and  C_25
REMARK                            x       y       z     vdW  Elec       q    Type
REMARK                         _______ _______ _______ _____ _____    ______ ____
ROOT
ATOM      6  C   UNL     1       0.344  -0.399  -0.445  0.00  0.00    +0.047 C 
ATOM      7  C   UNL     1       1.214  -0.714   0.790  0.00  0.00    +0.039 C 
ATOM      8  C   UNL     1       2.553  -1.221   0.240  0.00  0.00    +0.098 C 
ATOM     10  C   UNL     1       0.992  -1.227  -1.516  0.00  0.00    -0.021 C 
ATOM     11  C   UNL     1       2.197  -1.669  -1.139  0.00  0.00    -0.009 C 
ENDROOT
BRANCH   6   9
ATOM      3  N   UNL     1      -3.296  -0.525  -0.049  0.00  0.00    -0.236 N 
ATOM      4  N   UNL     1      -3.054  -1.816   0.235  0.00  0.00    -0.171 NA
ATOM      9  C   UNL     1      -1.125  -0.683  -0.228  0.00  0.00    +0.003 A 
ATOM     12  C   UNL     1      -2.175   0.197  -0.334  0.00  0.00    +0.046 A 
ATOM     13  C   UNL     1      -1.726  -1.907   0.124  0.00  0.00    +0.064 A 
ATOM     14  C   UNL     1      -2.200   1.633  -0.676  0.00  0.00    +0.066 C 
ATOM     16  C   UNL     1      -1.065  -3.202   0.366  0.00  0.00    +0.068 C 
BRANCH   3  15
ATOM     15  C   UNL     1      -4.607  -0.047  -0.031  0.00  0.00    +0.066 A 
ATOM     18  C   UNL     1      -4.978   1.005  -0.869  0.00  0.00    +0.028 A 
ATOM     19  C   UNL     1      -5.545  -0.619   0.828  0.00  0.00    +0.028 A 
ATOM     20  C   UNL     1      -7.226   0.912   0.011  0.00  0.00    -0.045 A 
ATOM     22  C   UNL     1      -6.287   1.484  -0.848  0.00  0.00    +0.006 A 
ATOM     23  C   UNL     1      -6.855  -0.140   0.849  0.00  0.00    +0.006 A 
BRANCH  20  21
ATOM     21  C   UNL     1      -8.626   1.426   0.034  0.00  0.00    +0.013 C 
ATOM     24  C   UNL     1      -9.017   2.010   1.404  0.00  0.00    +0.012 C 
ATOM     25  C   UNL     1      -9.652   0.359  -0.391  0.00  0.00    +0.012 C 
ENDBRANCH  20  21
ENDBRANCH   3  15
ENDBRANCH   6   9
BRANCH   8   2
ATOM      1  O   UNL     1       5.395  -1.567   0.338  0.00  0.00    -0.252 OA
ATOM      2  N   UNL     1       3.549  -0.186   0.158  0.00  0.00    -0.293 N 
ATOM      5  N   UNL     1       5.647   0.756   0.110  0.00  0.00    -0.269 N 
ATOM     17  C   UNL     1       4.927  -0.437   0.214  0.00  0.00    +0.304 C 
ATOM     32  H   UNL     1       3.243   0.765  -0.026  0.00  0.00    +0.151 HD
ATOM     33  H   UNL     1       5.104   1.610   0.013  0.00  0.00    +0.156 HD
BRANCH   5  26
ATOM     26  C   UNL     1       7.051   0.927   0.124  0.00  0.00    +0.035 A 
ATOM     27  C   UNL     1       7.599   2.204   0.009  0.00  0.00    +0.023 A 
ATOM     28  C   UNL     1       7.888  -0.182   0.253  0.00  0.00    +0.023 A 
ATOM     29  C   UNL     1       8.984   2.374   0.022  0.00  0.00    +0.002 A 
ATOM     30  C   UNL     1       9.273  -0.013   0.267  0.00  0.00    +0.002 A 
ATOM     31  C   UNL     1       9.820   1.265   0.151  0.00  0.00    +0.000 A 
ENDBRANCH   5  26
ENDBRANCH   8   2
TORSDOF 5
