REMARK  Name = 71693479
REMARK  11 active torsions:
REMARK  status: ('A' for Active; 'I' for Inactive)
REMARK    1  A    between atoms: O_2  and  C_12
REMARK    2  A    between atoms: N_6  and  C_15
REMARK    3  A    between atoms: N_7  and  C_23
REMARK    4  A    between atoms: N_7  and  C_24
REMARK    5  A    between atoms: N_8  and  C_22
REMARK    6  A    between atoms: N_9  and  C_26
REMARK    7  A    between atoms: C_10  and  C_12
REMARK    8  A    between atoms: C_11  and  C_13
REMARK    9  A    between atoms: C_15  and  C_19
REMARK   10  A    between atoms: C_26  and  C_27
REMARK   11  A    between atoms: C_26  and  C_28
REMARK                            x       y       z     vdW  Elec       q    Type
REMARK                         _______ _______ _______ _____ _____    ______ ____
ROOT
ATOM      1  O   UNL     1       1.316   2.404  -0.110  0.00  0.00    -0.361 OA
ATOM      3  O   UNL     1       4.878   2.467  -0.089  0.00  0.00    -0.273 OA
ATOM      6  N   UNL     1       3.444   0.688   0.370  0.00  0.00    -0.283 N 
ATOM     10  C   UNL     1       2.050   0.208   0.527  0.00  0.00    +0.135 C 
ATOM     11  C   UNL     1       1.078   1.017  -0.354  0.00  0.00    +0.171 C 
ATOM     14  C   UNL     1       3.745   1.981  -0.063  0.00  0.00    +0.242 C 
ATOM     16  C   UNL     1       2.579   2.789  -0.597  0.00  0.00    +0.256 C 
ENDROOT
BRANCH  11  13
ATOM     13  C   UNL     1      -0.386   0.760  -0.064  0.00  0.00    -0.017 A 
ATOM     17  C   UNL     1      -0.885   0.944   1.226  0.00  0.00    +0.008 A 
ATOM     18  C   UNL     1      -1.236   0.341  -1.087  0.00  0.00    +0.008 A 
ATOM     20  C   UNL     1      -2.233   0.708   1.492  0.00  0.00    +0.024 A 
ATOM     21  C   UNL     1      -2.584   0.105  -0.821  0.00  0.00    +0.024 A 
ATOM     22  C   UNL     1      -3.083   0.289   0.468  0.00  0.00    +0.035 A 
BRANCH  22   8
ATOM      5  O   UNL     1      -5.295  -0.613  -1.349  0.00  0.00    -0.253 OA
ATOM      8  N   UNL     1      -4.432   0.053   0.735  0.00  0.00    -0.269 N 
ATOM      9  N   UNL     1      -6.668  -0.491   0.506  0.00  0.00    -0.297 N 
ATOM     25  C   UNL     1      -5.441  -0.372  -0.153  0.00  0.00    +0.304 C 
ATOM     30  H   UNL     1      -4.723   0.207   1.697  0.00  0.00    +0.156 HD
ATOM     31  H   UNL     1      -6.724  -0.201   1.478  0.00  0.00    +0.151 HD
BRANCH   9  26
ATOM     26  C   UNL     1      -7.882  -0.909  -0.157  0.00  0.00    +0.068 C 
ATOM     27  C   UNL     1      -8.781  -1.675   0.806  0.00  0.00    +0.027 C 
ATOM     28  C   UNL     1      -8.605   0.295  -0.747  0.00  0.00    +0.027 C 
ENDBRANCH   9  26
ENDBRANCH  22   8
ENDBRANCH  11  13
BRANCH  10  12
ATOM     12  C   UNL     1       1.910  -1.295   0.244  0.00  0.00    +0.181 C 
BRANCH  12   2
ATOM      2  O   UNL     1       2.199  -1.516  -1.121  0.00  0.00    -0.393 OA
ATOM     29  H   UNL     1       2.093  -2.468  -1.288  0.00  0.00    +0.209 HD
ENDBRANCH  12   2
ENDBRANCH  10  12
BRANCH   6  15
ATOM     15  C   UNL     1       4.520  -0.136   0.912  0.00  0.00    +0.204 C 
BRANCH  15  19
ATOM      4  O   UNL     1       4.810  -0.801  -1.372  0.00  0.00    -0.274 OA
ATOM      7  N   UNL     1       6.215  -1.785   0.189  0.00  0.00    -0.306 N 
ATOM     19  C   UNL     1       5.182  -0.926  -0.203  0.00  0.00    +0.232 C 
ATOM     23  C   UNL     1       6.636  -1.917   1.578  0.00  0.00    +0.131 C 
ATOM     24  C   UNL     1       6.948  -2.614  -0.765  0.00  0.00    +0.131 C 
ENDBRANCH  15  19
ENDBRANCH   6  15
TORSDOF 7
