REMARK  Name = 26744624
REMARK  8 active torsions:
REMARK  status: ('A' for Active; 'I' for Inactive)
REMARK    1  A    between atoms: S_2  and  C_23
REMARK    2  A    between atoms: S_2  and  C_26
REMARK    3  A    between atoms: O_4  and  C_13
REMARK    4  A    between atoms: N_8  and  C_15
REMARK    5  A    between atoms: C_11  and  C_16
REMARK    6  A    between atoms: C_15  and  C_17
REMARK    7  A    between atoms: C_20  and  C_24
REMARK    8  A    between atoms: C_24  and  C_25
REMARK                            x       y       z     vdW  Elec       q    Type
REMARK                         _______ _______ _______ _____ _____    ______ ____
ROOT
ATOM      8  N   UNL     1       2.799   1.087   0.971  0.00  0.00    -0.285 NA
ATOM     11  C   UNL     1       3.108   0.864  -0.456  0.00  0.00    +0.149 C 
ATOM     12  C   UNL     1       4.331  -0.072  -0.451  0.00  0.00    +0.061 C 
ATOM     13  C   UNL     1       4.662  -0.281   1.021  0.00  0.00    +0.130 C 
ATOM     14  C   UNL     1       4.058   0.935   1.697  0.00  0.00    +0.116 C 
ENDROOT
BRANCH  11  16
ATOM      5  O   UNL     1       1.506   1.007  -2.296  0.00  0.00    -0.336 OA
ATOM      9  N   UNL     1       1.259  -0.808  -1.008  0.00  0.00    -0.194 NA
ATOM     10  N   UNL     1       0.430   0.291  -2.835  0.00  0.00    -0.061 NA
ATOM     16  C   UNL     1       1.936   0.291  -1.224  0.00  0.00    +0.245 A 
ATOM     20  C   UNL     1       0.346  -0.765  -2.021  0.00  0.00    +0.176 A 
BRANCH  20  24
ATOM     24  C   UNL     1      -0.666  -1.811  -2.206  0.00  0.00    +0.116 C 
BRANCH  24  25
ATOM      1 CL   UNL     1       0.822  -4.304  -1.123  0.00  0.00    -0.083 Cl
ATOM      3  F   UNL     1      -2.611  -4.102   2.584  0.00  0.00    -0.205 F 
ATOM     25  C   UNL     1      -1.168  -2.452  -0.915  0.00  0.00    -0.021 A 
ATOM     27  C   UNL     1      -0.550  -3.576  -0.368  0.00  0.00    +0.047 A 
ATOM     28  C   UNL     1      -2.273  -1.884  -0.281  0.00  0.00    +0.008 A 
ATOM     29  C   UNL     1      -1.037  -4.133   0.814  0.00  0.00    +0.058 A 
ATOM     30  C   UNL     1      -2.760  -2.442   0.901  0.00  0.00    +0.039 A 
ATOM     31  C   UNL     1      -2.142  -3.566   1.449  0.00  0.00    +0.125 A 
ENDBRANCH  24  25
ENDBRANCH  20  24
ENDBRANCH  11  16
BRANCH  13   4
ATOM      4  O   UNL     1       6.062  -0.349   1.216  0.00  0.00    -0.390 OA
ATOM     32  H   UNL     1       6.393  -1.102   0.698  0.00  0.00    +0.210 HD
ENDBRANCH  13   4
BRANCH   8  15
ATOM     15  C   UNL     1       2.171   2.377   1.227  0.00  0.00    +0.120 C 
BRANCH  15  17
ATOM     17  C   UNL     1       0.702   2.360   0.898  0.00  0.00    -0.033 A 
ATOM     18  C   UNL     1       0.189   3.250  -0.046  0.00  0.00    +0.007 A 
ATOM     19  C   UNL     1      -0.147   1.455   1.536  0.00  0.00    +0.007 A 
ATOM     21  C   UNL     1      -1.172   3.235  -0.351  0.00  0.00    +0.027 A 
ATOM     22  C   UNL     1      -1.508   1.440   1.231  0.00  0.00    +0.027 A 
ATOM     23  C   UNL     1      -2.020   2.330   0.287  0.00  0.00    +0.088 A 
BRANCH  23   2
ATOM      2  S   UNL     1      -3.724   2.312  -0.095  0.00  0.00    -0.006 S 
ATOM      6  O   UNL     1      -3.916   2.869  -1.427  0.00  0.00    -0.170 OA
ATOM      7  O   UNL     1      -4.238   0.985   0.214  0.00  0.00    -0.170 OA
ATOM     26  C   UNL     1      -4.447   3.459   1.056  0.00  0.00    +0.200 C 
ENDBRANCH  23   2
ENDBRANCH  15  17
ENDBRANCH   8  15
TORSDOF 7
