REMARK  Name = 71693244
REMARK  8 active torsions:
REMARK  status: ('A' for Active; 'I' for Inactive)
REMARK    1  A    between atoms: O_2  and  C_10
REMARK    2  A    between atoms: N_6  and  C_16
REMARK    3  A    between atoms: CA_7  and  C_10
REMARK    4  A    between atoms: C_8  and  C_9
REMARK    5  A    between atoms: C_15  and  C_19
REMARK    6  A    between atoms: C_15  and  C_21
REMARK    7  A    between atoms: C_15  and  C_22
REMARK    8  A    between atoms: C_19  and  C_20
REMARK                            x       y       z     vdW  Elec       q    Type
REMARK                         _______ _______ _______ _____ _____    ______ ____
ROOT
ATOM      9  C   UNL     1      -1.167  -0.203  -0.088  0.00  0.00    -0.017 A 
ATOM     13  C   UNL     1      -0.727  -0.004   1.221  0.00  0.00    +0.008 A 
ATOM     14  C   UNL     1      -0.247  -0.227  -1.137  0.00  0.00    +0.008 A 
ATOM     16  C   UNL     1       1.551   0.146   0.433  0.00  0.00    +0.033 A 
ATOM     17  C   UNL     1       0.632   0.171   1.481  0.00  0.00    +0.023 A 
ATOM     18  C   UNL     1       1.112  -0.053  -0.876  0.00  0.00    +0.023 A 
ENDROOT
BRANCH   9   8
ATOM      1  O   UNL     1      -3.060  -1.592   0.292  0.00  0.00    -0.361 OA
ATOM      3  O   UNL     1      -6.614  -1.153   0.083  0.00  0.00    -0.273 OA
ATOM      5  N   UNL     1      -4.935   0.410   0.015  0.00  0.00    -0.306 N 
ATOM      7  CA  UNL     1      -3.522   0.757   0.144  0.00  0.00    +0.131 C 
ATOM      8  C   UNL     1      -2.641  -0.392  -0.371  0.00  0.00    +0.171 C 
ATOM     11  C   UNL     1      -4.365  -1.968  -0.095  0.00  0.00    +0.256 C 
ATOM     12  C   UNL     1      -5.415  -0.881   0.034  0.00  0.00    +0.239 C 
ATOM     23  H   UNL     1      -5.615   1.161   0.097  0.00  0.00    +0.149 HD
BRANCH   7  10
ATOM     10  C   UNL     1      -3.247   2.074  -0.577  0.00  0.00    +0.181 C 
BRANCH  10   2
ATOM      2  O   UNL     1      -4.108   3.065  -0.046  0.00  0.00    -0.393 OA
ATOM     25  H   UNL     1      -3.919   3.893  -0.520  0.00  0.00    +0.209 HD
ENDBRANCH  10   2
ENDBRANCH   7  10
ENDBRANCH   9   8
BRANCH  16   6
ATOM      4  O   UNL     1       3.903   0.153  -1.433  0.00  0.00    -0.275 OA
ATOM      6  N   UNL     1       2.930   0.323   0.697  0.00  0.00    -0.285 N 
ATOM     20  C   UNL     1       3.977   0.327  -0.221  0.00  0.00    +0.217 C 
ATOM     24  H   UNL     1       3.160   0.473   1.677  0.00  0.00    +0.155 HD
BRANCH  20  19
ATOM     19  C   UNL     1       5.310   0.550   0.487  0.00  0.00    +0.099 C 
BRANCH  19  15
ATOM     15  C   UNL     1       6.508  -0.097  -0.225  0.00  0.00    -0.008 C 
ATOM     21  C   UNL     1       6.306  -1.610  -0.325  0.00  0.00    +0.008 C 
ATOM     22  C   UNL     1       7.819   0.202   0.508  0.00  0.00    +0.008 C 
ENDBRANCH  19  15
ENDBRANCH  20  19
ENDBRANCH  16   6
TORSDOF 6
