REMARK  Name = 71693190
REMARK  13 active torsions:
REMARK  status: ('A' for Active; 'I' for Inactive)
REMARK    1  A    between atoms: O_1  and  C_32
REMARK    2  A    between atoms: O_1  and  C_33
REMARK    3  A    between atoms: N_3  and  C_14
REMARK    4  A    between atoms: N_3  and  C_20
REMARK    5  A    between atoms: C_7  and  C_11
REMARK    6  A    between atoms: C_8  and  C_14
REMARK    7  A    between atoms: C_10  and  C_15
REMARK    8  A    between atoms: C_11  and  C_16
REMARK    9  A    between atoms: C_11  and  C_17
REMARK   10  A    between atoms: C_12  and  C_18
REMARK   11  A    between atoms: C_15  and  C_19
REMARK   12  A    between atoms: C_20  and  C_23
REMARK   13  A    between atoms: C_28  and  C_32
REMARK                            x       y       z     vdW  Elec       q    Type
REMARK                         _______ _______ _______ _____ _____    ______ ____
ROOT
ATOM      7  C   UNL     1       3.607  -0.627  -0.414  0.00  0.00    +0.000 C 
ATOM      8  C   UNL     1       3.362  -0.477   1.105  0.00  0.00    +0.029 C 
ATOM      9  C   UNL     1       2.727   0.354  -1.200  0.00  0.00    +0.012 C 
ATOM     10  C   UNL     1       2.936   1.828  -0.789  0.00  0.00    +0.022 C 
ATOM     12  C   UNL     1       3.117   2.008   0.710  0.00  0.00    -0.073 C 
ATOM     13  C   UNL     1       3.294   0.964   1.541  0.00  0.00    -0.023 C 
ATOM     18  C   UNL     1       3.151   3.414   1.242  0.00  0.00    +0.039 C 
ENDROOT
BRANCH   7  11
ATOM     11  C   UNL     1       5.090  -0.444  -0.763  0.00  0.00    -0.013 C 
ATOM     16  C   UNL     1       5.256  -0.160  -2.252  0.00  0.00    +0.007 C 
ATOM     17  C   UNL     1       5.889  -1.678  -0.355  0.00  0.00    +0.007 C 
ENDBRANCH   7  11
BRANCH   8  14
ATOM     14  C   UNL     1       2.084  -1.198   1.547  0.00  0.00    +0.089 C 
BRANCH  14   3
ATOM      3  N   UNL     1       2.127  -2.599   1.163  0.00  0.00    -0.311 NA
ATOM     34  H   UNL     1       2.928  -3.040   1.614  0.00  0.00    +0.122 HD
BRANCH   3  20
ATOM     20  C   UNL     1       0.910  -3.291   1.570  0.00  0.00    +0.116 C 
BRANCH  20  23
ATOM      6  N   UNL     1      -2.346  -2.533  -1.135  0.00  0.00    -0.263 NA
ATOM     23  C   UNL     1      -0.230  -3.026   0.623  0.00  0.00    -0.031 A 
ATOM     26  C   UNL     1      -1.407  -2.452   1.091  0.00  0.00    +0.024 A 
ATOM     27  C   UNL     1      -0.109  -3.353  -0.723  0.00  0.00    +0.024 A 
ATOM     30  C   UNL     1      -2.426  -2.228   0.179  0.00  0.00    +0.111 A 
ATOM     31  C   UNL     1      -1.187  -3.089  -1.553  0.00  0.00    +0.111 A 
ENDBRANCH  20  23
ENDBRANCH   3  20
ENDBRANCH  14   3
ENDBRANCH   8  14
BRANCH  10  15
ATOM     15  C   UNL     1       1.781   2.663  -1.356  0.00  0.00    +0.082 C 
BRANCH  15  19
ATOM      4  N   UNL     1      -0.580   1.843  -1.469  0.00  0.00    -0.342 N 
ATOM      5  N   UNL     1       0.178   2.342   0.560  0.00  0.00    -0.232 NA
ATOM     19  C   UNL     1       0.472   2.291  -0.720  0.00  0.00    +0.109 A 
ATOM     21  C   UNL     1      -1.623   1.588  -0.616  0.00  0.00    +0.067 A 
ATOM     22  C   UNL     1      -1.125   1.907   0.645  0.00  0.00    +0.089 A 
ATOM     24  C   UNL     1      -2.919   1.120  -0.831  0.00  0.00    +0.042 A 
ATOM     25  C   UNL     1      -1.956   1.757   1.768  0.00  0.00    +0.030 A 
ATOM     28  C   UNL     1      -3.733   0.976   0.298  0.00  0.00    +0.061 A 
ATOM     29  C   UNL     1      -3.262   1.288   1.575  0.00  0.00    +0.017 A 
ATOM     35  H   UNL     1      -0.591   1.719  -2.473  0.00  0.00    +0.167 HD
BRANCH  28  32
ATOM      2  O   UNL     1      -5.895   0.329   1.066  0.00  0.00    -0.245 OA
ATOM     32  C   UNL     1      -5.095   0.492   0.136  0.00  0.00    +0.339 C 
BRANCH  32   1
ATOM      1  O   UNL     1      -5.385   0.237  -1.177  0.00  0.00    -0.464 OA
ATOM     33  C   UNL     1      -6.702  -0.246  -1.466  0.00  0.00    +0.280 C 
ENDBRANCH  32   1
ENDBRANCH  28  32
ENDBRANCH  15  19
ENDBRANCH  10  15
TORSDOF 9
