REMARK  Name = 44716327
REMARK  9 active torsions:
REMARK  status: ('A' for Active; 'I' for Inactive)
REMARK    1  A    between atoms: O_1  and  C_27
REMARK    2  A    between atoms: O_1  and  C_31
REMARK    3  A    between atoms: N_3  and  C_19
REMARK    4  A    between atoms: N_4  and  C_14
REMARK    5  A    between atoms: N_4  and  C_18
REMARK    6  A    between atoms: C_8  and  C_15
REMARK    7  A    between atoms: C_9  and  C_14
REMARK    8  A    between atoms: C_17  and  C_20
REMARK    9  A    between atoms: C_18  and  C_21
REMARK                            x       y       z     vdW  Elec       q    Type
REMARK                         _______ _______ _______ _____ _____    ______ ____
ROOT
ATOM      2  N   UNL     1      -4.152  -0.211   1.232  0.00  0.00    -0.298 NA
ATOM      7  C   UNL     1      -3.437  -1.537  -0.893  0.00  0.00    +0.002 C 
ATOM      8  C   UNL     1      -2.595  -1.982   0.335  0.00  0.00    +0.055 C 
ATOM      9  C   UNL     1      -3.901   0.728   0.108  0.00  0.00    +0.071 C 
ATOM     10  C   UNL     1      -3.280  -0.015  -1.094  0.00  0.00    +0.024 C 
ATOM     11  C   UNL     1      -4.916  -1.797  -0.535  0.00  0.00    +0.019 C 
ATOM     12  C   UNL     1      -2.934  -1.015   1.505  0.00  0.00    +0.094 C 
ATOM     13  C   UNL     1      -5.234  -1.137   0.819  0.00  0.00    +0.085 C 
ENDROOT
BRANCH   8  15
ATOM      3  N   UNL     1      -0.528  -3.340  -0.235  0.00  0.00    -0.270 N 
ATOM      5  N   UNL     1       0.811  -3.290  -0.339  0.00  0.00    -0.171 NA
ATOM     15  C   UNL     1      -1.094  -2.160   0.150  0.00  0.00    +0.044 A 
ATOM     16  C   UNL     1      -0.054  -1.278   0.308  0.00  0.00    +0.053 A 
ATOM     17  C   UNL     1       1.095  -2.028  -0.006  0.00  0.00    +0.093 A 
ATOM     19  C   UNL     1      -1.213  -4.579  -0.523  0.00  0.00    +0.172 C 
BRANCH  17  20
ATOM     20  C   UNL     1       2.458  -1.563   0.006  0.00  0.00    +0.002 A 
ATOM     22  C   UNL     1       2.843  -0.555   0.890  0.00  0.00    +0.013 A 
ATOM     23  C   UNL     1       3.392  -2.121  -0.867  0.00  0.00    +0.013 A 
ATOM     25  C   UNL     1       4.163  -0.104   0.901  0.00  0.00    +0.046 A 
ATOM     26  C   UNL     1       4.712  -1.670  -0.856  0.00  0.00    +0.046 A 
ATOM     27  C   UNL     1       5.097  -0.661   0.028  0.00  0.00    +0.120 A 
BRANCH  27   1
ATOM      1  O   UNL     1       6.386  -0.222   0.038  0.00  0.00    -0.495 OA
ATOM     31  C   UNL     1       6.712   0.811   0.967  0.00  0.00    +0.277 C 
ENDBRANCH  27   1
ENDBRANCH  17  20
ENDBRANCH   8  15
BRANCH   9  14
ATOM     14  C   UNL     1      -3.058   1.933   0.532  0.00  0.00    +0.100 C 
BRANCH  14   4
ATOM      4  N   UNL     1      -2.957   2.898  -0.550  0.00  0.00    -0.309 NA
ATOM     32  H   UNL     1      -3.894   3.221  -0.792  0.00  0.00    +0.122 HD
BRANCH   4  18
ATOM     18  C   UNL     1      -2.146   4.044  -0.156  0.00  0.00    +0.136 C 
BRANCH  18  21
ATOM      6  N   UNL     1       0.035   3.875   0.907  0.00  0.00    -0.259 NA
ATOM     21  C   UNL     1      -0.673   3.742  -0.236  0.00  0.00    +0.055 A 
ATOM     24  C   UNL     1      -0.126   3.351  -1.447  0.00  0.00    +0.024 A 
ATOM     28  C   UNL     1       1.237   3.078  -1.487  0.00  0.00    +0.003 A 
ATOM     29  C   UNL     1       1.357   3.602   0.830  0.00  0.00    +0.111 A 
ATOM     30  C   UNL     1       2.000   3.204  -0.331  0.00  0.00    +0.020 A 
ENDBRANCH  18  21
ENDBRANCH   4  18
ENDBRANCH  14   4
ENDBRANCH   9  14
TORSDOF 7
