REMARK  Name = 26762309
REMARK  7 active torsions:
REMARK  status: ('A' for Active; 'I' for Inactive)
REMARK    1  A    between atoms: N_6  and  C_11
REMARK    2  A    between atoms: N_7  and  C_21
REMARK    3  A    between atoms: N_8  and  C_20
REMARK    4  A    between atoms: C_10  and  C_16
REMARK    5  A    between atoms: C_16  and  C_17
REMARK    6  A    between atoms: C_17  and  C_19
REMARK    7  A    between atoms: C_20  and  C_22
REMARK                            x       y       z     vdW  Elec       q    Type
REMARK                         _______ _______ _______ _____ _____    ______ ____
ROOT
ATOM      1  O   UNL     1       1.964  -4.968   0.067  0.00  0.00    -0.274 OA
ATOM      4  N   UNL     1       0.432  -1.792  -0.196  0.00  0.00    -0.285 NA
ATOM      5  N   UNL     1      -0.136  -4.306   0.716  0.00  0.00    -0.313 N 
ATOM      9  C   UNL     1       1.115  -2.914  -0.846  0.00  0.00    +0.145 C 
ATOM     10  C   UNL     1      -0.998  -2.079  -0.069  0.00  0.00    +0.075 C 
ATOM     11  C   UNL     1       2.279  -0.849  -1.279  0.00  0.00    +0.090 C 
ATOM     12  C   UNL     1       2.507  -2.354  -1.093  0.00  0.00    +0.052 C 
ATOM     13  C   UNL     1       0.787  -0.629  -1.008  0.00  0.00    +0.107 C 
ATOM     14  C   UNL     1      -1.129  -3.258   0.905  0.00  0.00    +0.123 C 
ATOM     15  C   UNL     1       1.057  -4.137   0.040  0.00  0.00    +0.230 C 
ATOM     33  H   UNL     1      -0.246  -5.154   1.265  0.00  0.00    +0.149 HD
ENDROOT
BRANCH  11   6
ATOM      2  O   UNL     1       4.902   0.167  -1.815  0.00  0.00    -0.253 OA
ATOM      6  N   UNL     1       3.106  -0.082  -0.381  0.00  0.00    -0.295 N 
ATOM      7  N   UNL     1       4.944   1.091   0.343  0.00  0.00    -0.269 N 
ATOM     18  C   UNL     1       4.383   0.380  -0.722  0.00  0.00    +0.304 C 
ATOM     34  H   UNL     1       2.777   0.069   0.568  0.00  0.00    +0.151 HD
ATOM     35  H   UNL     1       4.378   1.176   1.183  0.00  0.00    +0.156 HD
BRANCH   7  21
ATOM     21  C   UNL     1       6.213   1.714   0.398  0.00  0.00    +0.035 A 
ATOM     23  C   UNL     1       6.610   2.385   1.554  0.00  0.00    +0.023 A 
ATOM     24  C   UNL     1       7.066   1.657  -0.704  0.00  0.00    +0.023 A 
ATOM     27  C   UNL     1       7.861   2.999   1.609  0.00  0.00    +0.002 A 
ATOM     28  C   UNL     1       8.317   2.272  -0.650  0.00  0.00    +0.002 A 
ATOM     29  C   UNL     1       8.715   2.943   0.507  0.00  0.00    +0.000 A 
ENDBRANCH   7  21
ENDBRANCH  11   6
BRANCH  10  16
ATOM     16  C   UNL     1      -1.804  -0.889   0.457  0.00  0.00    +0.029 C 
BRANCH  16  17
ATOM     17  C   UNL     1      -3.284  -1.229   0.556  0.00  0.00    +0.097 C 
BRANCH  17  19
ATOM      3  O   UNL     1      -3.621   1.034   1.349  0.00  0.00    -0.276 OA
ATOM      8  N   UNL     1      -5.454  -0.376   1.144  0.00  0.00    -0.311 N 
ATOM     19  C   UNL     1      -4.107  -0.056   1.058  0.00  0.00    +0.213 C 
ATOM     36  H   UNL     1      -5.769  -1.301   0.864  0.00  0.00    +0.149 HD
BRANCH   8  20
ATOM     20  C   UNL     1      -6.444   0.572   1.598  0.00  0.00    +0.139 C 
BRANCH  20  22
ATOM     22  C   UNL     1      -7.016   1.373   0.464  0.00  0.00    -0.030 A 
ATOM     25  C   UNL     1      -6.417   2.575   0.088  0.00  0.00    +0.005 A 
ATOM     26  C   UNL     1      -8.146   0.915  -0.214  0.00  0.00    +0.005 A 
ATOM     30  C   UNL     1      -6.948   3.320  -0.965  0.00  0.00    +0.000 A 
ATOM     31  C   UNL     1      -8.677   1.659  -1.267  0.00  0.00    +0.000 A 
ATOM     32  C   UNL     1      -8.078   2.862  -1.643  0.00  0.00    +0.000 A 
ENDBRANCH  20  22
ENDBRANCH   8  20
ENDBRANCH  17  19
ENDBRANCH  16  17
ENDBRANCH  10  16
TORSDOF 7
