REMARK  Name = 11887518
REMARK  6 active torsions:
REMARK  status: ('A' for Active; 'I' for Inactive)
REMARK    1  A    between atoms: N_6  and  C_19
REMARK    2  A    between atoms: N_8  and  C_25
REMARK    3  A    between atoms: N_8  and  C_28
REMARK    4  A    between atoms: N_8  and  C_29
REMARK    5  A    between atoms: C_18  and  C_21
REMARK    6  A    between atoms: C_24  and  C_25
REMARK                            x       y       z     vdW  Elec       q    Type
REMARK                         _______ _______ _______ _____ _____    ______ ____
ROOT
ATOM      1  O   UNL     1       0.990   2.349   1.748  0.00  0.00    -0.266 OA
ATOM      2  O   UNL     1      -3.140  -0.711   2.332  0.00  0.00    -0.270 OA
ATOM      4  N   UNL     1      -3.315   0.327   0.242  0.00  0.00    -0.297 N 
ATOM      5  N   UNL     1      -0.608   1.971   0.085  0.00  0.00    -0.310 N 
ATOM      9  C   UNL     1      -3.025   2.798   0.274  0.00  0.00    +0.027 C 
ATOM     10  C   UNL     1      -2.322   1.510  -1.702  0.00  0.00    +0.054 C 
ATOM     11  C   UNL     1      -2.992   2.807  -1.250  0.00  0.00    +0.018 C 
ATOM     12  C   UNL     1      -3.823   1.586   0.787  0.00  0.00    +0.113 C 
ATOM     13  C   UNL     1      -1.584   2.806   0.800  0.00  0.00    +0.130 C 
ATOM     14  C   UNL     1      -3.154   0.304  -1.220  0.00  0.00    +0.117 C 
ATOM     15  C   UNL     1      -0.910   1.406  -1.158  0.00  0.00    +0.027 A 
ATOM     16  C   UNL     1       0.035   0.745  -1.848  0.00  0.00    +0.024 A 
ATOM     17  C   UNL     1       0.672   1.856   0.665  0.00  0.00    +0.273 A 
ATOM     18  C   UNL     1      -3.007  -0.724   1.110  0.00  0.00    +0.248 C 
ATOM     19  C   UNL     1       1.688   1.087  -0.123  0.00  0.00    +0.099 A 
ATOM     20  C   UNL     1       1.358   0.583  -1.316  0.00  0.00    +0.030 A 
ENDROOT
BRANCH  18  21
ATOM      7  N   UNL     1      -2.850  -4.137  -0.418  0.00  0.00    -0.263 NA
ATOM     21  C   UNL     1      -2.458  -1.954   0.531  0.00  0.00    +0.055 A 
ATOM     22  C   UNL     1      -1.089  -2.119   0.381  0.00  0.00    +0.016 A 
ATOM     23  C   UNL     1      -3.291  -2.978   0.122  0.00  0.00    +0.123 A 
ATOM     26  C   UNL     1      -0.597  -3.297  -0.170  0.00  0.00    +0.020 A 
ATOM     27  C   UNL     1      -1.511  -4.266  -0.550  0.00  0.00    +0.111 A 
ENDBRANCH  18  21
BRANCH  19   6
ATOM      3  O   UNL     1       3.461  -1.117  -0.547  0.00  0.00    -0.274 OA
ATOM      6  N   UNL     1       2.933   0.937   0.413  0.00  0.00    -0.280 N 
ATOM     24  C   UNL     1       3.754  -0.156   0.161  0.00  0.00    +0.231 C 
ATOM     30  H   UNL     1       3.168   1.541   1.197  0.00  0.00    +0.155 HD
BRANCH  24  25
ATOM     25  C   UNL     1       5.074  -0.037   0.897  0.00  0.00    +0.180 C 
BRANCH  25   8
ATOM      8  N   UNL     1       6.104  -0.736   0.143  0.00  0.00    -0.300 NA
ATOM     28  C   UNL     1       7.397  -0.643   0.825  0.00  0.00    +0.105 C 
ATOM     29  C   UNL     1       6.209  -0.197  -1.214  0.00  0.00    +0.105 C 
ENDBRANCH  25   8
ENDBRANCH  24  25
ENDBRANCH  19   6
TORSDOF 4
