REMARK  Name = 75367087
REMARK  6 active torsions:
REMARK  status: ('A' for Active; 'I' for Inactive)
REMARK    1  A    between atoms: O_3  and  C_9
REMARK    2  A    between atoms: N_5  and  C_7
REMARK    3  A    between atoms: N_5  and  C_8
REMARK    4  A    between atoms: N_6  and  C_16
REMARK    5  A    between atoms: C_12  and  C_16
REMARK    6  A    between atoms: C_17  and  C_18
REMARK                            x       y       z     vdW  Elec       q    Type
REMARK                         _______ _______ _______ _____ _____    ______ ____
ROOT
ATOM      2  O   UNL     1      -0.710   0.627  -0.787  0.00  0.00    -0.371 OA
ATOM      8  C   UNL     1      -2.844  -0.179  -0.125  0.00  0.00    +0.111 C 
ATOM      9  C   UNL     1      -1.930  -1.361  -0.391  0.00  0.00    +0.164 C 
ATOM     12  C   UNL     1      -0.561  -0.705  -0.268  0.00  0.00    +0.165 C 
ATOM     15  C   UNL     1      -2.113   0.937  -0.853  0.00  0.00    +0.181 C 
ENDROOT
BRANCH   9   3
ATOM      3  O   UNL     1      -2.100  -2.405   0.547  0.00  0.00    -0.388 OA
ATOM     25  H   UNL     1      -1.963  -2.042   1.438  0.00  0.00    +0.210 HD
ENDBRANCH   9   3
BRANCH   8   5
ATOM      5  N   UNL     1      -4.203  -0.374  -0.605  0.00  0.00    -0.306 NA
ATOM     24  H   UNL     1      -4.525  -1.313  -0.378  0.00  0.00    +0.123 HD
BRANCH   5   7
ATOM      7  C   UNL     1      -5.103   0.615  -0.040  0.00  0.00    +0.054 C 
ATOM     10  C   UNL     1      -5.642   0.209   1.327  0.00  0.00    +0.019 C 
ATOM     11  C   UNL     1      -6.379   0.785  -0.856  0.00  0.00    +0.019 C 
ATOM     13  C   UNL     1      -6.858   1.111   1.517  0.00  0.00    +0.002 C 
ATOM     14  C   UNL     1      -7.333   1.483   0.110  0.00  0.00    +0.002 C 
ENDBRANCH   5   7
ENDBRANCH   8   5
BRANCH  12  16
ATOM     16  C   UNL     1       0.526  -1.436  -1.036  0.00  0.00    +0.138 C 
BRANCH  16   6
ATOM      4  O   UNL     1       2.496  -1.934   0.993  0.00  0.00    -0.270 OA
ATOM      6  N   UNL     1       1.795  -0.781  -0.895  0.00  0.00    -0.309 N 
ATOM     17  C   UNL     1       2.692  -1.088   0.124  0.00  0.00    +0.244 C 
ATOM     26  H   UNL     1       1.989  -0.022  -1.538  0.00  0.00    +0.149 HD
BRANCH  17  18
ATOM      1  F   UNL     1       7.456   1.881   0.214  0.00  0.00    -0.205 F 
ATOM     18  C   UNL     1       3.952  -0.302   0.148  0.00  0.00    +0.037 A 
ATOM     19  C   UNL     1       4.628  -0.105   1.352  0.00  0.00    +0.016 A 
ATOM     20  C   UNL     1       4.459   0.239  -1.033  0.00  0.00    +0.016 A 
ATOM     21  C   UNL     1       5.812   0.632   1.375  0.00  0.00    +0.039 A 
ATOM     22  C   UNL     1       5.643   0.977  -1.011  0.00  0.00    +0.039 A 
ATOM     23  C   UNL     1       6.319   1.173   0.193  0.00  0.00    +0.123 A 
ENDBRANCH  17  18
ENDBRANCH  16   6
ENDBRANCH  12  16
TORSDOF 6
