REMARK  Name = 26743990
REMARK  7 active torsions:
REMARK  status: ('A' for Active; 'I' for Inactive)
REMARK    1  A    between atoms: O_1  and  C_11
REMARK    2  A    between atoms: N_4  and  C_13
REMARK    3  A    between atoms: N_7  and  C_21
REMARK    4  A    between atoms: C_9  and  C_14
REMARK    5  A    between atoms: C_13  and  C_15
REMARK    6  A    between atoms: C_18  and  C_22
REMARK    7  A    between atoms: C_25  and  C_28
REMARK                            x       y       z     vdW  Elec       q    Type
REMARK                         _______ _______ _______ _____ _____    ______ ____
ROOT
ATOM      4  N   UNL     1       3.084   0.879   0.452  0.00  0.00    -0.285 NA
ATOM      9  C   UNL     1       3.143  -0.185  -0.571  0.00  0.00    +0.149 C 
ATOM     10  C   UNL     1       4.273  -1.120  -0.100  0.00  0.00    +0.061 C 
ATOM     11  C   UNL     1       4.817  -0.475   1.168  0.00  0.00    +0.130 C 
ATOM     12  C   UNL     1       4.426   0.984   1.019  0.00  0.00    +0.116 C 
ENDROOT
BRANCH   9  14
ATOM      2  O   UNL     1       1.583  -1.451  -1.962  0.00  0.00    -0.336 OA
ATOM      5  N   UNL     1       0.855  -1.081   0.123  0.00  0.00    -0.190 NA
ATOM      6  N   UNL     1       0.320  -2.050  -1.879  0.00  0.00    -0.056 NA
ATOM     14  C   UNL     1       1.822  -0.904  -0.742  0.00  0.00    +0.245 A 
ATOM     18  C   UNL     1      -0.044  -1.789  -0.620  0.00  0.00    +0.204 A 
BRANCH  18  22
ATOM      8  N   UNL     1      -3.398  -3.378  -0.389  0.00  0.00    -0.263 NA
ATOM     22  C   UNL     1      -1.298  -2.222  -0.074  0.00  0.00    +0.041 A 
ATOM     23  C   UNL     1      -1.645  -1.934   1.241  0.00  0.00    +0.014 A 
ATOM     24  C   UNL     1      -2.201  -2.941  -0.841  0.00  0.00    +0.122 A 
ATOM     26  C   UNL     1      -2.868  -2.367   1.742  0.00  0.00    +0.020 A 
ATOM     27  C   UNL     1      -3.701  -3.079   0.895  0.00  0.00    +0.111 A 
ENDBRANCH  18  22
ENDBRANCH   9  14
BRANCH  11   1
ATOM      1  O   UNL     1       6.220  -0.637   1.252  0.00  0.00    -0.390 OA
ATOM     29  H   UNL     1       6.403  -1.592   1.268  0.00  0.00    +0.210 HD
ENDBRANCH  11   1
BRANCH   4  13
ATOM     13  C   UNL     1       2.609   2.153  -0.073  0.00  0.00    +0.120 C 
BRANCH  13  15
ATOM     15  C   UNL     1       1.110   2.181  -0.206  0.00  0.00    -0.033 A 
ATOM     16  C   UNL     1       0.525   2.415  -1.451  0.00  0.00    +0.007 A 
ATOM     17  C   UNL     1       0.305   1.972   0.914  0.00  0.00    +0.007 A 
ATOM     19  C   UNL     1      -0.864   2.441  -1.575  0.00  0.00    +0.023 A 
ATOM     20  C   UNL     1      -1.083   1.998   0.790  0.00  0.00    +0.023 A 
ATOM     21  C   UNL     1      -1.668   2.232  -0.454  0.00  0.00    +0.033 A 
BRANCH  21   7
ATOM      3  O   UNL     1      -3.823   1.852   1.615  0.00  0.00    -0.276 OA
ATOM      7  N   UNL     1      -3.058   2.258  -0.578  0.00  0.00    -0.286 N 
ATOM     25  C   UNL     1      -4.019   2.072   0.424  0.00  0.00    +0.214 C 
ATOM     28  C   UNL     1      -5.422   2.176  -0.121  0.00  0.00    +0.109 C 
ATOM     30  H   UNL     1      -3.407   2.434  -1.518  0.00  0.00    +0.155 HD
ENDBRANCH  21   7
ENDBRANCH  13  15
ENDBRANCH   4  13
TORSDOF 6
