REMARK  Name = 7128130
REMARK  13 active torsions:
REMARK  status: ('A' for Active; 'I' for Inactive)
REMARK    1  A    between atoms: O_4  and  C_23
REMARK    2  A    between atoms: O_4  and  C_32
REMARK    3  A    between atoms: O_6  and  C_33
REMARK    4  A    between atoms: O_6  and  C_36
REMARK    5  A    between atoms: N_8  and  C_13
REMARK    6  A    between atoms: N_9  and  C_19
REMARK    7  A    between atoms: N_10  and  C_27
REMARK    8  A    between atoms: C_14  and  C_17
REMARK    9  A    between atoms: C_18  and  C_22
REMARK   10  A    between atoms: C_19  and  C_20
REMARK   11  A    between atoms: C_19  and  C_23
REMARK   12  A    between atoms: C_20  and  C_24
REMARK   13  A    between atoms: C_20  and  C_25
REMARK                            x       y       z     vdW  Elec       q    Type
REMARK                         _______ _______ _______ _____ _____    ______ ____
ROOT
ATOM      2  O   UNL     1      -2.627  -1.269   1.607  0.00  0.00    -0.268 OA
ATOM      7  N   UNL     1      -1.734  -1.430  -0.538  0.00  0.00    -0.283 N 
ATOM     13  C   UNL     1      -0.094  -0.194  -1.724  0.00  0.00    +0.105 C 
ATOM     14  C   UNL     1      -1.067  -0.132  -0.546  0.00  0.00    +0.182 C 
ATOM     15  C   UNL     1      -0.757  -1.185  -2.682  0.00  0.00    +0.043 C 
ATOM     16  C   UNL     1      -1.441  -2.184  -1.757  0.00  0.00    +0.111 C 
ATOM     18  C   UNL     1      -2.386  -1.913   0.589  0.00  0.00    +0.267 C 
ENDROOT
BRANCH  13   8
ATOM      3  O   UNL     1       2.150   1.411  -0.953  0.00  0.00    -0.252 OA
ATOM      8  N   UNL     1       1.203  -0.669  -1.305  0.00  0.00    -0.294 N 
ATOM     10  N   UNL     1       3.380  -0.555  -0.584  0.00  0.00    -0.269 N 
ATOM     21  C   UNL     1       2.250   0.186  -0.943  0.00  0.00    +0.304 C 
ATOM     37  H   UNL     1       1.344  -1.669  -1.205  0.00  0.00    +0.151 HD
ATOM     39  H   UNL     1       3.296  -1.567  -0.633  0.00  0.00    +0.156 HD
BRANCH  10  27
ATOM     27  C   UNL     1       4.638  -0.068  -0.160  0.00  0.00    +0.038 A 
ATOM     29  C   UNL     1       5.660  -0.962   0.160  0.00  0.00    +0.069 A 
ATOM     31  C   UNL     1       4.857   1.306  -0.060  0.00  0.00    +0.023 A 
ATOM     33  C   UNL     1       6.901  -0.482   0.579  0.00  0.00    +0.122 A 
ATOM     34  C   UNL     1       6.098   1.786   0.358  0.00  0.00    +0.005 A 
ATOM     35  C   UNL     1       7.120   0.892   0.678  0.00  0.00    +0.046 A 
BRANCH  33   6
ATOM      6  O   UNL     1       7.899  -1.354   0.890  0.00  0.00    -0.495 OA
ATOM     36  C   UNL     1       9.142  -0.795   1.311  0.00  0.00    +0.277 C 
ENDBRANCH  33   6
ENDBRANCH  10  27
ENDBRANCH  13   8
BRANCH  18  22
ATOM     11  N   UNL     1      -3.688  -3.662  -0.409  0.00  0.00    -0.247 NA
ATOM     12  N   UNL     1      -2.750  -5.517   1.474  0.00  0.00    -0.259 NA
ATOM     22  C   UNL     1      -2.820  -3.316   0.562  0.00  0.00    +0.144 A 
ATOM     26  C   UNL     1      -2.359  -4.227   1.487  0.00  0.00    +0.143 A 
ATOM     28  C   UNL     1      -4.078  -4.952  -0.422  0.00  0.00    +0.131 A 
ATOM     30  C   UNL     1      -3.618  -5.863   0.502  0.00  0.00    +0.130 A 
ENDBRANCH  18  22
BRANCH  14  17
ATOM      1  O   UNL     1      -3.145   0.646  -1.427  0.00  0.00    -0.274 OA
ATOM      9  N   UNL     1      -1.840   2.106  -0.168  0.00  0.00    -0.301 N 
ATOM     17  C   UNL     1      -2.140   0.892  -0.766  0.00  0.00    +0.236 C 
ATOM     38  H   UNL     1      -1.002   2.172   0.402  0.00  0.00    +0.150 HD
BRANCH   9  19
ATOM     19  C   UNL     1      -2.698   3.262  -0.251  0.00  0.00    +0.184 C 
BRANCH  19  20
ATOM     20  C   UNL     1      -1.908   4.588  -0.207  0.00  0.00    +0.014 C 
ATOM     24  C   UNL     1      -1.288   4.820   1.174  0.00  0.00    +0.009 C 
ATOM     25  C   UNL     1      -0.826   4.684  -1.288  0.00  0.00    +0.009 C 
ENDBRANCH  19  20
BRANCH  19  23
ATOM      5  O   UNL     1      -3.833   2.372   1.691  0.00  0.00    -0.249 OA
ATOM     23  C   UNL     1      -3.787   3.231   0.816  0.00  0.00    +0.328 C 
BRANCH  23   4
ATOM      4  O   UNL     1      -4.678   4.252   0.674  0.00  0.00    -0.467 OA
ATOM     32  C   UNL     1      -5.736   4.293   1.637  0.00  0.00    +0.280 C 
ENDBRANCH  23   4
ENDBRANCH  19  23
ENDBRANCH   9  19
ENDBRANCH  14  17
TORSDOF 9
