REMARK  Name = 40779189
REMARK  7 active torsions:
REMARK  status: ('A' for Active; 'I' for Inactive)
REMARK    1  A    between atoms: S_1  and  N_6
REMARK    2  A    between atoms: S_1  and  C_21
REMARK    3  A    between atoms: N_5  and  C_19
REMARK    4  A    between atoms: N_6  and  C_15
REMARK    5  A    between atoms: C_9  and  C_16
REMARK    6  A    between atoms: C_10  and  C_15
REMARK    7  A    between atoms: C_18  and  C_20
REMARK                            x       y       z     vdW  Elec       q    Type
REMARK                         _______ _______ _______ _____ _____    ______ ____
ROOT
ATOM      4  N   UNL     1      -3.282  -1.567   0.612  0.00  0.00    -0.297 NA
ATOM      8  C   UNL     1      -1.714  -1.857  -1.448  0.00  0.00    +0.002 C 
ATOM      9  C   UNL     1      -0.974  -2.256  -0.141  0.00  0.00    +0.055 C 
ATOM     10  C   UNL     1      -3.298  -0.333  -0.217  0.00  0.00    +0.072 C 
ATOM     11  C   UNL     1      -2.223  -0.405  -1.323  0.00  0.00    +0.024 C 
ATOM     12  C   UNL     1      -2.958  -2.766  -1.551  0.00  0.00    +0.019 C 
ATOM     13  C   UNL     1      -1.896  -1.867   1.050  0.00  0.00    +0.094 C 
ATOM     14  C   UNL     1      -3.752  -2.689  -0.236  0.00  0.00    +0.085 C 
ENDROOT
BRANCH   9  16
ATOM      5  N   UNL     1       1.389  -2.469   0.759  0.00  0.00    -0.270 N 
ATOM      7  N   UNL     1       2.590  -1.870   0.813  0.00  0.00    -0.171 NA
ATOM     16  C   UNL     1       0.455  -1.770   0.052  0.00  0.00    +0.044 A 
ATOM     17  C   UNL     1       1.090  -0.634  -0.387  0.00  0.00    +0.053 A 
ATOM     18  C   UNL     1       2.402  -0.749   0.111  0.00  0.00    +0.093 A 
ATOM     19  C   UNL     1       1.202  -3.737   1.425  0.00  0.00    +0.172 C 
BRANCH  18  20
ATOM     20  C   UNL     1       3.477   0.191  -0.070  0.00  0.00    +0.002 A 
ATOM     22  C   UNL     1       3.197   1.550  -0.212  0.00  0.00    +0.010 A 
ATOM     23  C   UNL     1       4.798  -0.257  -0.102  0.00  0.00    +0.010 A 
ATOM     24  C   UNL     1       4.239   2.462  -0.388  0.00  0.00    +0.001 A 
ATOM     25  C   UNL     1       5.839   0.655  -0.277  0.00  0.00    +0.001 A 
ATOM     26  C   UNL     1       5.559   2.014  -0.420  0.00  0.00    +0.000 A 
ENDBRANCH  18  20
ENDBRANCH   9  16
BRANCH  10  15
ATOM     15  C   UNL     1      -3.163   0.937   0.626  0.00  0.00    +0.124 C 
BRANCH  15   6
ATOM      6  N   UNL     1      -3.313   2.115  -0.245  0.00  0.00    -0.193 NA
ATOM     27  H   UNL     1      -4.258   2.218  -0.638  0.00  0.00    +0.148 HD
BRANCH   6   1
ATOM      1  S   UNL     1      -2.502   3.562   0.161  0.00  0.00    +0.027 S 
ATOM      2  O   UNL     1      -3.017   4.655  -0.641  0.00  0.00    -0.158 OA
ATOM      3  O   UNL     1      -1.078   3.292   0.220  0.00  0.00    -0.158 OA
ATOM     21  C   UNL     1      -3.067   3.794   1.831  0.00  0.00    +0.214 C 
ENDBRANCH   6   1
ENDBRANCH  15   6
ENDBRANCH  10  15
TORSDOF 5
