REMARK  Name = 38028765
REMARK  11 active torsions:
REMARK  status: ('A' for Active; 'I' for Inactive)
REMARK    1  A    between atoms: O_3  and  C_28
REMARK    2  A    between atoms: O_3  and  C_31
REMARK    3  A    between atoms: N_5  and  C_15
REMARK    4  A    between atoms: N_6  and  C_25
REMARK    5  A    between atoms: C_7  and  C_11
REMARK    6  A    between atoms: C_8  and  C_15
REMARK    7  A    between atoms: C_10  and  C_14
REMARK    8  A    between atoms: C_11  and  C_16
REMARK    9  A    between atoms: C_11  and  C_17
REMARK   10  A    between atoms: C_12  and  C_18
REMARK   11  A    between atoms: C_14  and  C_19
REMARK                            x       y       z     vdW  Elec       q    Type
REMARK                         _______ _______ _______ _____ _____    ______ ____
ROOT
ATOM      7  C   UNL     1      -2.360   1.690  -0.607  0.00  0.00    +0.000 C 
ATOM      8  C   UNL     1      -2.363   2.700   0.568  0.00  0.00    +0.032 C 
ATOM      9  C   UNL     1      -3.481   0.654  -0.426  0.00  0.00    +0.012 C 
ATOM     10  C   UNL     1      -3.342  -0.130   0.892  0.00  0.00    +0.023 C 
ATOM     12  C   UNL     1      -3.072   0.788   2.068  0.00  0.00    -0.073 C 
ATOM     13  C   UNL     1      -2.648   2.053   1.903  0.00  0.00    -0.022 C 
ATOM     18  C   UNL     1      -3.346   0.232   3.438  0.00  0.00    +0.039 C 
ENDROOT
BRANCH   7  11
ATOM     11  C   UNL     1      -2.515   2.391  -1.960  0.00  0.00    -0.013 C 
ATOM     16  C   UNL     1      -1.929   1.531  -3.075  0.00  0.00    +0.007 C 
ATOM     17  C   UNL     1      -3.983   2.703  -2.233  0.00  0.00    +0.007 C 
ENDBRANCH   7  11
BRANCH  10  14
ATOM     14  C   UNL     1      -2.261  -1.211   0.781  0.00  0.00    +0.103 C 
BRANCH  14  19
ATOM      1  O   UNL     1      -3.917  -2.346  -0.501  0.00  0.00    -0.276 OA
ATOM      4  N   UNL     1      -1.883  -3.407  -0.227  0.00  0.00    -0.301 N 
ATOM     19  C   UNL     1      -2.773  -2.365  -0.043  0.00  0.00    +0.216 C 
ATOM     20  C   UNL     1      -2.227  -4.596  -0.993  0.00  0.00    +0.108 C 
ATOM     21  C   UNL     1      -0.518  -3.489   0.282  0.00  0.00    +0.108 C 
ATOM     22  C   UNL     1      -0.898  -5.303  -1.215  0.00  0.00    +0.020 C 
ATOM     23  C   UNL     1      -0.105  -4.933   0.032  0.00  0.00    +0.020 C 
ENDBRANCH  14  19
ENDBRANCH  10  14
BRANCH   8  15
ATOM     15  C   UNL     1      -1.035   3.463   0.643  0.00  0.00    +0.113 C 
BRANCH  15   5
ATOM      2  O   UNL     1       1.296   2.943  -0.938  0.00  0.00    -0.253 OA
ATOM      5  N   UNL     1       0.040   2.580   0.971  0.00  0.00    -0.299 N 
ATOM      6  N   UNL     1       2.043   1.460   0.721  0.00  0.00    -0.269 N 
ATOM     24  C   UNL     1       1.158   2.374   0.142  0.00  0.00    +0.304 C 
ATOM     32  H   UNL     1       0.034   2.126   1.879  0.00  0.00    +0.150 HD
ATOM     33  H   UNL     1       1.776   1.076   1.624  0.00  0.00    +0.156 HD
BRANCH   6  25
ATOM     25  C   UNL     1       3.273   0.994   0.201  0.00  0.00    +0.038 A 
ATOM     26  C   UNL     1       4.031   0.072   0.923  0.00  0.00    +0.069 A 
ATOM     27  C   UNL     1       3.728   1.457  -1.034  0.00  0.00    +0.023 A 
ATOM     28  C   UNL     1       5.245  -0.386   0.410  0.00  0.00    +0.122 A 
ATOM     29  C   UNL     1       4.942   0.999  -1.546  0.00  0.00    +0.005 A 
ATOM     30  C   UNL     1       5.700   0.077  -0.825  0.00  0.00    +0.046 A 
BRANCH  28   3
ATOM      3  O   UNL     1       5.985  -1.285   1.115  0.00  0.00    -0.495 OA
ATOM     31  C   UNL     1       7.216  -1.711   0.533  0.00  0.00    +0.277 C 
ENDBRANCH  28   3
ENDBRANCH   6  25
ENDBRANCH  15   5
ENDBRANCH   8  15
TORSDOF 7
