REMARK  Name = 45360415
REMARK  8 active torsions:
REMARK  status: ('A' for Active; 'I' for Inactive)
REMARK    1  A    between atoms: O_1  and  C_20
REMARK    2  A    between atoms: O_1  and  C_21
REMARK    3  A    between atoms: N_3  and  C_12
REMARK    4  A    between atoms: N_3  and  C_14
REMARK    5  A    between atoms: C_5  and  C_11
REMARK    6  A    between atoms: C_6  and  C_12
REMARK    7  A    between atoms: C_11  and  C_13
REMARK    8  A    between atoms: C_14  and  C_15
REMARK                            x       y       z     vdW  Elec       q    Type
REMARK                         _______ _______ _______ _____ _____    ______ ____
ROOT
ATOM      3  N   UNL     1      -0.263  -0.442   0.475  0.00  0.00    -0.311 NA
ATOM     22  H   UNL     1      -0.544  -1.387   0.216  0.00  0.00    +0.122 HD
ENDROOT
BRANCH   3  12
ATOM     12  C   UNL     1       1.050  -0.480   1.097  0.00  0.00    +0.100 C 
BRANCH  12   6
ATOM      2  N   UNL     1       3.408  -1.281   0.793  0.00  0.00    -0.298 NA
ATOM      4  C   UNL     1       3.720  -0.085  -1.496  0.00  0.00    -0.004 C 
ATOM      5  C   UNL     1       4.433   0.692  -0.365  0.00  0.00    +0.006 C 
ATOM      6  C   UNL     1       2.086  -1.076   0.141  0.00  0.00    +0.071 C 
ATOM      7  C   UNL     1       2.228  -0.236  -1.148  0.00  0.00    +0.024 C 
ATOM      8  C   UNL     1       4.095   0.019   0.984  0.00  0.00    +0.088 C 
ATOM      9  C   UNL     1       4.329  -1.500  -1.519  0.00  0.00    +0.019 C 
ATOM     10  C   UNL     1       4.239  -2.114  -0.110  0.00  0.00    +0.085 C 
BRANCH   5  11
ATOM     11  C   UNL     1       4.097   2.181  -0.352  0.00  0.00    +0.002 C 
ATOM     13  C   UNL     1       4.842   2.907   0.751  0.00  0.00    +0.004 C 
ENDBRANCH   5  11
ENDBRANCH  12   6
ENDBRANCH   3  12
BRANCH   3  14
ATOM     14  C   UNL     1      -1.253   0.134   1.377  0.00  0.00    +0.116 C 
BRANCH  14  15
ATOM     15  C   UNL     1      -2.618   0.197   0.744  0.00  0.00    -0.033 A 
ATOM     16  C   UNL     1      -2.904   1.179  -0.204  0.00  0.00    +0.008 A 
ATOM     17  C   UNL     1      -3.597  -0.728   1.107  0.00  0.00    +0.008 A 
ATOM     18  C   UNL     1      -4.168   1.236  -0.790  0.00  0.00    +0.046 A 
ATOM     19  C   UNL     1      -4.862  -0.671   0.521  0.00  0.00    +0.046 A 
ATOM     20  C   UNL     1      -5.147   0.311  -0.427  0.00  0.00    +0.120 A 
BRANCH  20   1
ATOM      1  O   UNL     1      -6.381   0.367  -0.999  0.00  0.00    -0.495 OA
ATOM     21  C   UNL     1      -7.334  -0.609  -0.582  0.00  0.00    +0.277 C 
ENDBRANCH  20   1
ENDBRANCH  14  15
ENDBRANCH   3  14
TORSDOF 6
