REMARK  Name = 44716361
REMARK  10 active torsions:
REMARK  status: ('A' for Active; 'I' for Inactive)
REMARK    1  A    between atoms: O_1  and  C_15
REMARK    2  A    between atoms: O_1  and  C_20
REMARK    3  A    between atoms: N_4  and  C_18
REMARK    4  A    between atoms: N_6  and  C_26
REMARK    5  A    between atoms: C_8  and  C_14
REMARK    6  A    between atoms: C_9  and  C_15
REMARK    7  A    between atoms: C_17  and  C_19
REMARK    8  A    between atoms: C_33  and  C_36
REMARK    9  A    between atoms: C_36  and  C_37
REMARK   10  A    between atoms: C_36  and  C_38
REMARK                            x       y       z     vdW  Elec       q    Type
REMARK                         _______ _______ _______ _____ _____    ______ ____
ROOT
ATOM      3  N   UNL     1      -1.515   4.311   1.474  0.00  0.00    -0.296 NA
ATOM      7  C   UNL     1      -2.492   3.890  -0.903  0.00  0.00    +0.002 C 
ATOM      8  C   UNL     1      -3.292   3.091   0.163  0.00  0.00    +0.055 C 
ATOM      9  C   UNL     1      -0.423   3.948   0.533  0.00  0.00    +0.095 C 
ATOM     10  C   UNL     1      -1.003   3.495  -0.825  0.00  0.00    +0.026 C 
ATOM     11  C   UNL     1      -2.588   5.379  -0.508  0.00  0.00    +0.019 C 
ATOM     12  C   UNL     1      -2.533   3.231   1.513  0.00  0.00    +0.094 C 
ATOM     13  C   UNL     1      -2.166   5.541   0.963  0.00  0.00    +0.085 C 
ENDROOT
BRANCH   8  14
ATOM      4  N   UNL     1      -4.813   1.292  -0.782  0.00  0.00    -0.270 N 
ATOM      5  N   UNL     1      -4.949  -0.033  -0.960  0.00  0.00    -0.171 NA
ATOM     14  C   UNL     1      -3.659   1.647  -0.147  0.00  0.00    +0.044 A 
ATOM     16  C   UNL     1      -2.994   0.472   0.108  0.00  0.00    +0.053 A 
ATOM     17  C   UNL     1      -3.835  -0.528  -0.415  0.00  0.00    +0.093 A 
ATOM     18  C   UNL     1      -5.851   2.179  -1.254  0.00  0.00    +0.172 C 
BRANCH  17  19
ATOM     19  C   UNL     1      -3.596  -1.948  -0.401  0.00  0.00    +0.003 A 
ATOM     21  C   UNL     1      -2.852  -2.520   0.631  0.00  0.00    +0.018 A 
ATOM     22  C   UNL     1      -4.108  -2.749  -1.417  0.00  0.00    +0.011 A 
ATOM     23  C   UNL     1      -2.610  -3.903   0.659  0.00  0.00    -0.017 A 
ATOM     24  C   UNL     1      -3.877  -4.125  -1.405  0.00  0.00    +0.009 A 
ATOM     25  C   UNL     1      -3.130  -4.717  -0.374  0.00  0.00    -0.018 A 
ATOM     27  C   UNL     1      -1.863  -4.495   1.691  0.00  0.00    +0.008 A 
ATOM     28  C   UNL     1      -2.888  -6.101  -0.346  0.00  0.00    +0.008 A 
ATOM     31  C   UNL     1      -1.632  -5.871   1.702  0.00  0.00    +0.001 A 
ATOM     32  C   UNL     1      -2.144  -6.672   0.686  0.00  0.00    +0.001 A 
ENDBRANCH  17  19
ENDBRANCH   8  14
BRANCH   9  15
ATOM     15  C   UNL     1       0.531   2.907   1.121  0.00  0.00    +0.252 C 
BRANCH  15   1
ATOM      1  O   UNL     1       1.592   2.706   0.206  0.00  0.00    -0.449 OA
BRANCH   1  20
ATOM      2  O   UNL     1       2.525   1.175   1.626  0.00  0.00    -0.226 OA
ATOM      6  N   UNL     1       3.513   1.717  -0.426  0.00  0.00    -0.251 N 
ATOM     20  C   UNL     1       2.558   1.794   0.570  0.00  0.00    +0.405 C 
ATOM     39  H   UNL     1       3.367   2.315  -1.236  0.00  0.00    +0.158 HD
BRANCH   6  26
ATOM     26  C   UNL     1       4.672   0.909  -0.460  0.00  0.00    +0.036 A 
ATOM     29  C   UNL     1       5.529   0.965  -1.558  0.00  0.00    +0.024 A 
ATOM     30  C   UNL     1       4.958   0.056   0.606  0.00  0.00    +0.024 A 
ATOM     33  C   UNL     1       6.959  -0.686  -0.526  0.00  0.00    -0.045 A 
ATOM     34  C   UNL     1       6.673   0.167  -1.592  0.00  0.00    +0.006 A 
ATOM     35  C   UNL     1       6.102  -0.742   0.573  0.00  0.00    +0.006 A 
BRANCH  33  36
ATOM     36  C   UNL     1       8.183  -1.538  -0.561  0.00  0.00    +0.013 C 
ATOM     37  C   UNL     1       9.166  -1.204   0.578  0.00  0.00    +0.012 C 
ATOM     38  C   UNL     1       7.854  -3.043  -0.542  0.00  0.00    +0.012 C 
ENDBRANCH  33  36
ENDBRANCH   6  26
ENDBRANCH   1  20
ENDBRANCH  15   1
ENDBRANCH   9  15
TORSDOF 7
