REMARK  Name = 45783936
REMARK  10 active torsions:
REMARK  status: ('A' for Active; 'I' for Inactive)
REMARK    1  A    between atoms: N_2  and  C_13
REMARK    2  A    between atoms: C_8  and  C_12
REMARK    3  A    between atoms: C_9  and  C_13
REMARK    4  A    between atoms: C_11  and  C_16
REMARK    5  A    between atoms: C_12  and  C_17
REMARK    6  A    between atoms: C_12  and  C_18
REMARK    7  A    between atoms: C_15  and  C_21
REMARK    8  A    between atoms: C_16  and  C_24
REMARK    9  A    between atoms: C_26  and  C_27
REMARK   10  A    between atoms: C_35  and  C_36
REMARK                            x       y       z     vdW  Elec       q    Type
REMARK                         _______ _______ _______ _____ _____    ______ ____
ROOT
ATOM      8  C   UNL     1      -0.169  -2.167  -0.737  0.00  0.00    +0.000 C 
ATOM      9  C   UNL     1      -0.969  -2.933   0.342  0.00  0.00    +0.029 C 
ATOM     10  C   UNL     1       1.212  -1.766  -0.200  0.00  0.00    +0.012 C 
ATOM     11  C   UNL     1       2.045  -2.965   0.301  0.00  0.00    +0.024 C 
ATOM     14  C   UNL     1      -0.132  -3.958   1.064  0.00  0.00    -0.023 C 
ATOM     15  C   UNL     1       1.213  -3.997   1.048  0.00  0.00    -0.073 C 
ATOM     21  C   UNL     1       1.948  -5.117   1.732  0.00  0.00    +0.039 C 
ENDROOT
BRANCH   8  12
ATOM     12  C   UNL     1      -0.046  -2.985  -2.029  0.00  0.00    -0.013 C 
ATOM     17  C   UNL     1      -1.426  -3.404  -2.527  0.00  0.00    +0.007 C 
ATOM     18  C   UNL     1       0.695  -2.187  -3.096  0.00  0.00    +0.007 C 
ENDBRANCH   8  12
BRANCH   9  13
ATOM     13  C   UNL     1      -1.593  -1.981   1.368  0.00  0.00    +0.092 C 
BRANCH  13   2
ATOM      2  N   UNL     1      -2.433  -0.985   0.704  0.00  0.00    -0.299 NA
ATOM      3  N   UNL     1      -4.731   0.676   0.359  0.00  0.00    -0.297 N 
ATOM      6  N   UNL     1      -5.919   2.634   0.818  0.00  0.00    -0.223 NA
ATOM      7  N   UNL     1      -6.638   1.120  -0.914  0.00  0.00    -0.223 NA
ATOM     19  C   UNL     1      -2.652   0.171   1.581  0.00  0.00    +0.103 C 
ATOM     20  C   UNL     1      -3.722  -1.573   0.320  0.00  0.00    +0.103 C 
ATOM     22  C   UNL     1      -3.484   1.247   0.877  0.00  0.00    +0.123 C 
ATOM     23  C   UNL     1      -4.588  -0.556  -0.427  0.00  0.00    +0.123 C 
ATOM     25  C   UNL     1      -5.814   1.516   0.075  0.00  0.00    +0.218 A 
ATOM     28  C   UNL     1      -6.973   3.420   0.517  0.00  0.00    +0.116 A 
ATOM     29  C   UNL     1      -7.670   1.953  -1.161  0.00  0.00    +0.116 A 
ATOM     30  C   UNL     1      -7.890   3.128  -0.471  0.00  0.00    +0.039 A 
ENDBRANCH  13   2
ENDBRANCH   9  13
BRANCH  11  16
ATOM     16  C   UNL     1       3.220  -2.433   1.130  0.00  0.00    +0.105 C 
BRANCH  16  24
ATOM      1  O   UNL     1       3.836  -0.113   0.691  0.00  0.00    -0.420 OA
ATOM      4  N   UNL     1       4.891  -1.601  -0.603  0.00  0.00    -0.112 NA
ATOM      5  N   UNL     1       5.332  -0.340  -0.957  0.00  0.00    -0.107 NA
ATOM     24  C   UNL     1       4.020  -1.420   0.362  0.00  0.00    +0.218 A 
ATOM     26  C   UNL     1       4.690   0.497  -0.176  0.00  0.00    +0.248 A 
BRANCH  26  27
ATOM     27  C   UNL     1       4.748   1.928  -0.097  0.00  0.00    +0.038 A 
ATOM     31  C   UNL     1       5.595   2.639  -0.947  0.00  0.00    +0.013 A 
ATOM     32  C   UNL     1       3.957   2.609   0.829  0.00  0.00    +0.013 A 
ATOM     33  C   UNL     1       5.652   4.031  -0.870  0.00  0.00    +0.004 A 
ATOM     34  C   UNL     1       4.014   4.000   0.905  0.00  0.00    +0.004 A 
ATOM     35  C   UNL     1       4.861   4.711   0.056  0.00  0.00    -0.050 A 
ATOM     36  C   UNL     1       4.922   6.199   0.138  0.00  0.00    +0.044 C 
ENDBRANCH  26  27
ENDBRANCH  16  24
ENDBRANCH  11  16
TORSDOF 6
