REMARK  Name = 75536713
REMARK  11 active torsions:
REMARK  status: ('A' for Active; 'I' for Inactive)
REMARK    1  A    between atoms: S_1  and  N_10
REMARK    2  A    between atoms: S_1  and  C_18
REMARK    3  A    between atoms: S_2  and  C_21
REMARK    4  A    between atoms: S_2  and  C_29
REMARK    5  A    between atoms: O_4  and  C_12
REMARK    6  A    between atoms: N_9  and  C_11
REMARK    7  A    between atoms: N_9  and  C_16
REMARK    8  A    between atoms: N_10  and  C_15
REMARK    9  A    between atoms: C_13  and  C_15
REMARK   10  A    between atoms: C_16  and  C_17
REMARK   11  A    between atoms: C_28  and  C_30
REMARK                            x       y       z     vdW  Elec       q    Type
REMARK                         _______ _______ _______ _____ _____    ______ ____
ROOT
ATOM      3  O   UNL     1       3.268  -2.326   1.239  0.00  0.00    -0.371 OA
ATOM     11  C   UNL     1       1.514  -3.657   0.369  0.00  0.00    +0.111 C 
ATOM     12  C   UNL     1       2.232  -3.007  -0.801  0.00  0.00    +0.164 C 
ATOM     13  C   UNL     1       3.192  -2.005  -0.163  0.00  0.00    +0.164 C 
ATOM     14  C   UNL     1       2.554  -3.546   1.472  0.00  0.00    +0.181 C 
ENDROOT
BRANCH  12   4
ATOM      4  O   UNL     1       2.989  -4.021  -1.466  0.00  0.00    -0.388 OA
ATOM     32  H   UNL     1       3.470  -3.592  -2.194  0.00  0.00    +0.210 HD
ENDBRANCH  12   4
BRANCH  11   9
ATOM      9  N   UNL     1       0.299  -2.930   0.727  0.00  0.00    -0.305 NA
ATOM     31  H   UNL     1       0.084  -3.059   1.716  0.00  0.00    +0.123 HD
BRANCH   9  16
ATOM     16  C   UNL     1      -0.839  -3.387  -0.063  0.00  0.00    +0.116 C 
BRANCH  16  17
ATOM     17  C   UNL     1      -1.946  -2.368  -0.092  0.00  0.00    -0.033 A 
ATOM     19  C   UNL     1      -1.703  -1.087  -0.587  0.00  0.00    +0.007 A 
ATOM     20  C   UNL     1      -3.217  -2.705   0.376  0.00  0.00    +0.007 A 
ATOM     21  C   UNL     1      -3.999  -0.480  -0.147  0.00  0.00    +0.088 A 
ATOM     22  C   UNL     1      -2.729  -0.143  -0.615  0.00  0.00    +0.027 A 
ATOM     23  C   UNL     1      -4.243  -1.761   0.348  0.00  0.00    +0.027 A 
BRANCH  21   2
ATOM      2  S   UNL     1      -5.283   0.703  -0.178  0.00  0.00    -0.006 S 
ATOM      7  O   UNL     1      -4.987   1.695  -1.201  0.00  0.00    -0.170 OA
ATOM      8  O   UNL     1      -6.551  -0.013  -0.211  0.00  0.00    -0.170 OA
ATOM     29  C   UNL     1      -5.163   1.528   1.393  0.00  0.00    +0.200 C 
ENDBRANCH  21   2
ENDBRANCH  16  17
ENDBRANCH   9  16
ENDBRANCH  11   9
BRANCH  13  15
ATOM     15  C   UNL     1       2.741  -0.559  -0.298  0.00  0.00    +0.140 C 
BRANCH  15  10
ATOM     10  N   UNL     1       3.727   0.331   0.346  0.00  0.00    -0.187 NA
ATOM     33  H   UNL     1       3.904   0.152   1.343  0.00  0.00    +0.148 HD
BRANCH  10   1
ATOM      1  S   UNL     1       3.973   1.905  -0.251  0.00  0.00    +0.058 S 
ATOM      5  O   UNL     1       4.277   1.839  -1.667  0.00  0.00    -0.153 OA
ATOM      6  O   UNL     1       4.856   2.619   0.652  0.00  0.00    -0.153 OA
BRANCH   1  18
ATOM     18  C   UNL     1       2.365   2.616  -0.070  0.00  0.00    +0.105 A 
ATOM     24  C   UNL     1       2.022   3.272   1.112  0.00  0.00    +0.029 A 
ATOM     25  C   UNL     1       1.438   2.518  -1.108  0.00  0.00    +0.029 A 
ATOM     26  C   UNL     1       0.752   3.830   1.256  0.00  0.00    +0.005 A 
ATOM     27  C   UNL     1       0.169   3.077  -0.964  0.00  0.00    +0.005 A 
ATOM     28  C   UNL     1      -0.175   3.733   0.218  0.00  0.00    -0.050 A 
ATOM     30  C   UNL     1      -1.533   4.330   0.372  0.00  0.00    +0.044 C 
ENDBRANCH   1  18
ENDBRANCH  10   1
ENDBRANCH  15  10
ENDBRANCH  13  15
TORSDOF 9
