REMARK  Name = 75536034
REMARK  14 active torsions:
REMARK  status: ('A' for Active; 'I' for Inactive)
REMARK    1  A    between atoms: O_4  and  C_28
REMARK    2  A    between atoms: O_4  and  C_40
REMARK    3  A    between atoms: O_6  and  C_39
REMARK    4  A    between atoms: O_6  and  C_43
REMARK    5  A    between atoms: N_8  and  C_12
REMARK    6  A    between atoms: N_10  and  C_25
REMARK    7  A    between atoms: N_11  and  C_34
REMARK    8  A    between atoms: N_11  and  C_41
REMARK    9  A    between atoms: N_11  and  C_42
REMARK   10  A    between atoms: C_18  and  C_23
REMARK   11  A    between atoms: C_24  and  C_26
REMARK   12  A    between atoms: C_25  and  C_27
REMARK   13  A    between atoms: C_25  and  C_28
REMARK   14  A    between atoms: C_27  and  C_31
REMARK                            x       y       z     vdW  Elec       q    Type
REMARK                         _______ _______ _______ _____ _____    ______ ____
ROOT
ATOM      1  O   UNL     1       0.896   4.916  -1.086  0.00  0.00    -0.253 OA
ATOM      3  O   UNL     1      -2.657  -1.497  -1.435  0.00  0.00    -0.270 OA
ATOM      7  N   UNL     1       0.234   2.688  -1.065  0.00  0.00    -0.271 N 
ATOM      8  N   UNL     1       2.513   3.295  -0.889  0.00  0.00    -0.296 N 
ATOM      9  N   UNL     1      -1.879   0.677  -1.071  0.00  0.00    -0.294 N 
ATOM     18  C   UNL     1       0.549   1.254  -1.156  0.00  0.00    +0.181 C 
ATOM     19  C   UNL     1      -0.598   0.427  -1.737  0.00  0.00    +0.140 C 
ATOM     20  C   UNL     1      -1.178   3.058  -1.197  0.00  0.00    +0.129 C 
ATOM     21  C   UNL     1      -2.108   2.034  -0.561  0.00  0.00    +0.127 C 
ATOM     22  C   UNL     1       1.195   3.720  -1.020  0.00  0.00    +0.303 C 
ATOM     24  C   UNL     1      -2.825  -0.353  -1.015  0.00  0.00    +0.247 C 
ATOM     44  H   UNL     1       2.713   2.318  -0.715  0.00  0.00    +0.151 HD
ENDROOT
BRANCH   8  12
ATOM     12  C   UNL     1       3.617   4.227  -0.823  0.00  0.00    +0.074 C 
ATOM     13  C   UNL     1       4.879   3.632  -1.457  0.00  0.00    +0.022 C 
ATOM     14  C   UNL     1       3.877   4.671   0.620  0.00  0.00    +0.022 C 
ATOM     15  C   UNL     1       5.496   2.525  -0.602  0.00  0.00    +0.002 C 
ATOM     16  C   UNL     1       4.496   3.563   1.471  0.00  0.00    +0.002 C 
ATOM     17  C   UNL     1       5.756   2.994   0.826  0.00  0.00    +0.000 C 
ENDBRANCH   8  12
BRANCH  24  26
ATOM     26  C   UNL     1      -4.131  -0.059  -0.405  0.00  0.00    +0.037 A 
ATOM     29  C   UNL     1      -4.322  -0.255   0.963  0.00  0.00    +0.015 A 
ATOM     30  C   UNL     1      -5.179   0.415  -1.194  0.00  0.00    +0.015 A 
ATOM     32  C   UNL     1      -5.560   0.024   1.542  0.00  0.00    +0.024 A 
ATOM     33  C   UNL     1      -6.417   0.694  -0.616  0.00  0.00    +0.024 A 
ATOM     34  C   UNL     1      -6.608   0.499   0.752  0.00  0.00    +0.029 A 
BRANCH  34  11
ATOM     11  N   UNL     1      -7.859   0.780   1.338  0.00  0.00    -0.336 N 
ATOM     41  C   UNL     1      -8.955   1.273   0.527  0.00  0.00    +0.129 C 
ATOM     42  C   UNL     1      -8.069   0.573   2.757  0.00  0.00    +0.129 C 
ENDBRANCH  34  11
ENDBRANCH  24  26
BRANCH  18  23
ATOM      2  O   UNL     1       0.362   1.266   1.227  0.00  0.00    -0.274 OA
ATOM     10  N   UNL     1       1.816  -0.247   0.219  0.00  0.00    -0.301 N 
ATOM     23  C   UNL     1       0.878   0.771   0.228  0.00  0.00    +0.236 C 
ATOM     45  H   UNL     1       2.164  -0.593  -0.671  0.00  0.00    +0.150 HD
BRANCH  10  25
ATOM     25  C   UNL     1       2.319  -0.870   1.422  0.00  0.00    +0.186 C 
BRANCH  25  28
ATOM      5  O   UNL     1       4.417  -1.152   0.256  0.00  0.00    -0.249 OA
ATOM     28  C   UNL     1       3.784  -1.266   1.301  0.00  0.00    +0.328 C 
BRANCH  28   4
ATOM      4  O   UNL     1       4.280  -1.764   2.469  0.00  0.00    -0.467 OA
ATOM     40  C   UNL     1       5.650  -2.177   2.436  0.00  0.00    +0.280 C 
ENDBRANCH  28   4
ENDBRANCH  25  28
BRANCH  25  27
ATOM     27  C   UNL     1       1.436  -2.053   1.848  0.00  0.00    +0.069 C 
BRANCH  27  31
ATOM     31  C   UNL     1       1.405  -3.204   0.868  0.00  0.00    -0.045 A 
ATOM     35  C   UNL     1       2.335  -4.237   0.976  0.00  0.00    +0.007 A 
ATOM     36  C   UNL     1       0.446  -3.232  -0.144  0.00  0.00    +0.007 A 
ATOM     37  C   UNL     1       2.307  -5.299   0.072  0.00  0.00    +0.046 A 
ATOM     38  C   UNL     1       0.417  -4.294  -1.048  0.00  0.00    +0.046 A 
ATOM     39  C   UNL     1       1.348  -5.327  -0.940  0.00  0.00    +0.120 A 
BRANCH  39   6
ATOM      6  O   UNL     1       1.320  -6.363  -1.823  0.00  0.00    -0.495 OA
ATOM     43  C   UNL     1       0.314  -6.328  -2.834  0.00  0.00    +0.277 C 
ENDBRANCH  39   6
ENDBRANCH  27  31
ENDBRANCH  25  27
ENDBRANCH  10  25
ENDBRANCH  18  23
TORSDOF 10
