REMARK  Name = 40777895
REMARK  11 active torsions:
REMARK  status: ('A' for Active; 'I' for Inactive)
REMARK    1  A    between atoms: S_2  and  N_11
REMARK    2  A    between atoms: S_2  and  C_24
REMARK    3  A    between atoms: O_4  and  C_13
REMARK    4  A    between atoms: O_5  and  C_14
REMARK    5  A    between atoms: O_6  and  C_23
REMARK    6  A    between atoms: O_6  and  C_25
REMARK    7  A    between atoms: N_11  and  C_22
REMARK    8  A    between atoms: C_12  and  C_17
REMARK    9  A    between atoms: C_15  and  C_22
REMARK   10  A    between atoms: C_16  and  C_23
REMARK   11  A    between atoms: C_17  and  C_21
REMARK                            x       y       z     vdW  Elec       q    Type
REMARK                         _______ _______ _______ _____ _____    ______ ____
ROOT
ATOM      3  O   UNL     1       0.569  -1.716  -0.473  0.00  0.00    -0.366 OA
ATOM     12  C   UNL     1       1.325  -1.965   0.726  0.00  0.00    +0.158 C 
ATOM     13  C   UNL     1       0.345  -2.586   1.707  0.00  0.00    +0.175 C 
ATOM     14  C   UNL     1      -0.526  -3.413   0.784  0.00  0.00    +0.175 C 
ATOM     15  C   UNL     1      -0.640  -2.510  -0.439  0.00  0.00    +0.165 C 
ENDROOT
BRANCH  13   4
ATOM      4  O   UNL     1       0.999  -3.353   2.695  0.00  0.00    -0.387 OA
ATOM     31  H   UNL     1       0.313  -3.810   3.211  0.00  0.00    +0.210 HD
ENDBRANCH  13   4
BRANCH  14   5
ATOM      5  O   UNL     1       0.156  -4.604   0.394  0.00  0.00    -0.387 OA
ATOM     32  H   UNL     1      -0.424  -5.082  -0.224  0.00  0.00    +0.210 HD
ENDBRANCH  14   5
BRANCH  12  17
ATOM     17  C   UNL     1       1.935  -0.668   1.224  0.00  0.00    +0.130 C 
BRANCH  17  21
ATOM      7  O   UNL     1       3.525  -1.073  -0.502  0.00  0.00    -0.276 OA
ATOM     10  N   UNL     1       3.786   0.861   0.741  0.00  0.00    -0.296 N 
ATOM     16  C   UNL     1       5.035   1.297   0.112  0.00  0.00    +0.102 C 
ATOM     18  C   UNL     1       5.570   2.366   1.067  0.00  0.00    +0.026 C 
ATOM     19  C   UNL     1       3.381   1.778   1.804  0.00  0.00    +0.108 C 
ATOM     20  C   UNL     1       4.305   2.978   1.657  0.00  0.00    +0.021 C 
ATOM     21  C   UNL     1       3.153  -0.324   0.403  0.00  0.00    +0.218 C 
BRANCH  16  23
ATOM     23  C   UNL     1       4.790   1.848  -1.292  0.00  0.00    +0.181 C 
BRANCH  23   6
ATOM      6  O   UNL     1       4.764   0.764  -2.201  0.00  0.00    -0.381 OA
ATOM     25  C   UNL     1       4.539   1.202  -3.537  0.00  0.00    +0.194 C 
ENDBRANCH  23   6
ENDBRANCH  16  23
ENDBRANCH  17  21
ENDBRANCH  12  17
BRANCH  15  22
ATOM     22  C   UNL     1      -1.822  -1.554  -0.367  0.00  0.00    +0.140 C 
BRANCH  22  11
ATOM     11  N   UNL     1      -1.888  -0.722  -1.532  0.00  0.00    -0.187 NA
ATOM     33  H   UNL     1      -1.054  -0.160  -1.742  0.00  0.00    +0.148 HD
BRANCH  11   2
ATOM      2  S   UNL     1      -3.397  -0.156  -2.144  0.00  0.00    +0.058 S 
ATOM      8  O   UNL     1      -4.272  -1.295  -2.342  0.00  0.00    -0.153 OA
ATOM      9  O   UNL     1      -3.177   0.791  -3.220  0.00  0.00    -0.153 OA
BRANCH   2  24
ATOM      1 CL   UNL     1      -5.554   3.112   2.764  0.00  0.00    -0.084 Cl
ATOM     24  C   UNL     1      -4.004   0.764  -0.762  0.00  0.00    +0.105 A 
ATOM     26  C   UNL     1      -3.700   2.120  -0.639  0.00  0.00    +0.030 A 
ATOM     27  C   UNL     1      -4.787   0.134   0.205  0.00  0.00    +0.030 A 
ATOM     28  C   UNL     1      -4.179   2.846   0.451  0.00  0.00    +0.022 A 
ATOM     29  C   UNL     1      -5.267   0.861   1.296  0.00  0.00    +0.022 A 
ATOM     30  C   UNL     1      -4.963   2.216   1.419  0.00  0.00    +0.041 A 
ENDBRANCH   2  24
ENDBRANCH  11   2
ENDBRANCH  22  11
ENDBRANCH  15  22
TORSDOF 10
