REMARK  Name = 75536825
REMARK  7 active torsions:
REMARK  status: ('A' for Active; 'I' for Inactive)
REMARK    1  A    between atoms: O_3  and  C_9
REMARK    2  A    between atoms: N_5  and  C_8
REMARK    3  A    between atoms: N_5  and  C_13
REMARK    4  A    between atoms: N_6  and  C_12
REMARK    5  A    between atoms: C_10  and  C_12
REMARK    6  A    between atoms: C_13  and  C_14
REMARK    7  A    between atoms: C_15  and  C_18
REMARK                            x       y       z     vdW  Elec       q    Type
REMARK                         _______ _______ _______ _____ _____    ______ ____
ROOT
ATOM      2  O   UNL     1       0.091  -0.836   0.123  0.00  0.00    -0.371 OA
ATOM      8  C   UNL     1      -1.994   0.221  -0.301  0.00  0.00    +0.111 C 
ATOM      9  C   UNL     1      -1.124   1.154   0.522  0.00  0.00    +0.164 C 
ATOM     10  C   UNL     1       0.261   0.586   0.243  0.00  0.00    +0.165 C 
ATOM     11  C   UNL     1      -1.308  -1.115  -0.066  0.00  0.00    +0.181 C 
ENDROOT
BRANCH   9   3
ATOM      3  O   UNL     1      -1.233   2.504   0.115  0.00  0.00    -0.388 OA
ATOM     27  H   UNL     1      -1.013   2.556  -0.831  0.00  0.00    +0.210 HD
ENDBRANCH   9   3
BRANCH   8   5
ATOM      5  N   UNL     1      -3.390   0.219   0.102  0.00  0.00    -0.305 NA
ATOM     26  H   UNL     1      -3.701   1.182   0.232  0.00  0.00    +0.123 HD
BRANCH   5  13
ATOM     13  C   UNL     1      -4.228  -0.415  -0.910  0.00  0.00    +0.116 C 
BRANCH  13  14
ATOM      7  N   UNL     1      -8.367  -0.491   0.254  0.00  0.00    -0.263 NA
ATOM     14  C   UNL     1      -5.677  -0.442  -0.502  0.00  0.00    -0.031 A 
ATOM     16  C   UNL     1      -6.119  -1.359   0.444  0.00  0.00    +0.024 A 
ATOM     17  C   UNL     1      -6.578   0.452  -1.070  0.00  0.00    +0.024 A 
ATOM     19  C   UNL     1      -7.462  -1.344   0.785  0.00  0.00    +0.111 A 
ATOM     20  C   UNL     1      -7.900   0.387  -0.662  0.00  0.00    +0.111 A 
ENDBRANCH  13  14
ENDBRANCH   5  13
ENDBRANCH   8   5
BRANCH  10  12
ATOM     12  C   UNL     1       1.268   0.892   1.338  0.00  0.00    +0.138 C 
BRANCH  12   6
ATOM      4  O   UNL     1       3.392   2.174  -0.109  0.00  0.00    -0.270 OA
ATOM      6  N   UNL     1       2.554   0.336   1.034  0.00  0.00    -0.309 N 
ATOM     15  C   UNL     1       3.528   1.032   0.324  0.00  0.00    +0.244 C 
ATOM     28  H   UNL     1       2.706  -0.630   1.302  0.00  0.00    +0.149 HD
BRANCH  15  18
ATOM      1  F   UNL     1       8.332  -1.709  -0.640  0.00  0.00    -0.205 F 
ATOM     18  C   UNL     1       4.799   0.306   0.069  0.00  0.00    +0.037 A 
ATOM     21  C   UNL     1       5.577   0.632  -1.042  0.00  0.00    +0.016 A 
ATOM     22  C   UNL     1       5.215  -0.700   0.940  0.00  0.00    +0.016 A 
ATOM     23  C   UNL     1       6.770  -0.049  -1.282  0.00  0.00    +0.039 A 
ATOM     24  C   UNL     1       6.408  -1.381   0.700  0.00  0.00    +0.039 A 
ATOM     25  C   UNL     1       7.186  -1.056  -0.411  0.00  0.00    +0.123 A 
ENDBRANCH  15  18
ENDBRANCH  12   6
ENDBRANCH  10  12
TORSDOF 7
