REMARK  Name = 7144209
REMARK  5 active torsions:
REMARK  status: ('A' for Active; 'I' for Inactive)
REMARK    1  A    between atoms: S_1  and  N_10
REMARK    2  A    between atoms: S_1  and  C_23
REMARK    3  A    between atoms: O_9  and  C_33
REMARK    4  A    between atoms: O_9  and  C_35
REMARK    5  A    between atoms: C_19  and  C_24
REMARK                            x       y       z     vdW  Elec       q    Type
REMARK                         _______ _______ _______ _____ _____    ______ ____
ROOT
ATOM      8  O   UNL     1       1.241   5.490  -0.048  0.00  0.00    -0.268 OA
ATOM     10  N   UNL     1       2.297   0.652  -0.121  0.00  0.00    -0.176 NA
ATOM     11  N   UNL     1       0.703   3.287   0.538  0.00  0.00    -0.311 N 
ATOM     12  C   UNL     1       2.235   1.885   2.042  0.00  0.00    +0.025 C 
ATOM     13  C   UNL     1       0.170   0.907   1.145  0.00  0.00    +0.053 C 
ATOM     14  C   UNL     1       0.953   1.167   2.429  0.00  0.00    +0.017 C 
ATOM     15  C   UNL     1       3.079   1.023   1.091  0.00  0.00    +0.114 C 
ATOM     16  C   UNL     1       0.998  -0.001   0.215  0.00  0.00    +0.119 C 
ATOM     17  C   UNL     1       1.871   3.238   1.429  0.00  0.00    +0.130 C 
ATOM     18  C   UNL     1      -0.203   2.213   0.438  0.00  0.00    +0.034 A 
ATOM     19  C   UNL     1      -1.345   2.356  -0.284  0.00  0.00    +0.002 A 
ATOM     20  C   UNL     1       0.491   4.516  -0.113  0.00  0.00    +0.252 A 
ATOM     21  C   UNL     1      -1.595   3.608  -0.973  0.00  0.00    +0.015 A 
ATOM     22  C   UNL     1      -0.744   4.632  -0.921  0.00  0.00    +0.071 A 
ENDROOT
BRANCH  19  24
ATOM     24  C   UNL     1      -2.336   1.264  -0.401  0.00  0.00    -0.016 A 
ATOM     27  C   UNL     1      -2.220   0.333  -1.429  0.00  0.00    +0.012 A 
ATOM     28  C   UNL     1      -3.377   1.175   0.518  0.00  0.00    +0.012 A 
ATOM     29  C   UNL     1      -3.155  -0.696  -1.539  0.00  0.00    +0.046 A 
ATOM     30  C   UNL     1      -4.311   0.145   0.408  0.00  0.00    +0.046 A 
ATOM     33  C   UNL     1      -4.200  -0.790  -0.621  0.00  0.00    +0.130 A 
BRANCH  33   9
ATOM      9  O   UNL     1      -5.112  -1.795  -0.729  0.00  0.00    -0.406 OA
BRANCH   9  35
ATOM      3  F   UNL     1      -4.081  -2.843   1.023  0.00  0.00    -0.133 F 
ATOM      4  F   UNL     1      -5.601  -3.914  -0.125  0.00  0.00    -0.133 F 
ATOM      5  F   UNL     1      -6.215  -2.297   1.211  0.00  0.00    -0.133 F 
ATOM     35  C   UNL     1      -5.248  -2.702   0.360  0.00  0.00    +0.575 C 
ENDBRANCH   9  35
ENDBRANCH  33   9
ENDBRANCH  19  24
BRANCH  10   1
ATOM      1  S   UNL     1       3.188  -0.079  -1.385  0.00  0.00    +0.061 S 
ATOM      6  O   UNL     1       4.485   0.558  -1.481  0.00  0.00    -0.153 OA
ATOM      7  O   UNL     1       2.336  -0.212  -2.548  0.00  0.00    -0.153 OA
BRANCH   1  23
ATOM      2  F   UNL     1       3.991  -5.438   0.886  0.00  0.00    -0.205 F 
ATOM     23  C   UNL     1       3.429  -1.690  -0.702  0.00  0.00    +0.106 A 
ATOM     25  C   UNL     1       2.493  -2.679  -0.952  0.00  0.00    +0.031 A 
ATOM     26  C   UNL     1       4.551  -1.937   0.071  0.00  0.00    +0.031 A 
ATOM     31  C   UNL     1       2.683  -3.951  -0.412  0.00  0.00    +0.040 A 
ATOM     32  C   UNL     1       4.742  -3.209   0.611  0.00  0.00    +0.040 A 
ATOM     34  C   UNL     1       3.808  -4.216   0.369  0.00  0.00    +0.124 A 
ENDBRANCH   1  23
ENDBRANCH  10   1
TORSDOF 5
