REMARK  Name = 75536598
REMARK  7 active torsions:
REMARK  status: ('A' for Active; 'I' for Inactive)
REMARK    1  A    between atoms: O_3  and  C_8
REMARK    2  A    between atoms: N_5  and  C_7
REMARK    3  A    between atoms: N_5  and  C_12
REMARK    4  A    between atoms: N_6  and  C_11
REMARK    5  A    between atoms: C_9  and  C_11
REMARK    6  A    between atoms: C_12  and  C_13
REMARK    7  A    between atoms: C_14  and  C_17
REMARK                            x       y       z     vdW  Elec       q    Type
REMARK                         _______ _______ _______ _____ _____    ______ ____
ROOT
ATOM      2  O   UNL     1       0.688   0.993  -0.060  0.00  0.00    -0.371 OA
ATOM      7  C   UNL     1      -1.349  -0.171   0.312  0.00  0.00    +0.111 C 
ATOM      8  C   UNL     1      -0.427  -1.041  -0.523  0.00  0.00    +0.164 C 
ATOM      9  C   UNL     1       0.926  -0.417  -0.212  0.00  0.00    +0.165 C 
ATOM     10  C   UNL     1      -0.724   1.201   0.119  0.00  0.00    +0.181 C 
ENDROOT
BRANCH   8   3
ATOM      3  O   UNL     1      -0.478  -2.404  -0.150  0.00  0.00    -0.388 OA
ATOM     25  H   UNL     1      -0.267  -2.470   0.797  0.00  0.00    +0.210 HD
ENDBRANCH   8   3
BRANCH   7   5
ATOM      5  N   UNL     1      -2.740  -0.223  -0.109  0.00  0.00    -0.305 NA
ATOM     24  H   UNL     1      -3.003  -1.196  -0.266  0.00  0.00    +0.123 HD
BRANCH   5  12
ATOM     12  C   UNL     1      -3.618   0.345   0.908  0.00  0.00    +0.116 C 
BRANCH  12  13
ATOM     13  C   UNL     1      -5.061   0.314   0.482  0.00  0.00    -0.034 A 
ATOM     15  C   UNL     1      -5.606   1.391  -0.217  0.00  0.00    +0.005 A 
ATOM     16  C   UNL     1      -5.855  -0.791   0.788  0.00  0.00    +0.005 A 
ATOM     18  C   UNL     1      -6.944   1.363  -0.611  0.00  0.00    +0.000 A 
ATOM     19  C   UNL     1      -7.193  -0.820   0.394  0.00  0.00    +0.000 A 
ATOM     20  C   UNL     1      -7.737   0.257  -0.305  0.00  0.00    +0.000 A 
ENDBRANCH  12  13
ENDBRANCH   5  12
ENDBRANCH   7   5
BRANCH   9  11
ATOM     11  C   UNL     1       1.958  -0.648  -1.301  0.00  0.00    +0.138 C 
BRANCH  11   6
ATOM      4  O   UNL     1       4.123  -1.865   0.140  0.00  0.00    -0.270 OA
ATOM      6  N   UNL     1       3.214  -0.040  -0.968  0.00  0.00    -0.308 N 
ATOM     14  C   UNL     1       4.211  -0.708  -0.263  0.00  0.00    +0.251 C 
ATOM     26  H   UNL     1       3.351   0.922  -1.257  0.00  0.00    +0.149 HD
BRANCH  14  17
ATOM      1  S   UNL     1       6.718  -0.679   0.890  0.00  0.00    -0.092 S 
ATOM     17  C   UNL     1       5.443   0.070   0.026  0.00  0.00    +0.074 A 
ATOM     21  C   UNL     1       5.741   1.373  -0.308  0.00  0.00    +0.021 A 
ATOM     22  C   UNL     1       7.033   1.761   0.150  0.00  0.00    +0.008 A 
ATOM     23  C   UNL     1       7.674   0.740   0.818  0.00  0.00    +0.046 A 
ENDBRANCH  14  17
ENDBRANCH  11   6
ENDBRANCH   9  11
TORSDOF 7
