REMARK  Name = 40586269
REMARK  7 active torsions:
REMARK  status: ('A' for Active; 'I' for Inactive)
REMARK    1  A    between atoms: O_3  and  C_10
REMARK    2  A    between atoms: O_3  and  C_20
REMARK    3  A    between atoms: N_5  and  C_9
REMARK    4  A    between atoms: N_5  and  C_14
REMARK    5  A    between atoms: N_6  and  C_21
REMARK    6  A    between atoms: C_12  and  C_14
REMARK    7  A    between atoms: C_21  and  C_22
REMARK                            x       y       z     vdW  Elec       q    Type
REMARK                         _______ _______ _______ _____ _____    ______ ____
ROOT
ATOM      1  O   UNL     1      -1.218  -0.796   1.407  0.00  0.00    -0.369 OA
ATOM      2  O   UNL     1      -0.660  -2.610  -1.002  0.00  0.00    -0.369 OA
ATOM      7  C   UNL     1       0.004  -1.421  -0.527  0.00  0.00    +0.170 C 
ATOM      8  C   UNL     1      -1.073  -0.499   0.008  0.00  0.00    +0.191 C 
ATOM      9  C   UNL     1       0.840  -1.744   0.690  0.00  0.00    +0.111 C 
ATOM     10  C   UNL     1      -2.287  -0.923  -0.783  0.00  0.00    +0.235 C 
ATOM     11  C   UNL     1      -0.190  -1.716   1.806  0.00  0.00    +0.181 C 
ATOM     13  C   UNL     1      -2.079  -2.415  -0.911  0.00  0.00    +0.207 C 
ENDROOT
BRANCH   9   5
ATOM      5  N   UNL     1       1.867  -0.753   0.898  0.00  0.00    -0.309 NA
ATOM     23  H   UNL     1       2.123  -0.715   1.884  0.00  0.00    +0.122 HD
BRANCH   5  14
ATOM     14  C   UNL     1       3.038  -1.027   0.121  0.00  0.00    +0.084 C 
BRANCH  14  12
ATOM     12  C   UNL     1       4.107   0.040   0.348  0.00  0.00    +0.003 C 
ATOM     15  C   UNL     1       5.360  -0.263  -0.485  0.00  0.00    +0.005 C 
ATOM     16  C   UNL     1       3.558   1.436   0.022  0.00  0.00    +0.005 C 
ATOM     17  C   UNL     1       6.424   0.819  -0.316  0.00  0.00    +0.000 C 
ATOM     18  C   UNL     1       4.626   2.515   0.191  0.00  0.00    +0.000 C 
ATOM     19  C   UNL     1       5.873   2.206  -0.632  0.00  0.00    +0.000 C 
ENDBRANCH  14  12
ENDBRANCH   5  14
ENDBRANCH   9   5
BRANCH  10   3
ATOM      3  O   UNL     1      -3.508  -0.610  -0.152  0.00  0.00    -0.442 OA
BRANCH   3  20
ATOM      4  O   UNL     1      -3.607   1.377  -1.300  0.00  0.00    -0.226 OA
ATOM      6  N   UNL     1      -5.272   0.766   0.196  0.00  0.00    -0.281 N 
ATOM     20  C   UNL     1      -4.091   0.590  -0.493  0.00  0.00    +0.401 C 
ATOM     24  H   UNL     1      -5.561   0.040   0.844  0.00  0.00    +0.152 HD
BRANCH   6  21
ATOM     21  C   UNL     1      -6.117   1.930   0.054  0.00  0.00    +0.104 C 
ATOM     22  C   UNL     1      -5.593   3.098   0.863  0.00  0.00    +0.024 C 
ENDBRANCH   6  21
ENDBRANCH   3  20
ENDBRANCH  10   3
TORSDOF 6
