REMARK  Name = 7156248
REMARK  8 active torsions:
REMARK  status: ('A' for Active; 'I' for Inactive)
REMARK    1  A    between atoms: S_1  and  C_24
REMARK    2  A    between atoms: S_1  and  C_26
REMARK    3  A    between atoms: O_4  and  C_22
REMARK    4  A    between atoms: O_4  and  C_25
REMARK    5  A    between atoms: N_8  and  C_19
REMARK    6  A    between atoms: C_18  and  C_21
REMARK    7  A    between atoms: C_21  and  C_22
REMARK    8  A    between atoms: C_23  and  C_24
REMARK                            x       y       z     vdW  Elec       q    Type
REMARK                         _______ _______ _______ _____ _____    ______ ____
ROOT
ATOM      2  O   UNL     1      -1.136   1.345  -2.134  0.00  0.00    -0.266 OA
ATOM      3  O   UNL     1       2.701  -2.243  -1.095  0.00  0.00    -0.276 OA
ATOM      6  N   UNL     1       3.067  -0.278   0.089  0.00  0.00    -0.300 N 
ATOM      7  N   UNL     1       0.581   1.621  -0.574  0.00  0.00    -0.310 N 
ATOM      9  C   UNL     1       3.042   1.833  -1.246  0.00  0.00    +0.027 C 
ATOM     10  C   UNL     1       2.417   1.887   1.131  0.00  0.00    +0.054 C 
ATOM     11  C   UNL     1       3.180   2.637   0.041  0.00  0.00    +0.018 C 
ATOM     12  C   UNL     1       3.629   0.422  -1.067  0.00  0.00    +0.113 C 
ATOM     13  C   UNL     1       1.564   1.796  -1.652  0.00  0.00    +0.130 C 
ATOM     14  C   UNL     1       3.047   0.496   1.340  0.00  0.00    +0.117 C 
ATOM     15  C   UNL     1       0.951   1.739   0.769  0.00  0.00    +0.027 A 
ATOM     16  C   UNL     1       0.017   1.692   1.734  0.00  0.00    +0.024 A 
ATOM     17  C   UNL     1      -0.760   1.436  -0.965  0.00  0.00    +0.273 A 
ATOM     18  C   UNL     1       2.678  -1.611  -0.035  0.00  0.00    +0.218 C 
ATOM     19  C   UNL     1      -1.767   1.364   0.142  0.00  0.00    +0.099 A 
ATOM     20  C   UNL     1      -1.368   1.500   1.411  0.00  0.00    +0.030 A 
ENDROOT
BRANCH  19   8
ATOM      5  O   UNL     1      -3.746   0.034   1.724  0.00  0.00    -0.275 OA
ATOM      8  N   UNL     1      -3.075   1.172  -0.194  0.00  0.00    -0.281 N 
ATOM     23  C   UNL     1      -3.990   0.523   0.622  0.00  0.00    +0.227 C 
ATOM     27  H   UNL     1      -3.320   1.316  -1.171  0.00  0.00    +0.155 HD
BRANCH  23  24
ATOM     24  C   UNL     1      -5.369   0.447   0.009  0.00  0.00    +0.164 C 
BRANCH  24   1
ATOM      1  S   UNL     1      -5.850  -1.291  -0.137  0.00  0.00    -0.155 S 
ATOM     26  C   UNL     1      -4.933  -1.698  -1.642  0.00  0.00    +0.085 C 
ENDBRANCH  24   1
ENDBRANCH  23  24
ENDBRANCH  19   8
BRANCH  18  21
ATOM     21  C   UNL     1       2.196  -2.295   1.220  0.00  0.00    +0.124 C 
BRANCH  21  22
ATOM     22  C   UNL     1       1.818  -3.725   0.903  0.00  0.00    +0.168 C 
BRANCH  22   4
ATOM      4  O   UNL     1       0.753  -3.738  -0.040  0.00  0.00    -0.382 OA
ATOM     25  C   UNL     1       0.352  -5.064  -0.355  0.00  0.00    +0.194 C 
ENDBRANCH  22   4
ENDBRANCH  21  22
ENDBRANCH  18  21
TORSDOF 6
