REMARK  Name = 26742631
REMARK  6 active torsions:
REMARK  status: ('A' for Active; 'I' for Inactive)
REMARK    1  A    between atoms: N_5  and  C_17
REMARK    2  A    between atoms: N_6  and  C_20
REMARK    3  A    between atoms: N_7  and  C_19
REMARK    4  A    between atoms: C_17  and  C_19
REMARK    5  A    between atoms: C_20  and  C_22
REMARK    6  A    between atoms: C_21  and  C_23
REMARK                            x       y       z     vdW  Elec       q    Type
REMARK                         _______ _______ _______ _____ _____    ______ ____
ROOT
ATOM      1  O   UNL     1      -3.322  -1.283   1.272  0.00  0.00    -0.276 OA
ATOM      2  O   UNL     1       4.758  -1.471   0.382  0.00  0.00    -0.253 OA
ATOM      4  N   UNL     1       2.619  -0.567   0.453  0.00  0.00    -0.285 N 
ATOM      5  N   UNL     1      -2.436   0.857   1.108  0.00  0.00    -0.300 N 
ATOM      6  N   UNL     1       4.535   0.808   0.251  0.00  0.00    -0.296 N 
ATOM      8  C   UNL     1       0.455   0.418  -0.325  0.00  0.00    +0.011 C 
ATOM      9  C   UNL     1      -0.243  -0.947  -0.132  0.00  0.00    +0.004 C 
ATOM     10  C   UNL     1       0.803  -2.056  -0.342  0.00  0.00    +0.023 C 
ATOM     11  C   UNL     1       1.696   0.574   0.579  0.00  0.00    +0.113 C 
ATOM     12  C   UNL     1      -0.489   1.629  -0.216  0.00  0.00    +0.024 C 
ATOM     13  C   UNL     1      -0.948  -1.111   1.225  0.00  0.00    +0.100 C 
ATOM     14  C   UNL     1       2.006  -1.892   0.580  0.00  0.00    +0.109 C 
ATOM     15  C   UNL     1      -1.268   1.738   1.090  0.00  0.00    +0.108 C 
ATOM     16  C   UNL     1      -2.349  -0.528   1.208  0.00  0.00    +0.216 C 
ATOM     18  C   UNL     1       4.021  -0.479   0.360  0.00  0.00    +0.302 C 
ATOM     25  H   UNL     1       3.938   1.618   0.179  0.00  0.00    +0.151 HD
ENDROOT
BRANCH   5  17
ATOM     17  C   UNL     1      -3.740   1.500   1.006  0.00  0.00    +0.126 C 
BRANCH  17  19
ATOM     19  C   UNL     1      -4.162   1.714  -0.438  0.00  0.00    +0.123 C 
BRANCH  19   7
ATOM      3  O   UNL     1      -6.513   0.030  -0.697  0.00  0.00    -0.276 OA
ATOM      7  N   UNL     1      -4.273   0.474  -1.157  0.00  0.00    -0.314 N 
ATOM     21  C   UNL     1      -5.445  -0.267  -1.226  0.00  0.00    +0.210 C 
ATOM     23  C   UNL     1      -5.292  -1.509  -2.063  0.00  0.00    +0.109 C 
ATOM     26  H   UNL     1      -3.444   0.130  -1.633  0.00  0.00    +0.149 HD
ENDBRANCH  19   7
ENDBRANCH  17  19
ENDBRANCH   5  17
BRANCH   6  20
ATOM     20  C   UNL     1       5.955   1.065   0.157  0.00  0.00    +0.132 C 
BRANCH  20  22
ATOM     22  C   UNL     1       6.356   1.063  -1.280  0.00  0.00    -0.016 C 
ATOM     24  C   UNL     1       7.277   0.241  -1.797  0.00  0.00    +0.005 C 
ENDBRANCH  20  22
ENDBRANCH   6  20
TORSDOF 5
