REMARK  Name = 45783469
REMARK  11 active torsions:
REMARK  status: ('A' for Active; 'I' for Inactive)
REMARK    1  A    between atoms: O_2  and  C_22
REMARK    2  A    between atoms: O_2  and  C_27
REMARK    3  A    between atoms: O_3  and  C_29
REMARK    4  A    between atoms: O_3  and  C_30
REMARK    5  A    between atoms: N_4  and  C_13
REMARK    6  A    between atoms: N_8  and  C_26
REMARK    7  A    between atoms: N_8  and  C_28
REMARK    8  A    between atoms: C_9  and  C_14
REMARK    9  A    between atoms: C_13  and  C_15
REMARK   10  A    between atoms: C_18  and  C_21
REMARK   11  A    between atoms: C_28  and  C_29
REMARK                            x       y       z     vdW  Elec       q    Type
REMARK                         _______ _______ _______ _____ _____    ______ ____
ROOT
ATOM      1  O   UNL     1      -2.492  -1.625   1.899  0.00  0.00    -0.336 OA
ATOM      5  N   UNL     1      -1.561  -1.104  -0.070  0.00  0.00    -0.190 NA
ATOM      6  N   UNL     1      -1.107  -1.647   2.105  0.00  0.00    -0.056 NA
ATOM     14  C   UNL     1      -2.673  -1.297   0.593  0.00  0.00    +0.245 A 
ATOM     18  C   UNL     1      -0.627  -1.330   0.899  0.00  0.00    +0.204 A 
ENDROOT
BRANCH  18  21
ATOM      7  N   UNL     1       3.052  -1.388   1.434  0.00  0.00    -0.240 NA
ATOM     21  C   UNL     1       0.778  -1.232   0.628  0.00  0.00    +0.041 A 
ATOM     23  C   UNL     1       1.242  -0.901  -0.640  0.00  0.00    +0.016 A 
ATOM     24  C   UNL     1       1.715  -1.464   1.622  0.00  0.00    +0.124 A 
ATOM     25  C   UNL     1       2.611  -0.813  -0.872  0.00  0.00    +0.044 A 
ATOM     26  C   UNL     1       3.466  -1.064   0.189  0.00  0.00    +0.119 A 
BRANCH  26   8
ATOM      8  N   UNL     1       4.857  -0.971  -0.064  0.00  0.00    -0.327 N 
ATOM     31  H   UNL     1       5.472  -1.153   0.721  0.00  0.00    +0.148 HD
BRANCH   8  28
ATOM     28  C   UNL     1       5.386  -0.636  -1.346  0.00  0.00    +0.131 C 
BRANCH  28  29
ATOM     29  C   UNL     1       6.905  -0.653  -1.302  0.00  0.00    +0.178 C 
BRANCH  29   3
ATOM      3  O   UNL     1       7.362   0.320  -0.370  0.00  0.00    -0.381 OA
ATOM     30  C   UNL     1       8.781   0.346  -0.298  0.00  0.00    +0.194 C 
ENDBRANCH  29   3
ENDBRANCH  28  29
ENDBRANCH   8  28
ENDBRANCH  26   8
ENDBRANCH  18  21
BRANCH  14   9
ATOM      4  N   UNL     1      -4.266  -0.273  -1.022  0.00  0.00    -0.287 NA
ATOM      9  C   UNL     1      -4.106  -1.205   0.113  0.00  0.00    +0.146 C 
ATOM     10  C   UNL     1      -4.646  -2.550  -0.407  0.00  0.00    +0.030 C 
ATOM     11  C   UNL     1      -5.143  -2.261  -1.817  0.00  0.00    +0.017 C 
ATOM     12  C   UNL     1      -5.397  -0.768  -1.806  0.00  0.00    +0.085 C 
BRANCH   4  13
ATOM     13  C   UNL     1      -4.450   1.111  -0.606  0.00  0.00    +0.120 C 
BRANCH  13  15
ATOM     15  C   UNL     1      -3.145   1.765  -0.239  0.00  0.00    -0.033 A 
ATOM     16  C   UNL     1      -2.964   2.293   1.039  0.00  0.00    +0.008 A 
ATOM     17  C   UNL     1      -2.116   1.843  -1.178  0.00  0.00    +0.008 A 
ATOM     19  C   UNL     1      -1.754   2.899   1.379  0.00  0.00    +0.046 A 
ATOM     20  C   UNL     1      -0.906   2.448  -0.838  0.00  0.00    +0.046 A 
ATOM     22  C   UNL     1      -0.725   2.976   0.440  0.00  0.00    +0.120 A 
BRANCH  22   2
ATOM      2  O   UNL     1       0.456   3.566   0.772  0.00  0.00    -0.495 OA
ATOM     27  C   UNL     1       1.465   3.611  -0.236  0.00  0.00    +0.277 C 
ENDBRANCH  22   2
ENDBRANCH  13  15
ENDBRANCH   4  13
ENDBRANCH  14   9
TORSDOF 9
