REMARK  Name = 75536971
REMARK  2 active torsions:
REMARK  status: ('A' for Active; 'I' for Inactive)
REMARK    1  A    between atoms: N_5  and  C_13
REMARK    2  A    between atoms: C_14  and  C_17
REMARK                            x       y       z     vdW  Elec       q    Type
REMARK                         _______ _______ _______ _____ _____    ______ ____
ROOT
ATOM      1  O   UNL     1      -2.824   2.408   0.273  0.00  0.00    -0.252 OA
ATOM      2  O   UNL     1       4.125   2.138   0.037  0.00  0.00    -0.270 OA
ATOM      3  N   UNL     1      -0.682   1.488   0.244  0.00  0.00    -0.278 N 
ATOM      4  N   UNL     1       2.009   1.254  -0.416  0.00  0.00    -0.294 N 
ATOM      5  N   UNL     1      -2.430   0.056   0.080  0.00  0.00    -0.254 N 
ATOM      7  C   UNL     1      -0.078   0.174   0.287  0.00  0.00    +0.113 C 
ATOM      8  C   UNL     1       1.117   0.104  -0.659  0.00  0.00    +0.132 C 
ATOM      9  C   UNL     1      -1.228  -0.759  -0.066  0.00  0.00    +0.139 C 
ATOM     10  C   UNL     1       0.153   2.671   0.377  0.00  0.00    +0.128 C 
ATOM     11  C   UNL     1       1.364   2.567  -0.549  0.00  0.00    +0.127 C 
ATOM     12  C   UNL     1      -2.086   1.434   0.212  0.00  0.00    +0.309 C 
ATOM     14  C   UNL     1       3.372   1.179  -0.126  0.00  0.00    +0.248 C 
ENDROOT
BRANCH  14  17
ATOM      6  N   UNL     1       5.090  -2.032  -1.025  0.00  0.00    -0.263 NA
ATOM     17  C   UNL     1       3.977  -0.153   0.011  0.00  0.00    +0.055 A 
ATOM     20  C   UNL     1       4.024  -0.794   1.243  0.00  0.00    +0.016 A 
ATOM     21  C   UNL     1       4.519  -0.808  -1.083  0.00  0.00    +0.123 A 
ATOM     23  C   UNL     1       4.604  -2.054   1.343  0.00  0.00    +0.020 A 
ATOM     24  C   UNL     1       5.118  -2.625   0.190  0.00  0.00    +0.111 A 
ENDBRANCH  14  17
BRANCH   5  13
ATOM     13  C   UNL     1      -3.741  -0.499   0.008  0.00  0.00    +0.038 A 
ATOM     15  C   UNL     1      -4.856   0.337   0.068  0.00  0.00    +0.023 A 
ATOM     16  C   UNL     1      -3.909  -1.877  -0.122  0.00  0.00    +0.023 A 
ATOM     18  C   UNL     1      -6.139  -0.205  -0.002  0.00  0.00    +0.002 A 
ATOM     19  C   UNL     1      -5.192  -2.420  -0.192  0.00  0.00    +0.002 A 
ATOM     22  C   UNL     1      -6.307  -1.584  -0.132  0.00  0.00    +0.000 A 
ENDBRANCH   5  13
TORSDOF 2
