REMARK  Name = 75367646
REMARK  6 active torsions:
REMARK  status: ('A' for Active; 'I' for Inactive)
REMARK    1  A    between atoms: O_5  and  C_11
REMARK    2  A    between atoms: O_5  and  C_19
REMARK    3  A    between atoms: N_8  and  C_21
REMARK    4  A    between atoms: C_16  and  C_17
REMARK    5  A    between atoms: C_20  and  C_23
REMARK    6  A    between atoms: C_25  and  C_27
REMARK                            x       y       z     vdW  Elec       q    Type
REMARK                         _______ _______ _______ _____ _____    ______ ____
ROOT
ATOM      4  O   UNL     1       4.426   2.134  -0.153  0.00  0.00    -0.375 OA
ATOM      6  O   UNL     1       2.944  -2.587  -0.961  0.00  0.00    -0.268 OA
ATOM      7  N   UNL     1       3.037  -0.550   0.196  0.00  0.00    -0.291 N 
ATOM     11  C   UNL     1       1.982   1.683   0.171  0.00  0.00    +0.218 C 
ATOM     12  C   UNL     1       2.377   0.476   1.019  0.00  0.00    +0.155 C 
ATOM     13  C   UNL     1       4.419  -0.273  -0.204  0.00  0.00    +0.136 C 
ATOM     14  C   UNL     1       3.119   2.685  -0.047  0.00  0.00    +0.206 C 
ATOM     15  C   UNL     1       4.545   1.011  -1.018  0.00  0.00    +0.179 C 
ATOM     16  C   UNL     1       2.425  -1.730  -0.247  0.00  0.00    +0.265 C 
ENDROOT
BRANCH  16  17
ATOM      8  N   UNL     1      -0.019  -2.145  -0.684  0.00  0.00    -0.262 N 
ATOM      9  N   UNL     1      -1.187  -2.370  -0.057  0.00  0.00    -0.176 NA
ATOM     17  C   UNL     1       1.039  -1.987   0.162  0.00  0.00    +0.123 A 
ATOM     18  C   UNL     1       0.528  -2.118   1.430  0.00  0.00    +0.057 A 
ATOM     20  C   UNL     1      -0.846  -2.353   1.234  0.00  0.00    +0.061 A 
ATOM     21  C   UNL     1       0.009  -2.092  -2.127  0.00  0.00    +0.173 C 
ATOM     23  C   UNL     1      -1.875  -2.568   2.265  0.00  0.00    +0.067 C 
ENDBRANCH  16  17
BRANCH  11   5
ATOM      5  O   UNL     1       0.891   2.352   0.803  0.00  0.00    -0.469 OA
BRANCH   5  19
ATOM     10  N   UNL     1      -0.535   1.392  -0.753  0.00  0.00    -0.221 NA
ATOM     19  C   UNL     1      -0.363   1.911   0.484  0.00  0.00    +0.215 A 
ATOM     22  C   UNL     1      -1.373   2.018   1.427  0.00  0.00    +0.068 A 
ATOM     24  C   UNL     1      -2.639   1.563   1.079  0.00  0.00    +0.019 A 
ATOM     25  C   UNL     1      -2.855   1.022  -0.184  0.00  0.00    +0.073 A 
ATOM     26  C   UNL     1      -1.780   0.960  -1.055  0.00  0.00    +0.127 A 
BRANCH  25  27
ATOM      1  F   UNL     1      -4.720   1.169  -1.675  0.00  0.00    -0.166 F 
ATOM      2  F   UNL     1      -4.220  -0.800  -0.917  0.00  0.00    -0.166 F 
ATOM      3  F   UNL     1      -5.133   0.669   0.400  0.00  0.00    -0.166 F 
ATOM     27  C   UNL     1      -4.199   0.526  -0.587  0.00  0.00    +0.419 C 
ENDBRANCH  25  27
ENDBRANCH   5  19
ENDBRANCH  11   5
TORSDOF 4
