REMARK  Name = 25390339
REMARK  7 active torsions:
REMARK  status: ('A' for Active; 'I' for Inactive)
REMARK    1  A    between atoms: O_3  and  C_12
REMARK    2  A    between atoms: O_4  and  C_13
REMARK    3  A    between atoms: N_9  and  C_16
REMARK    4  A    between atoms: N_10  and  C_23
REMARK    5  A    between atoms: C_11  and  C_15
REMARK    6  A    between atoms: C_14  and  C_16
REMARK    7  A    between atoms: C_15  and  C_17
REMARK                            x       y       z     vdW  Elec       q    Type
REMARK                         _______ _______ _______ _____ _____    ______ ____
ROOT
ATOM      2  O   UNL     1      -2.256   0.853  -0.629  0.00  0.00    -0.366 OA
ATOM     11  C   UNL     1      -3.132  -0.247  -0.326  0.00  0.00    +0.159 C 
ATOM     12  C   UNL     1      -4.140   0.293   0.673  0.00  0.00    +0.175 C 
ATOM     13  C   UNL     1      -4.317   1.716   0.186  0.00  0.00    +0.176 C 
ATOM     14  C   UNL     1      -2.900   2.087  -0.234  0.00  0.00    +0.167 C 
ENDROOT
BRANCH  12   3
ATOM      3  O   UNL     1      -5.339  -0.452   0.671  0.00  0.00    -0.387 OA
ATOM     29  H   UNL     1      -5.974   0.016   1.241  0.00  0.00    +0.210 HD
ENDBRANCH  12   3
BRANCH  13   4
ATOM      4  O   UNL     1      -5.145   1.743  -0.976  0.00  0.00    -0.387 OA
ATOM     30  H   UNL     1      -5.200   2.667  -1.273  0.00  0.00    +0.210 HD
ENDBRANCH  13   4
BRANCH  11  15
ATOM     15  C   UNL     1      -2.320  -1.414   0.207  0.00  0.00    +0.130 C 
BRANCH  15  17
ATOM      5  O   UNL     1       1.720  -4.426   0.523  0.00  0.00    -0.377 OA
ATOM      6  O   UNL     1      -1.205  -1.241  -1.877  0.00  0.00    -0.276 OA
ATOM      8  N   UNL     1      -0.438  -2.880  -0.423  0.00  0.00    -0.297 N 
ATOM     17  C   UNL     1      -1.276  -1.832  -0.797  0.00  0.00    +0.218 C 
ATOM     18  C   UNL     1       0.606  -3.344  -1.336  0.00  0.00    +0.136 C 
ATOM     19  C   UNL     1      -0.574  -3.685   0.796  0.00  0.00    +0.136 C 
ATOM     20  C   UNL     1       1.916  -3.545  -0.586  0.00  0.00    +0.179 C 
ATOM     21  C   UNL     1       0.785  -3.877   1.456  0.00  0.00    +0.179 C 
ENDBRANCH  15  17
ENDBRANCH  11  15
BRANCH  14  16
ATOM     16  C   UNL     1      -2.083   2.697   0.896  0.00  0.00    +0.140 C 
BRANCH  16   9
ATOM      7  O   UNL     1       0.221   0.997   0.984  0.00  0.00    -0.253 OA
ATOM      9  N   UNL     1      -0.758   3.026   0.460  0.00  0.00    -0.297 N 
ATOM     10  N   UNL     1       1.489   2.730   0.036  0.00  0.00    -0.269 N 
ATOM     22  C   UNL     1       0.326   2.135   0.534  0.00  0.00    +0.304 C 
ATOM     31  H   UNL     1      -0.599   3.948   0.065  0.00  0.00    +0.150 HD
ATOM     32  H   UNL     1       1.404   3.687  -0.299  0.00  0.00    +0.156 HD
BRANCH  10  23
ATOM      1  F   UNL     1       4.491  -0.959   0.691  0.00  0.00    -0.205 F 
ATOM     23  C   UNL     1       2.781   2.164  -0.059  0.00  0.00    +0.037 A 
ATOM     24  C   UNL     1       3.003   0.856   0.372  0.00  0.00    +0.061 A 
ATOM     25  C   UNL     1       3.834   2.912  -0.587  0.00  0.00    +0.023 A 
ATOM     26  C   UNL     1       4.277   0.296   0.277  0.00  0.00    +0.125 A 
ATOM     27  C   UNL     1       5.108   2.352  -0.682  0.00  0.00    +0.005 A 
ATOM     28  C   UNL     1       5.329   1.044  -0.251  0.00  0.00    +0.038 A 
ENDBRANCH  10  23
ENDBRANCH  16   9
ENDBRANCH  14  16
TORSDOF 7
