REMARK  Name = 45784106
REMARK  13 active torsions:
REMARK  status: ('A' for Active; 'I' for Inactive)
REMARK    1  A    between atoms: O_2  and  C_28
REMARK    2  A    between atoms: O_2  and  C_32
REMARK    3  A    between atoms: N_3  and  C_16
REMARK    4  A    between atoms: N_3  and  C_22
REMARK    5  A    between atoms: N_7  and  C_31
REMARK    6  A    between atoms: C_9  and  C_13
REMARK    7  A    between atoms: C_10  and  C_16
REMARK    8  A    between atoms: C_12  and  C_17
REMARK    9  A    between atoms: C_13  and  C_18
REMARK   10  A    between atoms: C_13  and  C_19
REMARK   11  A    between atoms: C_14  and  C_20
REMARK   12  A    between atoms: C_17  and  C_21
REMARK   13  A    between atoms: C_23  and  C_26
REMARK                            x       y       z     vdW  Elec       q    Type
REMARK                         _______ _______ _______ _____ _____    ______ ____
ROOT
ATOM      9  C   UNL     1      -0.025  -1.509  -1.273  0.00  0.00    +0.000 C 
ATOM     10  C   UNL     1      -1.288  -2.399  -1.160  0.00  0.00    +0.032 C 
ATOM     11  C   UNL     1       1.216  -2.278  -0.795  0.00  0.00    +0.012 C 
ATOM     12  C   UNL     1       1.082  -2.753   0.664  0.00  0.00    +0.024 C 
ATOM     14  C   UNL     1      -0.260  -3.407   0.922  0.00  0.00    -0.073 C 
ATOM     15  C   UNL     1      -1.304  -3.248   0.089  0.00  0.00    -0.022 C 
ATOM     20  C   UNL     1      -0.363  -4.286   2.137  0.00  0.00    +0.039 C 
ENDROOT
BRANCH   9  13
ATOM     13  C   UNL     1       0.194  -1.010  -2.704  0.00  0.00    -0.013 C 
ATOM     18  C   UNL     1       0.877  -2.084  -3.544  0.00  0.00    +0.007 C 
ATOM     19  C   UNL     1       1.014   0.276  -2.700  0.00  0.00    +0.007 C 
ENDBRANCH   9  13
BRANCH  10  16
ATOM     16  C   UNL     1      -2.566  -1.554  -1.219  0.00  0.00    +0.109 C 
BRANCH  16   3
ATOM      3  N   UNL     1      -2.627  -0.694  -0.070  0.00  0.00    -0.342 N 
ATOM     33  H   UNL     1      -1.900  -0.747   0.635  0.00  0.00    +0.146 HD
BRANCH   3  22
ATOM      6  N   UNL     1      -5.768   1.163  -0.517  0.00  0.00    -0.219 NA
ATOM     22  C   UNL     1      -3.663   0.199   0.177  0.00  0.00    +0.046 A 
ATOM     24  C   UNL     1      -3.659   1.004   1.310  0.00  0.00    +0.029 A 
ATOM     25  C   UNL     1      -4.730   0.316  -0.698  0.00  0.00    +0.137 A 
ATOM     27  C   UNL     1      -4.710   1.889   1.531  0.00  0.00    +0.069 A 
ATOM     28  C   UNL     1      -5.731   1.929   0.596  0.00  0.00    +0.214 A 
BRANCH  28   2
ATOM      2  O   UNL     1      -6.777   2.792   0.792  0.00  0.00    -0.480 OA
ATOM     32  C   UNL     1      -7.799   2.794  -0.198  0.00  0.00    +0.279 C 
ENDBRANCH  28   2
ENDBRANCH   3  22
ENDBRANCH  16   3
ENDBRANCH  10  16
BRANCH  12  17
ATOM     17  C   UNL     1       1.328  -1.601   1.645  0.00  0.00    +0.105 C 
BRANCH  17  21
ATOM      1  O   UNL     1       2.686   0.231   0.776  0.00  0.00    -0.419 OA
ATOM      4  N   UNL     1       3.865  -1.397   1.756  0.00  0.00    -0.112 NA
ATOM      5  N   UNL     1       4.753  -0.434   1.314  0.00  0.00    -0.106 NA
ATOM     21  C   UNL     1       2.671  -0.967   1.421  0.00  0.00    +0.218 A 
ATOM     23  C   UNL     1       4.020   0.497   0.748  0.00  0.00    +0.266 A 
BRANCH  23  26
ATOM      7  N   UNL     1       3.929   2.874   0.096  0.00  0.00    -0.329 N 
ATOM      8  N   UNL     1       5.905   3.171  -0.874  0.00  0.00    -0.243 NA
ATOM     26  C   UNL     1       4.565   1.667   0.164  0.00  0.00    +0.125 A 
ATOM     29  C   UNL     1       5.782   1.875  -0.441  0.00  0.00    +0.143 A 
ATOM     30  C   UNL     1       4.772   3.746  -0.535  0.00  0.00    +0.199 A 
ATOM     31  C   UNL     1       2.611   3.198   0.592  0.00  0.00    +0.150 C 
ENDBRANCH  23  26
ENDBRANCH  17  21
ENDBRANCH  12  17
TORSDOF 8
