REMARK  Name = 11912000
REMARK  9 active torsions:
REMARK  status: ('A' for Active; 'I' for Inactive)
REMARK    1  A    between atoms: S_1  and  N_9
REMARK    2  A    between atoms: S_1  and  C_20
REMARK    3  A    between atoms: O_6  and  C_21
REMARK    4  A    between atoms: O_6  and  C_30
REMARK    5  A    between atoms: O_7  and  C_24
REMARK    6  A    between atoms: O_7  and  C_32
REMARK    7  A    between atoms: N_9  and  C_15
REMARK    8  A    between atoms: N_10  and  C_16
REMARK    9  A    between atoms: C_23  and  C_29
REMARK                            x       y       z     vdW  Elec       q    Type
REMARK                         _______ _______ _______ _____ _____    ______ ____
ROOT
ATOM      2  O   UNL     1       0.597   2.150  -1.434  0.00  0.00    -0.370 OA
ATOM      3  O   UNL     1      -1.282  -0.173  -2.348  0.00  0.00    -0.370 OA
ATOM     13  C   UNL     1      -1.082   0.499  -1.093  0.00  0.00    +0.170 C 
ATOM     14  C   UNL     1       0.399   0.803  -0.975  0.00  0.00    +0.171 C 
ATOM     15  C   UNL     1      -1.737   1.859  -1.120  0.00  0.00    +0.133 C 
ATOM     16  C   UNL     1       1.054  -0.175  -1.922  0.00  0.00    +0.130 C 
ATOM     17  C   UNL     1      -0.674   2.730  -1.761  0.00  0.00    +0.183 C 
ATOM     18  C   UNL     1      -0.012  -0.373  -2.984  0.00  0.00    +0.185 C 
ENDROOT
BRANCH  16  10
ATOM     10  N   UNL     1       1.319  -1.423  -1.240  0.00  0.00    -0.306 N 
ATOM     11  N   UNL     1       3.365  -0.650  -0.389  0.00  0.00    -0.211 NA
ATOM     12  N   UNL     1       2.580  -2.875   0.104  0.00  0.00    -0.223 NA
ATOM     19  C   UNL     1       2.455  -1.656  -0.486  0.00  0.00    +0.216 A 
ATOM     23  C   UNL     1       4.460  -0.912   0.354  0.00  0.00    +0.111 A 
ATOM     26  C   UNL     1       3.699  -3.068   0.833  0.00  0.00    +0.116 A 
ATOM     27  C   UNL     1       4.683  -2.114   0.995  0.00  0.00    +0.051 A 
ATOM     36  H   UNL     1       0.623  -2.160  -1.261  0.00  0.00    +0.149 HD
BRANCH  23  29
ATOM      8  O   UNL     1       5.059   1.294  -0.241  0.00  0.00    -0.461 OA
ATOM     29  C   UNL     1       5.404   0.170   0.438  0.00  0.00    +0.153 A 
ATOM     31  C   UNL     1       6.615   0.333   1.066  0.00  0.00    +0.051 A 
ATOM     33  C   UNL     1       7.044   1.645   0.754  0.00  0.00    +0.042 A 
ATOM     34  C   UNL     1       6.064   2.188  -0.043  0.00  0.00    +0.196 A 
ENDBRANCH  23  29
ENDBRANCH  16  10
BRANCH  15   9
ATOM      9  N   UNL     1      -1.986   2.319   0.268  0.00  0.00    -0.182 NA
ATOM     35  H   UNL     1      -1.161   2.445   0.867  0.00  0.00    +0.148 HD
BRANCH   9   1
ATOM      1  S   UNL     1      -3.505   2.064   0.983  0.00  0.00    +0.062 S 
ATOM      4  O   UNL     1      -4.540   2.614   0.128  0.00  0.00    -0.153 OA
ATOM      5  O   UNL     1      -3.434   2.445   2.380  0.00  0.00    -0.153 OA
BRANCH   1  20
ATOM     20  C   UNL     1      -3.639   0.301   0.935  0.00  0.00    +0.150 A 
ATOM     21  C   UNL     1      -3.172  -0.462   1.993  0.00  0.00    +0.147 A 
ATOM     22  C   UNL     1      -4.216  -0.287  -0.178  0.00  0.00    +0.077 A 
ATOM     24  C   UNL     1      -4.330  -1.676  -0.235  0.00  0.00    +0.122 A 
ATOM     25  C   UNL     1      -3.286  -1.851   1.936  0.00  0.00    +0.051 A 
ATOM     28  C   UNL     1      -3.865  -2.458   0.822  0.00  0.00    +0.049 A 
BRANCH  21   6
ATOM      6  O   UNL     1      -2.603   0.110   3.092  0.00  0.00    -0.493 OA
ATOM     30  C   UNL     1      -1.192   0.311   3.060  0.00  0.00    +0.277 C 
ENDBRANCH  21   6
BRANCH  24   7
ATOM      7  O   UNL     1      -4.894  -2.269  -1.323  0.00  0.00    -0.495 OA
ATOM     32  C   UNL     1      -5.348  -1.411  -2.368  0.00  0.00    +0.277 C 
ENDBRANCH  24   7
ENDBRANCH   1  20
ENDBRANCH   9   1
ENDBRANCH  15   9
TORSDOF 7
