REMARK  Name = 38027513
REMARK  14 active torsions:
REMARK  status: ('A' for Active; 'I' for Inactive)
REMARK    1  A    between atoms: S_1  and  N_7
REMARK    2  A    between atoms: S_1  and  C_23
REMARK    3  A    between atoms: N_7  and  C_17
REMARK    4  A    between atoms: N_8  and  C_24
REMARK    5  A    between atoms: N_9  and  C_30
REMARK    6  A    between atoms: C_10  and  C_14
REMARK    7  A    between atoms: C_11  and  C_17
REMARK    8  A    between atoms: C_13  and  C_18
REMARK    9  A    between atoms: C_14  and  C_19
REMARK   10  A    between atoms: C_14  and  C_20
REMARK   11  A    between atoms: C_15  and  C_21
REMARK   12  A    between atoms: C_18  and  C_22
REMARK   13  A    between atoms: C_24  and  C_27
REMARK   14  A    between atoms: C_36  and  C_37
REMARK                            x       y       z     vdW  Elec       q    Type
REMARK                         _______ _______ _______ _____ _____    ______ ____
ROOT
ATOM     10  C   UNL     1      -1.900  -0.705  -1.345  0.00  0.00    +0.000 C 
ATOM     11  C   UNL     1      -3.445  -0.712  -1.465  0.00  0.00    +0.030 C 
ATOM     12  C   UNL     1      -1.352  -2.140  -1.397  0.00  0.00    +0.012 C 
ATOM     13  C   UNL     1      -1.926  -3.024  -0.274  0.00  0.00    +0.023 C 
ATOM     15  C   UNL     1      -3.429  -2.878  -0.154  0.00  0.00    -0.073 C 
ATOM     16  C   UNL     1      -4.092  -1.845  -0.705  0.00  0.00    -0.023 C 
ATOM     21  C   UNL     1      -4.160  -3.971   0.574  0.00  0.00    +0.039 C 
ENDROOT
BRANCH  10  14
ATOM     14  C   UNL     1      -1.248   0.140  -2.443  0.00  0.00    -0.013 C 
ATOM     19  C   UNL     1       0.261   0.212  -2.233  0.00  0.00    +0.007 C 
ATOM     20  C   UNL     1      -1.576  -0.431  -3.819  0.00  0.00    +0.007 C 
ENDBRANCH  10  14
BRANCH  11  17
ATOM     17  C   UNL     1      -4.042   0.622  -1.000  0.00  0.00    +0.113 C 
BRANCH  17   7
ATOM      7  N   UNL     1      -3.791   0.784   0.440  0.00  0.00    -0.189 NA
ATOM     38  H   UNL     1      -4.133   0.038   1.058  0.00  0.00    +0.148 HD
BRANCH   7   1
ATOM      1  S   UNL     1      -3.606   2.341   1.108  0.00  0.00    +0.058 S 
ATOM      4  O   UNL     1      -3.934   2.299   2.520  0.00  0.00    -0.153 OA
ATOM      5  O   UNL     1      -4.247   3.309   0.239  0.00  0.00    -0.153 OA
BRANCH   1  23
ATOM     23  C   UNL     1      -1.862   2.591   0.961  0.00  0.00    +0.105 A 
ATOM     25  C   UNL     1      -1.336   3.177  -0.191  0.00  0.00    +0.030 A 
ATOM     26  C   UNL     1      -1.012   2.201   1.996  0.00  0.00    +0.030 A 
ATOM     28  C   UNL     1       0.040   3.373  -0.306  0.00  0.00    +0.025 A 
ATOM     29  C   UNL     1       0.364   2.398   1.880  0.00  0.00    +0.025 A 
ATOM     30  C   UNL     1       0.890   2.984   0.729  0.00  0.00    +0.033 A 
BRANCH  30   9
ATOM      6  O   UNL     1       2.511   4.188  -1.505  0.00  0.00    -0.276 OA
ATOM      9  N   UNL     1       2.266   3.181   0.613  0.00  0.00    -0.286 N 
ATOM     36  C   UNL     1       2.972   3.748  -0.456  0.00  0.00    +0.214 C 
ATOM     37  C   UNL     1       4.457   3.781  -0.192  0.00  0.00    +0.109 C 
ATOM     40  H   UNL     1       2.814   2.862   1.409  0.00  0.00    +0.155 HD
ENDBRANCH  30   9
ENDBRANCH   1  23
ENDBRANCH   7   1
ENDBRANCH  17   7
ENDBRANCH  11  17
BRANCH  13  18
ATOM     18  C   UNL     1      -1.238  -2.732   1.064  0.00  0.00    +0.103 C 
BRANCH  18  22
ATOM      3  O   UNL     1       0.507  -4.319   0.525  0.00  0.00    -0.276 OA
ATOM      8  N   UNL     1       0.983  -2.526   1.925  0.00  0.00    -0.311 N 
ATOM     22  C   UNL     1       0.162  -3.302   1.120  0.00  0.00    +0.214 C 
ATOM     39  H   UNL     1       0.608  -1.694   2.370  0.00  0.00    +0.149 HD
BRANCH   8  24
ATOM     24  C   UNL     1       2.374  -2.834   2.163  0.00  0.00    +0.139 C 
BRANCH  24  27
ATOM      2  F   UNL     1       5.748  -0.404  -1.634  0.00  0.00    -0.205 F 
ATOM     27  C   UNL     1       3.274  -2.186   1.151  0.00  0.00    -0.030 A 
ATOM     31  C   UNL     1       3.597  -2.860  -0.028  0.00  0.00    +0.008 A 
ATOM     32  C   UNL     1       3.787  -0.911   1.388  0.00  0.00    +0.008 A 
ATOM     33  C   UNL     1       4.433  -2.258  -0.968  0.00  0.00    +0.038 A 
ATOM     34  C   UNL     1       4.623  -0.309   0.448  0.00  0.00    +0.038 A 
ATOM     35  C   UNL     1       4.946  -0.983  -0.730  0.00  0.00    +0.123 A 
ENDBRANCH  24  27
ENDBRANCH   8  24
ENDBRANCH  18  22
ENDBRANCH  13  18
TORSDOF 10
