REMARK  Name = 11865858
REMARK  12 active torsions:
REMARK  status: ('A' for Active; 'I' for Inactive)
REMARK    1  A    between atoms: N_6  and  C_11
REMARK    2  A    between atoms: N_7  and  C_17
REMARK    3  A    between atoms: N_8  and  C_23
REMARK    4  A    between atoms: C_12  and  C_15
REMARK    5  A    between atoms: C_16  and  C_20
REMARK    6  A    between atoms: C_17  and  C_19
REMARK    7  A    between atoms: C_17  and  C_22
REMARK    8  A    between atoms: C_19  and  C_21
REMARK    9  A    between atoms: C_23  and  C_28
REMARK   10  A    between atoms: C_23  and  C_29
REMARK   11  A    between atoms: C_24  and  C_30
REMARK   12  A    between atoms: C_24  and  C_31
REMARK                            x       y       z     vdW  Elec       q    Type
REMARK                         _______ _______ _______ _____ _____    ______ ____
ROOT
ATOM      1  O   UNL     1      -2.377   0.082  -1.978  0.00  0.00    -0.274 OA
ATOM      7  N   UNL     1      -1.625   1.084  -0.016  0.00  0.00    -0.302 N 
ATOM     15  C   UNL     1      -1.732   0.053  -0.933  0.00  0.00    +0.236 C 
ATOM     37  H   UNL     1      -1.146   0.909   0.862  0.00  0.00    +0.150 HD
ENDROOT
BRANCH  15  12
ATOM      2  O   UNL     1      -3.120  -4.063  -1.097  0.00  0.00    -0.271 OA
ATOM      5  N   UNL     1      -1.591  -2.326  -1.105  0.00  0.00    -0.285 N 
ATOM     11  C   UNL     1       0.453  -1.116  -1.185  0.00  0.00    +0.105 C 
ATOM     12  C   UNL     1      -0.931  -1.151  -0.530  0.00  0.00    +0.182 C 
ATOM     13  C   UNL     1       0.223  -1.798  -2.535  0.00  0.00    +0.043 C 
ATOM     14  C   UNL     1      -0.825  -2.857  -2.227  0.00  0.00    +0.111 C 
ATOM     16  C   UNL     1      -2.702  -3.003  -0.632  0.00  0.00    +0.240 C 
BRANCH  11   6
ATOM      3  O   UNL     1       3.305  -0.687  -1.117  0.00  0.00    -0.253 OA
ATOM      6  N   UNL     1       1.422  -1.840  -0.398  0.00  0.00    -0.294 N 
ATOM      8  N   UNL     1       3.492  -2.410   0.426  0.00  0.00    -0.297 N 
ATOM     18  C   UNL     1       2.787  -1.565  -0.427  0.00  0.00    +0.300 C 
ATOM     36  H   UNL     1       1.104  -2.630   0.156  0.00  0.00    +0.151 HD
ATOM     38  H   UNL     1       2.984  -3.152   0.899  0.00  0.00    +0.150 HD
BRANCH   8  23
ATOM     23  C   UNL     1       4.925  -2.341   0.589  0.00  0.00    +0.068 C 
ATOM     28  C   UNL     1       5.322  -2.736   2.006  0.00  0.00    +0.027 C 
ATOM     29  C   UNL     1       5.618  -3.220  -0.444  0.00  0.00    +0.027 C 
ENDBRANCH   8  23
ENDBRANCH  11   6
BRANCH  16  20
ATOM     20  C   UNL     1      -3.425  -2.400   0.505  0.00  0.00    +0.066 C 
ATOM     24  C   UNL     1      -3.161  -2.645   1.799  0.00  0.00    -0.071 C 
ATOM     30  C   UNL     1      -3.874  -2.052   2.982  0.00  0.00    +0.039 C 
ATOM     31  C   UNL     1      -2.054  -3.599   2.168  0.00  0.00    +0.039 C 
ENDBRANCH  16  20
ENDBRANCH  15  12
BRANCH   7  17
ATOM     17  C   UNL     1      -2.282   2.360  -0.181  0.00  0.00    +0.163 C 
BRANCH  17  22
ATOM      4  O   UNL     1      -3.950   1.534   1.381  0.00  0.00    -0.274 OA
ATOM     10  N   UNL     1      -4.613   2.994  -0.264  0.00  0.00    -0.328 N 
ATOM     22  C   UNL     1      -3.682   2.222   0.399  0.00  0.00    +0.231 C 
ATOM     40  H   UNL     1      -4.373   3.575  -1.060  0.00  0.00    +0.145 HD
ATOM     41  H   UNL     1      -5.584   3.005   0.031  0.00  0.00    +0.145 HD
ENDBRANCH  17  22
BRANCH  17  19
ATOM     19  C   UNL     1      -1.524   3.498   0.513  0.00  0.00    +0.069 C 
BRANCH  19  21
ATOM      9  N   UNL     1       1.617   4.354  -1.194  0.00  0.00    -0.360 N 
ATOM     21  C   UNL     1      -0.121   3.668   0.004  0.00  0.00    -0.020 A 
ATOM     25  C   UNL     1       1.047   3.030   0.509  0.00  0.00    +0.003 A 
ATOM     26  C   UNL     1       0.262   4.476  -1.042  0.00  0.00    +0.087 A 
ATOM     27  C   UNL     1       2.123   3.478  -0.261  0.00  0.00    +0.047 A 
ATOM     32  C   UNL     1       1.292   2.111   1.549  0.00  0.00    +0.010 A 
ATOM     33  C   UNL     1       3.438   3.051  -0.041  0.00  0.00    +0.026 A 
ATOM     34  C   UNL     1       2.602   1.676   1.780  0.00  0.00    +0.001 A 
ATOM     35  C   UNL     1       3.657   2.140   0.997  0.00  0.00    +0.002 A 
ATOM     39  H   UNL     1       2.168   4.837  -1.890  0.00  0.00    +0.165 HD
ENDBRANCH  19  21
ENDBRANCH  17  19
ENDBRANCH   7  17
TORSDOF 8
