REMARK  Name = 71693044
REMARK  13 active torsions:
REMARK  status: ('A' for Active; 'I' for Inactive)
REMARK    1  A    between atoms: N_2  and  C_13
REMARK    2  A    between atoms: N_5  and  C_22
REMARK    3  A    between atoms: N_5  and  C_28
REMARK    4  A    between atoms: N_5  and  C_29
REMARK    5  A    between atoms: C_6  and  C_10
REMARK    6  A    between atoms: C_7  and  C_13
REMARK    7  A    between atoms: C_9  and  C_14
REMARK    8  A    between atoms: C_10  and  C_15
REMARK    9  A    between atoms: C_10  and  C_16
REMARK   10  A    between atoms: C_11  and  C_17
REMARK   11  A    between atoms: C_14  and  C_18
REMARK   12  A    between atoms: C_19  and  C_22
REMARK   13  A    between atoms: C_25  and  C_27
REMARK                            x       y       z     vdW  Elec       q    Type
REMARK                         _______ _______ _______ _____ _____    ______ ____
ROOT
ATOM      6  C   UNL     1       1.487   1.298  -1.016  0.00  0.00    +0.000 C 
ATOM      7  C   UNL     1       2.725   2.056  -0.477  0.00  0.00    +0.032 C 
ATOM      8  C   UNL     1       0.194   1.973  -0.535  0.00  0.00    +0.012 C 
ATOM      9  C   UNL     1       0.102   2.027   1.002  0.00  0.00    +0.022 C 
ATOM     11  C   UNL     1       1.393   2.516   1.626  0.00  0.00    -0.073 C 
ATOM     12  C   UNL     1       2.553   2.534   0.946  0.00  0.00    -0.022 C 
ATOM     17  C   UNL     1       1.312   3.026   3.038  0.00  0.00    +0.039 C 
ENDROOT
BRANCH   6  10
ATOM     10  C   UNL     1       1.491   1.217  -2.546  0.00  0.00    -0.013 C 
ATOM     15  C   UNL     1       0.668   0.022  -3.018  0.00  0.00    +0.007 C 
ATOM     16  C   UNL     1       0.959   2.513  -3.149  0.00  0.00    +0.007 C 
ENDBRANCH   6  10
BRANCH   7  13
ATOM     13  C   UNL     1       3.989   1.193  -0.576  0.00  0.00    +0.112 C 
BRANCH  13   2
ATOM      1  O   UNL     1       4.084  -1.597  -1.335  0.00  0.00    -0.274 OA
ATOM      2  N   UNL     1       3.896   0.057   0.287  0.00  0.00    -0.314 N 
ATOM     19  C   UNL     1       3.951  -1.264  -0.159  0.00  0.00    +0.227 C 
ATOM     30  H   UNL     1       3.847   0.226   1.288  0.00  0.00    +0.149 HD
BRANCH  19  22
ATOM     22  C   UNL     1       3.797  -2.263   0.970  0.00  0.00    +0.180 C 
BRANCH  22   5
ATOM      5  N   UNL     1       3.164  -3.466   0.448  0.00  0.00    -0.300 NA
ATOM     28  C   UNL     1       1.715  -3.280   0.334  0.00  0.00    +0.105 C 
ATOM     29  C   UNL     1       3.461  -4.619   1.300  0.00  0.00    +0.105 C 
ENDBRANCH  22   5
ENDBRANCH  19  22
ENDBRANCH  13   2
ENDBRANCH   7  13
BRANCH   9  14
ATOM     14  C   UNL     1      -0.307   0.667   1.579  0.00  0.00    +0.082 C 
BRANCH  14  18
ATOM      3  N   UNL     1      -2.801   0.716   1.392  0.00  0.00    -0.342 N 
ATOM      4  N   UNL     1      -1.757  -0.739   0.075  0.00  0.00    -0.232 NA
ATOM     18  C   UNL     1      -1.604   0.189   0.993  0.00  0.00    +0.109 A 
ATOM     20  C   UNL     1      -3.792   0.085   0.685  0.00  0.00    +0.066 A 
ATOM     21  C   UNL     1      -3.115  -0.818  -0.130  0.00  0.00    +0.089 A 
ATOM     23  C   UNL     1      -5.181   0.223   0.688  0.00  0.00    +0.031 A 
ATOM     24  C   UNL     1      -3.852  -1.640  -1.000  0.00  0.00    +0.030 A 
ATOM     25  C   UNL     1      -5.897  -0.603  -0.184  0.00  0.00    -0.048 A 
ATOM     26  C   UNL     1      -5.247  -1.519  -1.013  0.00  0.00    +0.005 A 
ATOM     27  C   UNL     1      -7.387  -0.502  -0.227  0.00  0.00    +0.044 C 
ATOM     31  H   UNL     1      -2.934   1.441   2.084  0.00  0.00    +0.167 HD
ENDBRANCH  14  18
ENDBRANCH   9  14
TORSDOF 7
