REMARK  Name = 40781520
REMARK  8 active torsions:
REMARK  status: ('A' for Active; 'I' for Inactive)
REMARK    1  A    between atoms: S_1  and  N_9
REMARK    2  A    between atoms: S_1  and  C_21
REMARK    3  A    between atoms: O_3  and  C_11
REMARK    4  A    between atoms: O_4  and  C_12
REMARK    5  A    between atoms: N_9  and  C_15
REMARK    6  A    between atoms: C_10  and  C_14
REMARK    7  A    between atoms: C_13  and  C_15
REMARK    8  A    between atoms: C_14  and  C_16
REMARK                            x       y       z     vdW  Elec       q    Type
REMARK                         _______ _______ _______ _____ _____    ______ ____
ROOT
ATOM      2  O   UNL     1       0.802   0.803  -0.845  0.00  0.00    -0.366 OA
ATOM     10  C   UNL     1      -0.103   1.621  -0.084  0.00  0.00    +0.158 C 
ATOM     11  C   UNL     1       0.750   2.309   0.968  0.00  0.00    +0.175 C 
ATOM     12  C   UNL     1       2.041   2.539   0.209  0.00  0.00    +0.175 C 
ATOM     13  C   UNL     1       2.154   1.263  -0.618  0.00  0.00    +0.165 C 
ENDROOT
BRANCH  11   3
ATOM      3  O   UNL     1       0.157   3.501   1.435  0.00  0.00    -0.387 OA
ATOM     22  H   UNL     1       0.804   3.943   2.011  0.00  0.00    +0.210 HD
ENDBRANCH  11   3
BRANCH  12   4
ATOM      4  O   UNL     1       1.897   3.638  -0.691  0.00  0.00    -0.387 OA
ATOM     23  H   UNL     1       2.733   3.724  -1.180  0.00  0.00    +0.210 HD
ENDBRANCH  12   4
BRANCH  10  14
ATOM     14  C   UNL     1      -1.203   0.755   0.505  0.00  0.00    +0.130 C 
BRANCH  14  16
ATOM      5  O   UNL     1      -2.120   0.869  -1.690  0.00  0.00    -0.276 OA
ATOM      8  N   UNL     1      -3.271  -0.388  -0.129  0.00  0.00    -0.301 N 
ATOM     16  C   UNL     1      -2.231   0.423  -0.547  0.00  0.00    +0.218 C 
ATOM     17  C   UNL     1      -4.346  -0.793  -1.022  0.00  0.00    +0.108 C 
ATOM     18  C   UNL     1      -3.458  -0.949   1.205  0.00  0.00    +0.108 C 
ATOM     19  C   UNL     1      -5.062  -1.907  -0.274  0.00  0.00    +0.020 C 
ATOM     20  C   UNL     1      -4.872  -1.511   1.185  0.00  0.00    +0.020 C 
ENDBRANCH  14  16
ENDBRANCH  10  14
BRANCH  13  15
ATOM     15  C   UNL     1       2.909   0.152   0.100  0.00  0.00    +0.139 C 
BRANCH  15   9
ATOM      9  N   UNL     1       2.988  -1.028  -0.709  0.00  0.00    -0.192 NA
ATOM     24  H   UNL     1       3.536  -0.913  -1.572  0.00  0.00    +0.148 HD
BRANCH   9   1
ATOM      1  S   UNL     1       3.086  -2.588   0.026  0.00  0.00    +0.027 S 
ATOM      6  O   UNL     1       3.431  -3.566  -0.986  0.00  0.00    -0.158 OA
ATOM      7  O   UNL     1       1.942  -2.791   0.895  0.00  0.00    -0.158 OA
ATOM     21  C   UNL     1       4.508  -2.353   1.068  0.00  0.00    +0.214 C 
ENDBRANCH   9   1
ENDBRANCH  15   9
ENDBRANCH  13  15
TORSDOF 7
