REMARK  Name = 45784171
REMARK  5 active torsions:
REMARK  status: ('A' for Active; 'I' for Inactive)
REMARK    1  A    between atoms: O_3  and  C_25
REMARK    2  A    between atoms: N_5  and  C_11
REMARK    3  A    between atoms: C_7  and  C_12
REMARK    4  A    between atoms: C_11  and  C_13
REMARK    5  A    between atoms: C_22  and  C_25
REMARK                            x       y       z     vdW  Elec       q    Type
REMARK                         _______ _______ _______ _____ _____    ______ ____
ROOT
ATOM      5  N   UNL     1      -0.964  -0.252  -0.255  0.00  0.00    -0.297 NA
ATOM      7  C   UNL     1       1.199  -0.883   0.395  0.00  0.00    +0.090 C 
ATOM      8  C   UNL     1       0.472  -0.234   1.586  0.00  0.00    +0.029 C 
ATOM      9  C   UNL     1       0.361  -0.494  -0.830  0.00  0.00    +0.097 C 
ATOM     10  C   UNL     1      -0.710   0.503   0.972  0.00  0.00    +0.085 C 
ENDROOT
BRANCH   7  12
ATOM      1 CL   UNL     1       8.276   1.761  -0.371  0.00  0.00    -0.083 Cl
ATOM      2  O   UNL     1       3.546  -1.533   0.314  0.00  0.00    -0.439 OA
ATOM      6  N   UNL     1       3.177   0.692   0.088  0.00  0.00    -0.213 NA
ATOM     12  C   UNL     1       2.655  -0.504   0.257  0.00  0.00    +0.201 A 
ATOM     14  C   UNL     1       4.527   0.442   0.027  0.00  0.00    +0.111 A 
ATOM     15  C   UNL     1       4.756  -0.919   0.164  0.00  0.00    +0.155 A 
ATOM     18  C   UNL     1       5.622   1.301  -0.142  0.00  0.00    +0.051 A 
ATOM     19  C   UNL     1       6.011  -1.515   0.148  0.00  0.00    +0.050 A 
ATOM     23  C   UNL     1       6.905   0.736  -0.164  0.00  0.00    +0.043 A 
ATOM     24  C   UNL     1       7.093  -0.645  -0.022  0.00  0.00    +0.024 A 
ENDBRANCH   7  12
BRANCH   5  11
ATOM     11  C   UNL     1      -1.846   0.457  -1.170  0.00  0.00    +0.119 C 
BRANCH  11  13
ATOM     13  C   UNL     1      -3.292   0.321  -0.774  0.00  0.00    -0.033 A 
ATOM     16  C   UNL     1      -3.975  -0.869  -1.029  0.00  0.00    +0.006 A 
ATOM     17  C   UNL     1      -3.949   1.383  -0.152  0.00  0.00    +0.006 A 
ATOM     20  C   UNL     1      -5.315  -0.995  -0.662  0.00  0.00    +0.015 A 
ATOM     21  C   UNL     1      -5.288   1.256   0.214  0.00  0.00    +0.015 A 
ATOM     22  C   UNL     1      -5.972   0.067  -0.041  0.00  0.00    +0.059 A 
BRANCH  22  25
ATOM      4  O   UNL     1      -8.068  -1.069   0.166  0.00  0.00    -0.245 OA
ATOM     25  C   UNL     1      -7.368  -0.065   0.343  0.00  0.00    +0.337 C 
BRANCH  25   3
ATOM      3  O   UNL     1      -7.854   1.060   0.936  0.00  0.00    -0.477 OA
ATOM     26  H   UNL     1      -8.796   0.960   1.190  0.00  0.00    +0.295 HD
ENDBRANCH  25   3
ENDBRANCH  22  25
ENDBRANCH  11  13
ENDBRANCH   5  11
TORSDOF 5
