REMARK  Name = 51137959
REMARK  7 active torsions:
REMARK  status: ('A' for Active; 'I' for Inactive)
REMARK    1  A    between atoms: N_5  and  C_22
REMARK    2  A    between atoms: C_6  and  C_8
REMARK    3  A    between atoms: C_7  and  C_17
REMARK    4  A    between atoms: C_8  and  C_13
REMARK    5  A    between atoms: C_13  and  C_18
REMARK    6  A    between atoms: C_13  and  C_19
REMARK    7  A    between atoms: C_22  and  C_23
REMARK                            x       y       z     vdW  Elec       q    Type
REMARK                         _______ _______ _______ _____ _____    ______ ____
ROOT
ATOM      3  N   UNL     1       0.219  -0.271  -0.728  0.00  0.00    -0.299 NA
ATOM      4  N   UNL     1       4.650   2.039  -0.001  0.00  0.00    -0.360 N 
ATOM      6  C   UNL     1       1.015  -1.189   0.097  0.00  0.00    +0.085 C 
ATOM      7  C   UNL     1       0.049   1.061  -0.166  0.00  0.00    +0.145 C 
ATOM      9  C   UNL     1       2.481  -0.798   0.309  0.00  0.00    -0.021 A 
ATOM     10  C   UNL     1       3.027   0.497   0.074  0.00  0.00    +0.008 A 
ATOM     11  C   UNL     1       1.062   2.047  -0.745  0.00  0.00    +0.065 C 
ATOM     12  C   UNL     1       2.477   1.748  -0.374  0.00  0.00    -0.020 A 
ATOM     14  C   UNL     1       4.385   0.728   0.320  0.00  0.00    +0.047 A 
ATOM     15  C   UNL     1       3.369  -1.761   0.853  0.00  0.00    +0.006 A 
ATOM     16  C   UNL     1       3.510   2.662  -0.414  0.00  0.00    +0.087 A 
ATOM     20  C   UNL     1       5.254  -0.247   0.812  0.00  0.00    +0.026 A 
ATOM     21  C   UNL     1       4.717  -1.498   1.088  0.00  0.00    +0.002 A 
ATOM     27  H   UNL     1       0.584  -0.226  -1.679  0.00  0.00    +0.123 HD
ATOM     28  H   UNL     1       5.557   2.479   0.076  0.00  0.00    +0.165 HD
ENDROOT
BRANCH   7  17
ATOM      1  O   UNL     1      -1.661   1.586  -1.746  0.00  0.00    -0.274 OA
ATOM      5  N   UNL     1      -2.135   1.754   0.527  0.00  0.00    -0.307 N 
ATOM     17  C   UNL     1      -1.331   1.484  -0.567  0.00  0.00    +0.231 C 
ATOM     29  H   UNL     1      -1.770   1.621   1.466  0.00  0.00    +0.149 HD
BRANCH   5  22
ATOM     22  C   UNL     1      -3.504   2.201   0.412  0.00  0.00    +0.178 C 
BRANCH  22  23
ATOM      2  O   UNL     1      -4.458   0.265   1.529  0.00  0.00    -0.466 OA
ATOM     23  C   UNL     1      -4.473   1.054   0.423  0.00  0.00    +0.122 A 
ATOM     24  C   UNL     1      -5.412   0.608  -0.477  0.00  0.00    +0.046 A 
ATOM     25  C   UNL     1      -6.013  -0.529   0.114  0.00  0.00    +0.041 A 
ATOM     26  C   UNL     1      -5.399  -0.696   1.333  0.00  0.00    +0.195 A 
ENDBRANCH  22  23
ENDBRANCH   5  22
ENDBRANCH   7  17
BRANCH   6   8
ATOM      8  C   UNL     1       0.863  -2.559  -0.587  0.00  0.00    +0.026 C 
BRANCH   8  13
ATOM     13  C   UNL     1      -0.492  -3.219  -0.309  0.00  0.00    -0.015 C 
ATOM     18  C   UNL     1      -0.530  -4.594  -0.980  0.00  0.00    +0.007 C 
ATOM     19  C   UNL     1      -1.670  -2.374  -0.797  0.00  0.00    +0.007 C 
ENDBRANCH   8  13
ENDBRANCH   6   8
TORSDOF 5
