REMARK  Name = 26744515
REMARK  6 active torsions:
REMARK  status: ('A' for Active; 'I' for Inactive)
REMARK    1  A    between atoms: O_4  and  C_12
REMARK    2  A    between atoms: O_6  and  C_22
REMARK    3  A    between atoms: O_6  and  C_23
REMARK    4  A    between atoms: N_7  and  C_15
REMARK    5  A    between atoms: C_10  and  C_14
REMARK    6  A    between atoms: C_16  and  C_17
REMARK                            x       y       z     vdW  Elec       q    Type
REMARK                         _______ _______ _______ _____ _____    ______ ____
ROOT
ATOM      5  O   UNL     1       2.317  -2.072   0.806  0.00  0.00    -0.336 OA
ATOM      8  N   UNL     1       1.446  -0.177  -0.010  0.00  0.00    -0.190 NA
ATOM      9  N   UNL     1       0.932  -2.273   0.748  0.00  0.00    -0.056 NA
ATOM     14  C   UNL     1       2.534  -0.814   0.342  0.00  0.00    +0.245 A 
ATOM     16  C   UNL     1       0.489  -1.112   0.257  0.00  0.00    +0.202 A 
ENDROOT
BRANCH  14  10
ATOM      7  N   UNL     1       4.402   0.062  -1.051  0.00  0.00    -0.292 NA
ATOM     10  C   UNL     1       3.974  -0.349   0.302  0.00  0.00    +0.148 C 
ATOM     11  C   UNL     1       4.226   0.887   1.187  0.00  0.00    +0.061 C 
ATOM     12  C   UNL     1       4.838   1.923   0.252  0.00  0.00    +0.130 C 
ATOM     13  C   UNL     1       5.428   1.087  -0.867  0.00  0.00    +0.116 C 
ATOM     15  C   UNL     1       4.877  -1.050  -1.865  0.00  0.00    +0.105 C 
BRANCH  12   4
ATOM      4  O   UNL     1       5.828   2.680   0.920  0.00  0.00    -0.390 OA
ATOM     24  H   UNL     1       5.397   3.129   1.668  0.00  0.00    +0.210 HD
ENDBRANCH  12   4
ENDBRANCH  14  10
BRANCH  16  17
ATOM     17  C   UNL     1      -0.903  -0.854   0.023  0.00  0.00    +0.023 A 
ATOM     18  C   UNL     1      -1.307   0.378  -0.491  0.00  0.00    +0.015 A 
ATOM     19  C   UNL     1      -1.851  -1.836   0.310  0.00  0.00    +0.015 A 
ATOM     20  C   UNL     1      -2.660   0.629  -0.717  0.00  0.00    +0.046 A 
ATOM     21  C   UNL     1      -3.205  -1.585   0.084  0.00  0.00    +0.046 A 
ATOM     22  C   UNL     1      -3.609  -0.353  -0.429  0.00  0.00    +0.130 A 
BRANCH  22   6
ATOM      6  O   UNL     1      -4.930  -0.109  -0.650  0.00  0.00    -0.406 OA
BRANCH   6  23
ATOM      1  F   UNL     1      -6.839   0.673   0.267  0.00  0.00    -0.133 F 
ATOM      2  F   UNL     1      -4.948   1.183   1.237  0.00  0.00    -0.133 F 
ATOM      3  F   UNL     1      -5.498   2.107  -0.694  0.00  0.00    -0.133 F 
ATOM     23  C   UNL     1      -5.540   0.975   0.041  0.00  0.00    +0.575 C 
ENDBRANCH   6  23
ENDBRANCH  22   6
ENDBRANCH  16  17
TORSDOF 5
