REMARK  Name = 38030393
REMARK  11 active torsions:
REMARK  status: ('A' for Active; 'I' for Inactive)
REMARK    1  A    between atoms: O_1  and  C_24
REMARK    2  A    between atoms: N_3  and  C_11
REMARK    3  A    between atoms: C_7  and  C_12
REMARK    4  A    between atoms: C_8  and  C_11
REMARK    5  A    between atoms: C_10  and  C_20
REMARK    6  A    between atoms: C_12  and  C_21
REMARK    7  A    between atoms: C_12  and  C_22
REMARK    8  A    between atoms: C_14  and  C_23
REMARK    9  A    between atoms: C_17  and  C_24
REMARK   10  A    between atoms: C_20  and  C_25
REMARK   11  A    between atoms: C_26  and  C_27
REMARK                            x       y       z     vdW  Elec       q    Type
REMARK                         _______ _______ _______ _____ _____    ______ ____
ROOT
ATOM      7  C   UNL     1      -1.303  -0.682  -0.822  0.00  0.00    +0.000 C 
ATOM      8  C   UNL     1      -2.261  -1.808  -0.368  0.00  0.00    +0.029 C 
ATOM      9  C   UNL     1      -0.141  -0.533   0.169  0.00  0.00    +0.012 C 
ATOM     10  C   UNL     1       0.660  -1.837   0.373  0.00  0.00    +0.024 C 
ATOM     13  C   UNL     1      -1.527  -3.039   0.098  0.00  0.00    -0.023 C 
ATOM     14  C   UNL     1      -0.222  -3.075   0.422  0.00  0.00    -0.073 C 
ATOM     23  C   UNL     1       0.431  -4.378   0.793  0.00  0.00    +0.039 C 
ENDROOT
BRANCH   7  12
ATOM     12  C   UNL     1      -0.790  -0.925  -2.248  0.00  0.00    -0.013 C 
ATOM     21  C   UNL     1       0.453  -0.082  -2.516  0.00  0.00    +0.007 C 
ATOM     22  C   UNL     1      -1.882  -0.617  -3.267  0.00  0.00    +0.007 C 
ENDBRANCH   7  12
BRANCH   8  11
ATOM     11  C   UNL     1      -3.207  -1.334   0.741  0.00  0.00    +0.092 C 
BRANCH  11   3
ATOM      3  N   UNL     1      -3.955  -0.152   0.312  0.00  0.00    -0.302 NA
ATOM     15  C   UNL     1      -4.494   0.564   1.476  0.00  0.00    +0.085 C 
ATOM     16  C   UNL     1      -5.025  -0.531  -0.620  0.00  0.00    +0.085 C 
ATOM     17  C   UNL     1      -6.350   1.516   0.046  0.00  0.00    +0.017 C 
ATOM     18  C   UNL     1      -5.234   1.833   1.048  0.00  0.00    +0.021 C 
ATOM     19  C   UNL     1      -5.783   0.700  -1.120  0.00  0.00    +0.021 C 
BRANCH  17  24
ATOM     24  C   UNL     1      -7.018   2.795  -0.453  0.00  0.00    +0.159 C 
BRANCH  24   1
ATOM      1  O   UNL     1      -7.580   3.471   0.657  0.00  0.00    -0.395 OA
ATOM     32  H   UNL     1      -8.002   4.279   0.317  0.00  0.00    +0.209 HD
ENDBRANCH  24   1
ENDBRANCH  17  24
ENDBRANCH  11   3
ENDBRANCH   8  11
BRANCH  10  20
ATOM     20  C   UNL     1       1.540  -1.681   1.620  0.00  0.00    +0.105 C 
BRANCH  20  25
ATOM      2  O   UNL     1       3.489  -0.517   0.723  0.00  0.00    -0.420 OA
ATOM      4  N   UNL     1       2.261   0.707   2.137  0.00  0.00    -0.112 NA
ATOM      5  N   UNL     1       3.322   1.483   1.711  0.00  0.00    -0.107 NA
ATOM     25  C   UNL     1       2.398  -0.452   1.536  0.00  0.00    +0.218 A 
ATOM     26  C   UNL     1       4.012   0.729   0.887  0.00  0.00    +0.250 A 
BRANCH  26  27
ATOM      6  N   UNL     1       6.958   2.574  -0.431  0.00  0.00    -0.263 NA
ATOM     27  C   UNL     1       5.208   1.009   0.148  0.00  0.00    +0.057 A 
ATOM     28  C   UNL     1       5.781   0.050  -0.680  0.00  0.00    +0.016 A 
ATOM     29  C   UNL     1       5.830   2.244   0.237  0.00  0.00    +0.124 A 
ATOM     30  C   UNL     1       6.942   0.352  -1.384  0.00  0.00    +0.020 A 
ATOM     31  C   UNL     1       7.486   1.616  -1.226  0.00  0.00    +0.111 A 
ENDBRANCH  26  27
ENDBRANCH  20  25
ENDBRANCH  10  20
TORSDOF 8
