REMARK  Name = 45783798
REMARK  7 active torsions:
REMARK  status: ('A' for Active; 'I' for Inactive)
REMARK    1  A    between atoms: N_3  and  C_12
REMARK    2  A    between atoms: N_7  and  C_25
REMARK    3  A    between atoms: N_7  and  C_26
REMARK    4  A    between atoms: N_7  and  C_27
REMARK    5  A    between atoms: C_8  and  C_13
REMARK    6  A    between atoms: C_12  and  C_14
REMARK    7  A    between atoms: C_17  and  C_18
REMARK                            x       y       z     vdW  Elec       q    Type
REMARK                         _______ _______ _______ _____ _____    ______ ____
ROOT
ATOM      2  O   UNL     1       0.289  -3.127   1.123  0.00  0.00    -0.336 OA
ATOM      4  N   UNL     1       0.306  -1.284  -0.151  0.00  0.00    -0.190 NA
ATOM      5  N   UNL     1       1.590  -2.611   1.200  0.00  0.00    -0.056 NA
ATOM     13  C   UNL     1      -0.401  -2.286   0.308  0.00  0.00    +0.245 A 
ATOM     17  C   UNL     1       1.520  -1.526   0.423  0.00  0.00    +0.204 A 
ENDROOT
BRANCH  17  18
ATOM      6  N   UNL     1       4.969  -0.151   0.619  0.00  0.00    -0.240 NA
ATOM     18  C   UNL     1       2.644  -0.664   0.199  0.00  0.00    +0.041 A 
ATOM     22  C   UNL     1       2.537   0.456  -0.617  0.00  0.00    +0.016 A 
ATOM     23  C   UNL     1       3.872  -0.922   0.788  0.00  0.00    +0.124 A 
ATOM     24  C   UNL     1       3.644   1.274  -0.816  0.00  0.00    +0.044 A 
ATOM     25  C   UNL     1       4.826   0.929  -0.181  0.00  0.00    +0.121 A 
BRANCH  25   7
ATOM      7  N   UNL     1       5.946   1.771  -0.395  0.00  0.00    -0.321 N 
ATOM     26  C   UNL     1       7.210   1.476   0.243  0.00  0.00    +0.130 C 
ATOM     27  C   UNL     1       5.829   2.935  -1.245  0.00  0.00    +0.130 C 
ENDBRANCH  25   7
ENDBRANCH  17  18
BRANCH  13   8
ATOM      3  N   UNL     1      -2.674  -1.439  -0.247  0.00  0.00    -0.287 NA
ATOM      8  C   UNL     1      -1.855  -2.629   0.061  0.00  0.00    +0.146 C 
ATOM      9  C   UNL     1      -2.049  -3.562  -1.148  0.00  0.00    +0.030 C 
ATOM     10  C   UNL     1      -3.038  -2.840  -2.052  0.00  0.00    +0.017 C 
ATOM     11  C   UNL     1      -3.762  -1.899  -1.111  0.00  0.00    +0.085 C 
BRANCH   3  12
ATOM     12  C   UNL     1      -3.168  -0.758   0.942  0.00  0.00    +0.120 C 
BRANCH  12  14
ATOM      1 CL   UNL     1      -4.723   4.936  -0.226  0.00  0.00    -0.084 Cl
ATOM     14  C   UNL     1      -3.558   0.667   0.650  0.00  0.00    -0.033 A 
ATOM     15  C   UNL     1      -2.615   1.687   0.776  0.00  0.00    +0.006 A 
ATOM     16  C   UNL     1      -4.862   0.967   0.255  0.00  0.00    +0.006 A 
ATOM     19  C   UNL     1      -2.976   3.007   0.506  0.00  0.00    +0.020 A 
ATOM     20  C   UNL     1      -5.222   2.287  -0.015  0.00  0.00    +0.020 A 
ATOM     21  C   UNL     1      -4.279   3.307   0.111  0.00  0.00    +0.041 A 
ENDBRANCH  12  14
ENDBRANCH   3  12
ENDBRANCH  13   8
TORSDOF 5
