REMARK  Name = 7144017
REMARK  7 active torsions:
REMARK  status: ('A' for Active; 'I' for Inactive)
REMARK    1  A    between atoms: S_1  and  C_29
REMARK    2  A    between atoms: S_1  and  C_31
REMARK    3  A    between atoms: O_3  and  C_26
REMARK    4  A    between atoms: O_3  and  C_30
REMARK    5  A    between atoms: N_4  and  C_13
REMARK    6  A    between atoms: C_13  and  C_18
REMARK    7  A    between atoms: C_16  and  C_19
REMARK                            x       y       z     vdW  Elec       q    Type
REMARK                         _______ _______ _______ _____ _____    ______ ____
ROOT
ATOM      2  O   UNL     1      -2.284   1.897  -1.275  0.00  0.00    -0.267 OA
ATOM      4  N   UNL     1       2.699   1.623  -0.776  0.00  0.00    -0.297 NA
ATOM      5  N   UNL     1      -0.344   2.203  -0.017  0.00  0.00    -0.311 N 
ATOM      6  C   UNL     1       1.511   3.830  -0.707  0.00  0.00    +0.024 C 
ATOM      7  C   UNL     1       1.745   2.523   1.351  0.00  0.00    +0.050 C 
ATOM      8  C   UNL     1       1.766   3.943   0.790  0.00  0.00    +0.017 C 
ATOM      9  C   UNL     1       2.606   2.964  -1.366  0.00  0.00    +0.090 C 
ATOM     10  C   UNL     1       2.862   1.688   0.684  0.00  0.00    +0.094 C 
ATOM     11  C   UNL     1       0.101   3.267  -0.928  0.00  0.00    +0.130 C 
ATOM     12  C   UNL     1       0.392   1.875   1.124  0.00  0.00    +0.026 A 
ATOM     14  C   UNL     1      -0.089   0.979   2.002  0.00  0.00    +0.022 A 
ATOM     15  C   UNL     1      -1.591   1.609  -0.297  0.00  0.00    +0.259 A 
ATOM     16  C   UNL     1      -2.087   0.584   0.686  0.00  0.00    +0.047 A 
ATOM     17  C   UNL     1      -1.344   0.323   1.772  0.00  0.00    +0.015 A 
ENDROOT
BRANCH  16  19
ATOM     19  C   UNL     1      -3.357  -0.131   0.469  0.00  0.00    -0.013 A 
ATOM     22  C   UNL     1      -4.548   0.390   0.976  0.00  0.00    +0.010 A 
ATOM     23  C   UNL     1      -3.370  -1.331  -0.244  0.00  0.00    +0.010 A 
ATOM     27  C   UNL     1      -5.750  -0.287   0.770  0.00  0.00    +0.015 A 
ATOM     28  C   UNL     1      -4.572  -2.008  -0.450  0.00  0.00    +0.015 A 
ATOM     29  C   UNL     1      -5.762  -1.486   0.057  0.00  0.00    +0.008 A 
BRANCH  29   1
ATOM      1  S   UNL     1      -7.297  -2.352  -0.204  0.00  0.00    -0.129 S 
ATOM     31  C   UNL     1      -7.400  -2.384  -2.016  0.00  0.00    +0.090 C 
ENDBRANCH  29   1
ENDBRANCH  16  19
BRANCH   4  13
ATOM     13  C   UNL     1       3.779   0.855  -1.390  0.00  0.00    +0.119 C 
BRANCH  13  18
ATOM     18  C   UNL     1       3.822  -0.560  -0.877  0.00  0.00    -0.033 A 
ATOM     20  C   UNL     1       2.643  -1.283  -0.766  0.00  0.00    +0.008 A 
ATOM     21  C   UNL     1       5.041  -1.120  -0.521  0.00  0.00    +0.008 A 
ATOM     24  C   UNL     1       2.684  -2.594  -0.290  0.00  0.00    +0.046 A 
ATOM     25  C   UNL     1       5.081  -2.431  -0.045  0.00  0.00    +0.046 A 
ATOM     26  C   UNL     1       3.903  -3.168   0.071  0.00  0.00    +0.120 A 
BRANCH  26   3
ATOM      3  O   UNL     1       3.941  -4.447   0.534  0.00  0.00    -0.495 OA
ATOM     30  C   UNL     1       5.221  -4.972   0.885  0.00  0.00    +0.277 C 
ENDBRANCH  26   3
ENDBRANCH  13  18
ENDBRANCH   4  13
TORSDOF 5
