REMARK  Name = 7134477
REMARK  11 active torsions:
REMARK  status: ('A' for Active; 'I' for Inactive)
REMARK    1  A    between atoms: O_4  and  C_15
REMARK    2  A    between atoms: O_5  and  C_18
REMARK    3  A    between atoms: O_6  and  C_20
REMARK    4  A    between atoms: O_10  and  C_31
REMARK    5  A    between atoms: O_10  and  C_32
REMARK    6  A    between atoms: N_11  and  C_16
REMARK    7  A    between atoms: N_12  and  C_23
REMARK    8  A    between atoms: N_13  and  C_26
REMARK    9  A    between atoms: C_15  and  C_21
REMARK   10  A    between atoms: C_23  and  C_24
REMARK   11  A    between atoms: C_23  and  C_25
REMARK                            x       y       z     vdW  Elec       q    Type
REMARK                         _______ _______ _______ _____ _____    ______ ____
ROOT
ATOM     15  C   UNL     1      -3.774  -0.855   0.932  0.00  0.00    +0.146 C 
ATOM     16  C   UNL     1      -1.548  -1.599  -0.043  0.00  0.00    +0.109 C 
ATOM     17  C   UNL     1      -2.426  -0.410   0.361  0.00  0.00    +0.069 C 
ATOM     18  C   UNL     1      -2.283  -2.555  -0.992  0.00  0.00    +0.163 C 
ATOM     19  C   UNL     1      -4.503  -1.790  -0.031  0.00  0.00    +0.078 C 
ATOM     20  C   UNL     1      -3.641  -2.987  -0.434  0.00  0.00    +0.148 C 
ENDROOT
BRANCH  16  11
ATOM      8  O   UNL     1       0.877  -0.909   1.314  0.00  0.00    -0.252 OA
ATOM     11  N   UNL     1      -0.325  -1.120  -0.648  0.00  0.00    -0.294 N 
ATOM     13  N   UNL     1       1.839  -0.371  -0.759  0.00  0.00    -0.269 N 
ATOM     22  C   UNL     1       0.818  -0.805   0.091  0.00  0.00    +0.304 C 
ATOM     33  H   UNL     1      -0.321  -0.935  -1.647  0.00  0.00    +0.151 HD
ATOM     38  H   UNL     1       1.625  -0.344  -1.752  0.00  0.00    +0.156 HD
BRANCH  13  26
ATOM     26  C   UNL     1       3.146   0.040  -0.407  0.00  0.00    +0.035 A 
ATOM     27  C   UNL     1       4.039   0.447  -1.397  0.00  0.00    +0.027 A 
ATOM     28  C   UNL     1       3.540   0.039   0.931  0.00  0.00    +0.027 A 
ATOM     29  C   UNL     1       5.328   0.853  -1.050  0.00  0.00    +0.048 A 
ATOM     30  C   UNL     1       4.829   0.445   1.278  0.00  0.00    +0.048 A 
ATOM     31  C   UNL     1       5.723   0.852   0.288  0.00  0.00    +0.130 A 
BRANCH  31  10
ATOM     10  O   UNL     1       6.979   1.250   0.627  0.00  0.00    -0.406 OA
BRANCH  10  32
ATOM      1  F   UNL     1       9.100   0.561   0.977  0.00  0.00    -0.133 F 
ATOM      2  F   UNL     1       7.760  -0.761  -0.134  0.00  0.00    -0.133 F 
ATOM      3  F   UNL     1       8.517   1.098  -1.060  0.00  0.00    -0.133 F 
ATOM     32  C   UNL     1       8.082   0.532   0.086  0.00  0.00    +0.575 C 
ENDBRANCH  10  32
ENDBRANCH  31  10
ENDBRANCH  13  26
ENDBRANCH  16  11
BRANCH  15  21
ATOM      7  O   UNL     1      -5.052   0.546   2.384  0.00  0.00    -0.273 OA
ATOM     12  N   UNL     1      -4.892   1.106   0.130  0.00  0.00    -0.302 N 
ATOM     21  C   UNL     1      -4.633   0.334   1.249  0.00  0.00    +0.245 C 
ATOM     37  H   UNL     1      -4.530   0.825  -0.775  0.00  0.00    +0.150 HD
BRANCH  12  23
ATOM     23  C   UNL     1      -5.713   2.295   0.163  0.00  0.00    +0.156 C 
ATOM     24  C   UNL     1      -7.171   1.960  -0.110  0.00  0.00    +0.038 C 
BRANCH  23  25
ATOM      9  O   UNL     1      -4.674   2.930  -1.939  0.00  0.00    -0.274 OA
ATOM     14  N   UNL     1      -5.351   4.590  -0.502  0.00  0.00    -0.328 N 
ATOM     25  C   UNL     1      -5.176   3.273  -0.871  0.00  0.00    +0.231 C 
ATOM     39  H   UNL     1      -5.048   5.345  -1.109  0.00  0.00    +0.145 HD
ATOM     40  H   UNL     1      -5.786   4.858   0.375  0.00  0.00    +0.145 HD
ENDBRANCH  23  25
ENDBRANCH  12  23
ENDBRANCH  15  21
BRANCH  15   4
ATOM      4  O   UNL     1      -3.591  -1.520   2.177  0.00  0.00    -0.379 OA
ATOM     34  H   UNL     1      -4.449  -1.877   2.464  0.00  0.00    +0.211 HD
ENDBRANCH  15   4
BRANCH  18   5
ATOM      5  O   UNL     1      -1.493  -3.735  -1.169  0.00  0.00    -0.387 OA
ATOM     35  H   UNL     1      -1.357  -4.141  -0.296  0.00  0.00    +0.210 HD
ENDBRANCH  18   5
BRANCH  20   6
ATOM      6  O   UNL     1      -4.328  -3.731  -1.442  0.00  0.00    -0.389 OA
ATOM     36  H   UNL     1      -5.182  -4.008  -1.069  0.00  0.00    +0.210 HD
ENDBRANCH  20   6
TORSDOF 10
