REMARK  Name = 11939798
REMARK  8 active torsions:
REMARK  status: ('A' for Active; 'I' for Inactive)
REMARK    1  A    between atoms: N_4  and  C_12
REMARK    2  A    between atoms: N_5  and  C_13
REMARK    3  A    between atoms: N_8  and  C_26
REMARK    4  A    between atoms: N_8  and  C_30
REMARK    5  A    between atoms: N_8  and  C_31
REMARK    6  A    between atoms: C_16  and  C_18
REMARK    7  A    between atoms: C_21  and  C_27
REMARK    8  A    between atoms: C_32  and  C_35
REMARK                            x       y       z     vdW  Elec       q    Type
REMARK                         _______ _______ _______ _____ _____    ______ ____
ROOT
ATOM      1  O   UNL     1       0.399   1.559   1.799  0.00  0.00    -0.370 OA
ATOM      2  O   UNL     1       0.172   4.302   0.371  0.00  0.00    -0.370 OA
ATOM     10  C   UNL     1      -0.407   3.013   0.102  0.00  0.00    +0.171 C 
ATOM     11  C   UNL     1       0.641   1.972   0.442  0.00  0.00    +0.171 C 
ATOM     12  C   UNL     1      -1.537   2.732   1.068  0.00  0.00    +0.130 C 
ATOM     13  C   UNL     1       1.948   2.723   0.351  0.00  0.00    +0.130 C 
ATOM     14  C   UNL     1      -0.786   2.209   2.283  0.00  0.00    +0.185 C 
ATOM     15  C   UNL     1       1.548   4.134   0.742  0.00  0.00    +0.185 C 
ENDROOT
BRANCH  13   5
ATOM      5  N   UNL     1       2.440   2.699  -1.009  0.00  0.00    -0.306 N 
ATOM      6  N   UNL     1       3.487   0.621  -0.712  0.00  0.00    -0.214 NA
ATOM      7  N   UNL     1       3.592   1.768  -2.828  0.00  0.00    -0.223 NA
ATOM     17  C   UNL     1       3.196   1.665  -1.532  0.00  0.00    +0.216 A 
ATOM     21  C   UNL     1       4.226  -0.370  -1.254  0.00  0.00    +0.076 A 
ATOM     22  C   UNL     1       4.328   0.742  -3.305  0.00  0.00    +0.116 A 
ATOM     23  C   UNL     1       4.678  -0.363  -2.558  0.00  0.00    +0.048 A 
ATOM     37  H   UNL     1       2.184   3.447  -1.644  0.00  0.00    +0.149 HD
BRANCH  21  27
ATOM     27  C   UNL     1       4.523  -1.469  -0.367  0.00  0.00    +0.002 A 
ATOM     28  C   UNL     1       3.632  -1.808   0.654  0.00  0.00    +0.029 A 
ATOM     29  C   UNL     1       5.704  -2.197  -0.526  0.00  0.00    +0.010 A 
ATOM     32  C   UNL     1       3.920  -2.871   1.510  0.00  0.00    +0.052 A 
ATOM     33  C   UNL     1       5.992  -3.260   0.331  0.00  0.00    +0.002 A 
ATOM     34  C   UNL     1       5.100  -3.596   1.349  0.00  0.00    +0.019 A 
BRANCH  32  35
ATOM      9  N   UNL     1       2.264  -3.498   3.401  0.00  0.00    -0.191 NA
ATOM     35  C   UNL     1       3.007  -3.217   2.554  0.00  0.00    +0.099 C 
ENDBRANCH  32  35
ENDBRANCH  21  27
ENDBRANCH  13   5
BRANCH  12   4
ATOM      3  O   UNL     1      -4.305   2.291   1.741  0.00  0.00    -0.270 OA
ATOM      4  N   UNL     1      -2.413   1.687   0.543  0.00  0.00    -0.304 N 
ATOM     16  C   UNL     1      -3.739   1.559   0.933  0.00  0.00    +0.244 C 
ATOM     36  H   UNL     1      -1.982   0.980  -0.042  0.00  0.00    +0.149 HD
BRANCH  16  18
ATOM     18  C   UNL     1      -4.490   0.429   0.328  0.00  0.00    +0.037 A 
ATOM     19  C   UNL     1      -5.551  -0.114   1.023  0.00  0.00    +0.015 A 
ATOM     20  C   UNL     1      -4.101  -0.043  -0.909  0.00  0.00    +0.015 A 
ATOM     24  C   UNL     1      -6.255  -1.175   0.455  0.00  0.00    +0.024 A 
ATOM     25  C   UNL     1      -4.806  -1.105  -1.476  0.00  0.00    +0.024 A 
ATOM     26  C   UNL     1      -5.882  -1.671  -0.794  0.00  0.00    +0.029 A 
BRANCH  26   8
ATOM      8  N   UNL     1      -6.594  -2.746  -1.368  0.00  0.00    -0.336 N 
ATOM     30  C   UNL     1      -5.930  -3.669  -2.266  0.00  0.00    +0.129 C 
ATOM     31  C   UNL     1      -8.001  -2.933  -1.077  0.00  0.00    +0.129 C 
ENDBRANCH  26   8
ENDBRANCH  16  18
ENDBRANCH  12   4
TORSDOF 6
