REMARK  Name = 40779509
REMARK  11 active torsions:
REMARK  status: ('A' for Active; 'I' for Inactive)
REMARK    1  A    between atoms: O_5  and  C_30
REMARK    2  A    between atoms: O_5  and  C_37
REMARK    3  A    between atoms: O_6  and  C_32
REMARK    4  A    between atoms: O_6  and  C_38
REMARK    5  A    between atoms: N_8  and  C_22
REMARK    6  A    between atoms: N_9  and  C_19
REMARK    7  A    between atoms: C_12  and  C_18
REMARK    8  A    between atoms: C_13  and  C_19
REMARK    9  A    between atoms: C_21  and  C_24
REMARK   10  A    between atoms: C_23  and  C_25
REMARK   11  A    between atoms: C_35  and  C_36
REMARK                            x       y       z     vdW  Elec       q    Type
REMARK                         _______ _______ _______ _____ _____    ______ ____
ROOT
ATOM      7  N   UNL     1      -0.626  -4.733  -0.701  0.00  0.00    -0.297 NA
ATOM     11  C   UNL     1      -1.273  -3.507   1.504  0.00  0.00    +0.002 C 
ATOM     12  C   UNL     1      -2.415  -3.384   0.458  0.00  0.00    +0.055 C 
ATOM     13  C   UNL     1       0.476  -3.828  -0.281  0.00  0.00    +0.074 C 
ATOM     14  C   UNL     1       0.032  -2.942   0.903  0.00  0.00    +0.024 C 
ATOM     15  C   UNL     1      -1.047  -5.016   1.741  0.00  0.00    +0.019 C 
ATOM     16  C   UNL     1      -1.879  -3.958  -0.884  0.00  0.00    +0.094 C 
ATOM     17  C   UNL     1      -0.846  -5.717   0.386  0.00  0.00    +0.085 C 
ENDROOT
BRANCH  12  18
ATOM      8  N   UNL     1      -4.389  -1.885  -0.088  0.00  0.00    -0.270 N 
ATOM     10  N   UNL     1      -4.787  -0.605  -0.191  0.00  0.00    -0.171 NA
ATOM     18  C   UNL     1      -3.083  -2.028   0.280  0.00  0.00    +0.044 A 
ATOM     20  C   UNL     1      -2.593  -0.753   0.427  0.00  0.00    +0.053 A 
ATOM     21  C   UNL     1      -3.686   0.081   0.125  0.00  0.00    +0.093 A 
ATOM     22  C   UNL     1      -5.334  -2.942  -0.365  0.00  0.00    +0.172 C 
BRANCH  21  24
ATOM     24  C   UNL     1      -3.697   1.521   0.130  0.00  0.00    +0.006 A 
ATOM     26  C   UNL     1      -2.532   2.229  -0.164  0.00  0.00    +0.059 A 
ATOM     27  C   UNL     1      -4.873   2.208   0.431  0.00  0.00    +0.014 A 
ATOM     30  C   UNL     1      -2.543   3.624  -0.159  0.00  0.00    +0.162 A 
ATOM     31  C   UNL     1      -4.884   3.603   0.437  0.00  0.00    +0.050 A 
ATOM     32  C   UNL     1      -3.719   4.311   0.142  0.00  0.00    +0.162 A 
BRANCH  30   5
ATOM      5  O   UNL     1      -1.399   4.304  -0.448  0.00  0.00    -0.491 OA
ATOM     37  C   UNL     1      -0.240   3.527  -0.745  0.00  0.00    +0.277 C 
ENDBRANCH  30   5
BRANCH  32   6
ATOM      6  O   UNL     1      -3.743   5.673   0.151  0.00  0.00    -0.491 OA
ATOM     38  C   UNL     1      -4.985   6.297   0.468  0.00  0.00    +0.277 C 
ENDBRANCH  32   6
ENDBRANCH  21  24
ENDBRANCH  12  18
BRANCH  13  19
ATOM     19  C   UNL     1       1.022  -2.995  -1.443  0.00  0.00    +0.123 C 
BRANCH  19   9
ATOM      4  O   UNL     1       1.260  -0.134  -1.503  0.00  0.00    -0.270 OA
ATOM      9  N   UNL     1       2.153  -2.224  -1.031  0.00  0.00    -0.310 N 
ATOM     23  C   UNL     1       2.185  -0.832  -1.094  0.00  0.00    +0.244 C 
ATOM     39  H   UNL     1       2.984  -2.741  -0.764  0.00  0.00    +0.149 HD
BRANCH  23  25
ATOM     25  C   UNL     1       3.445  -0.180  -0.653  0.00  0.00    +0.037 A 
ATOM     28  C   UNL     1       3.805   1.064  -1.171  0.00  0.00    +0.013 A 
ATOM     29  C   UNL     1       4.268  -0.812   0.279  0.00  0.00    +0.013 A 
ATOM     33  C   UNL     1       4.989   1.676  -0.757  0.00  0.00    +0.013 A 
ATOM     34  C   UNL     1       5.451  -0.200   0.693  0.00  0.00    +0.013 A 
ATOM     35  C   UNL     1       5.812   1.044   0.175  0.00  0.00    +0.055 A 
BRANCH  35  36
ATOM      1  F   UNL     1       7.124   1.943   1.961  0.00  0.00    -0.166 F 
ATOM      2  F   UNL     1       7.280   2.907   0.019  0.00  0.00    -0.166 F 
ATOM      3  F   UNL     1       8.196   0.963   0.350  0.00  0.00    -0.166 F 
ATOM     36  C   UNL     1       7.076   1.698   0.618  0.00  0.00    +0.417 C 
ENDBRANCH  35  36
ENDBRANCH  23  25
ENDBRANCH  19   9
ENDBRANCH  13  19
TORSDOF 8
