REMARK  Name = 75536631
REMARK  8 active torsions:
REMARK  status: ('A' for Active; 'I' for Inactive)
REMARK    1  A    between atoms: O_2  and  C_8
REMARK    2  A    between atoms: N_4  and  C_7
REMARK    3  A    between atoms: N_4  and  C_12
REMARK    4  A    between atoms: N_5  and  C_11
REMARK    5  A    between atoms: C_9  and  C_11
REMARK    6  A    between atoms: C_12  and  C_13
REMARK    7  A    between atoms: C_14  and  C_17
REMARK    8  A    between atoms: C_18  and  C_26
REMARK                            x       y       z     vdW  Elec       q    Type
REMARK                         _______ _______ _______ _____ _____    ______ ____
ROOT
ATOM      1  O   UNL     1       3.939   0.965   0.550  0.00  0.00    -0.371 OA
ATOM      7  C   UNL     1       2.941  -1.160   0.856  0.00  0.00    +0.111 C 
ATOM      8  C   UNL     1       3.468  -1.092  -0.567  0.00  0.00    +0.164 C 
ATOM      9  C   UNL     1       3.892   0.364  -0.757  0.00  0.00    +0.165 C 
ATOM     10  C   UNL     1       3.734  -0.055   1.535  0.00  0.00    +0.181 C 
ENDROOT
BRANCH   8   2
ATOM      2  O   UNL     1       4.625  -1.928  -0.643  0.00  0.00    -0.388 OA
ATOM     28  H   UNL     1       4.974  -1.858  -1.548  0.00  0.00    +0.210 HD
ENDBRANCH   8   2
BRANCH   7   4
ATOM      4  N   UNL     1       1.508  -0.880   0.914  0.00  0.00    -0.305 NA
ATOM     27  H   UNL     1       1.277  -0.505   1.834  0.00  0.00    +0.123 HD
BRANCH   4  12
ATOM     12  C   UNL     1       0.728  -2.092   0.699  0.00  0.00    +0.116 C 
BRANCH  12  13
ATOM     13  C   UNL     1      -0.753  -1.820   0.739  0.00  0.00    -0.032 A 
ATOM     15  C   UNL     1      -1.487  -1.770  -0.446  0.00  0.00    +0.023 A 
ATOM     16  C   UNL     1      -1.391  -1.619   1.964  0.00  0.00    +0.005 A 
ATOM     18  C   UNL     1      -2.858  -1.520  -0.407  0.00  0.00    +0.052 A 
ATOM     19  C   UNL     1      -2.762  -1.369   2.002  0.00  0.00    +0.002 A 
ATOM     20  C   UNL     1      -3.496  -1.319   0.817  0.00  0.00    +0.019 A 
BRANCH  18  26
ATOM      6  N   UNL     1      -4.222  -1.428  -2.606  0.00  0.00    -0.191 NA
ATOM     26  C   UNL     1      -3.611  -1.469  -1.621  0.00  0.00    +0.099 C 
ENDBRANCH  18  26
ENDBRANCH  12  13
ENDBRANCH   4  12
ENDBRANCH   7   4
BRANCH   9  11
ATOM     11  C   UNL     1       2.931   1.169  -1.619  0.00  0.00    +0.138 C 
BRANCH  11   5
ATOM      3  O   UNL     1       0.188   0.519  -2.163  0.00  0.00    -0.270 OA
ATOM      5  N   UNL     1       1.785   1.593  -0.867  0.00  0.00    -0.309 N 
ATOM     14  C   UNL     1       0.486   1.228  -1.205  0.00  0.00    +0.244 C 
ATOM     29  H   UNL     1       1.954   2.248  -0.111  0.00  0.00    +0.149 HD
BRANCH  14  17
ATOM     17  C   UNL     1      -0.594   1.770  -0.340  0.00  0.00    +0.037 A 
ATOM     21  C   UNL     1      -1.875   1.958  -0.860  0.00  0.00    +0.013 A 
ATOM     22  C   UNL     1      -0.326   2.094   0.990  0.00  0.00    +0.013 A 
ATOM     23  C   UNL     1      -2.889   2.468  -0.049  0.00  0.00    +0.001 A 
ATOM     24  C   UNL     1      -1.340   2.604   1.801  0.00  0.00    +0.001 A 
ATOM     25  C   UNL     1      -2.621   2.791   1.282  0.00  0.00    +0.000 A 
ENDBRANCH  14  17
ENDBRANCH  11   5
ENDBRANCH   9  11
TORSDOF 8
