REMARK  Name = 11912989
REMARK  6 active torsions:
REMARK  status: ('A' for Active; 'I' for Inactive)
REMARK    1  A    between atoms: N_4  and  C_10
REMARK    2  A    between atoms: N_4  and  C_14
REMARK    3  A    between atoms: N_5  and  C_11
REMARK    4  A    between atoms: C_14  and  C_16
REMARK    5  A    between atoms: C_19  and  C_25
REMARK    6  A    between atoms: C_23  and  C_26
REMARK                            x       y       z     vdW  Elec       q    Type
REMARK                         _______ _______ _______ _____ _____    ______ ____
ROOT
ATOM      1  O   UNL     1      -2.024  -1.857   1.873  0.00  0.00    -0.370 OA
ATOM      2  O   UNL     1      -1.954  -3.933  -0.462  0.00  0.00    -0.370 OA
ATOM      8  C   UNL     1      -1.128  -2.809  -0.115  0.00  0.00    +0.168 C 
ATOM      9  C   UNL     1      -2.040  -1.734   0.441  0.00  0.00    +0.171 C 
ATOM     10  C   UNL     1      -0.225  -3.162   1.042  0.00  0.00    +0.111 C 
ATOM     11  C   UNL     1      -3.405  -2.089  -0.101  0.00  0.00    +0.130 C 
ATOM     12  C   UNL     1      -1.104  -2.893   2.247  0.00  0.00    +0.181 C 
ATOM     13  C   UNL     1      -3.329  -3.599  -0.226  0.00  0.00    +0.185 C 
ENDROOT
BRANCH  11   5
ATOM      5  N   UNL     1      -3.593  -1.487  -1.402  0.00  0.00    -0.306 N 
ATOM      6  N   UNL     1      -4.327   0.542  -0.481  0.00  0.00    -0.211 NA
ATOM      7  N   UNL     1      -4.177   0.249  -2.868  0.00  0.00    -0.223 NA
ATOM     15  C   UNL     1      -4.046  -0.193  -1.589  0.00  0.00    +0.216 A 
ATOM     19  C   UNL     1      -4.765   1.799  -0.700  0.00  0.00    +0.111 A 
ATOM     22  C   UNL     1      -4.620   1.516  -3.014  0.00  0.00    +0.116 A 
ATOM     24  C   UNL     1      -4.933   2.345  -1.956  0.00  0.00    +0.051 A 
ATOM     36  H   UNL     1      -3.337  -2.008  -2.234  0.00  0.00    +0.149 HD
BRANCH  19  25
ATOM      3  O   UNL     1      -4.846   1.892   1.659  0.00  0.00    -0.461 OA
ATOM     25  C   UNL     1      -5.054   2.552   0.491  0.00  0.00    +0.153 A 
ATOM     27  C   UNL     1      -5.509   3.827   0.727  0.00  0.00    +0.051 A 
ATOM     30  C   UNL     1      -5.585   3.961   2.133  0.00  0.00    +0.042 A 
ATOM     31  C   UNL     1      -5.172   2.758   2.655  0.00  0.00    +0.196 A 
ENDBRANCH  19  25
ENDBRANCH  11   5
BRANCH  10   4
ATOM      4  N   UNL     1       0.941  -2.245   1.062  0.00  0.00    -0.305 NA
ATOM     35  H   UNL     1       1.470  -2.409   1.919  0.00  0.00    +0.123 HD
BRANCH   4  14
ATOM     14  C   UNL     1       1.798  -2.475  -0.091  0.00  0.00    +0.116 C 
BRANCH  14  16
ATOM     16  C   UNL     1       2.989  -1.554  -0.097  0.00  0.00    -0.034 A 
ATOM     17  C   UNL     1       4.161  -1.950   0.532  0.00  0.00    +0.005 A 
ATOM     18  C   UNL     1       2.898  -0.323  -0.731  0.00  0.00    +0.005 A 
ATOM     20  C   UNL     1       5.265  -1.097   0.527  0.00  0.00    +0.009 A 
ATOM     21  C   UNL     1       4.001   0.530  -0.736  0.00  0.00    +0.009 A 
ATOM     23  C   UNL     1       5.185   0.143  -0.107  0.00  0.00    -0.018 A 
BRANCH  23  26
ATOM     26  C   UNL     1       6.330   1.028  -0.113  0.00  0.00    -0.018 A 
ATOM     28  C   UNL     1       6.499   1.956   0.914  0.00  0.00    +0.008 A 
ATOM     29  C   UNL     1       7.264   0.953  -1.146  0.00  0.00    +0.008 A 
ATOM     32  C   UNL     1       7.603   2.809   0.908  0.00  0.00    +0.001 A 
ATOM     33  C   UNL     1       8.368   1.806  -1.152  0.00  0.00    +0.001 A 
ATOM     34  C   UNL     1       8.537   2.734  -0.124  0.00  0.00    +0.000 A 
ENDBRANCH  23  26
ENDBRANCH  14  16
ENDBRANCH   4  14
ENDBRANCH  10   4
TORSDOF 6
