REMARK  Name = 26761900
REMARK  6 active torsions:
REMARK  status: ('A' for Active; 'I' for Inactive)
REMARK    1  A    between atoms: O_4  and  C_32
REMARK    2  A    between atoms: N_6  and  C_16
REMARK    3  A    between atoms: C_11  and  C_17
REMARK    4  A    between atoms: C_16  and  C_18
REMARK    5  A    between atoms: C_22  and  C_23
REMARK    6  A    between atoms: C_26  and  C_32
REMARK                            x       y       z     vdW  Elec       q    Type
REMARK                         _______ _______ _______ _____ _____    ______ ____
ROOT
ATOM      6  N   UNL     1      -1.993  -1.173   0.469  0.00  0.00    -0.281 NA
ATOM      7  N   UNL     1      -4.587  -3.492  -0.929  0.00  0.00    -0.347 N 
ATOM      8  N   UNL     1      -2.843  -4.765  -1.511  0.00  0.00    -0.240 NA
ATOM     11  C   UNL     1      -0.998  -2.272   0.717  0.00  0.00    +0.152 C 
ATOM     12  C   UNL     1      -1.035  -3.378  -0.397  0.00  0.00    +0.086 C 
ATOM     13  C   UNL     1      -3.396  -1.679   0.427  0.00  0.00    +0.140 C 
ATOM     14  C   UNL     1      -3.481  -2.899  -0.401  0.00  0.00    +0.053 A 
ATOM     15  C   UNL     1      -2.429  -3.699  -0.764  0.00  0.00    +0.065 A 
ATOM     19  C   UNL     1      -4.151  -4.614  -1.591  0.00  0.00    +0.197 A 
ATOM     34  H   UNL     1      -5.545  -3.176  -0.850  0.00  0.00    +0.167 HD
ENDROOT
BRANCH  11  17
ATOM      1  O   UNL     1       1.063  -2.030   2.027  0.00  0.00    -0.336 OA
ATOM      9  N   UNL     1       1.186  -1.155  -0.031  0.00  0.00    -0.190 NA
ATOM     10  N   UNL     1       2.353  -1.498   1.906  0.00  0.00    -0.056 NA
ATOM     17  C   UNL     1       0.443  -1.785   0.843  0.00  0.00    +0.245 A 
ATOM     22  C   UNL     1       2.349  -1.001   0.666  0.00  0.00    +0.202 A 
BRANCH  22  23
ATOM      2  O   UNL     1       6.944   0.651   0.822  0.00  0.00    -0.453 OA
ATOM      3  O   UNL     1       6.822   1.507  -1.427  0.00  0.00    -0.453 OA
ATOM     23  C   UNL     1       3.489  -0.345   0.093  0.00  0.00    +0.026 A 
ATOM     27  C   UNL     1       4.660  -0.210   0.843  0.00  0.00    +0.061 A 
ATOM     28  C   UNL     1       3.417   0.155  -1.219  0.00  0.00    +0.015 A 
ATOM     29  C   UNL     1       5.730   0.427   0.249  0.00  0.00    +0.167 A 
ATOM     30  C   UNL     1       5.660   0.916  -1.035  0.00  0.00    +0.166 A 
ATOM     31  C   UNL     1       4.516   0.796  -1.796  0.00  0.00    +0.050 A 
ATOM     33  C   UNL     1       7.631   1.335  -0.245  0.00  0.00    +0.466 C 
ENDBRANCH  22  23
ENDBRANCH  11  17
BRANCH   6  16
ATOM     16  C   UNL     1      -1.920  -0.114   1.485  0.00  0.00    +0.120 C 
BRANCH  16  18
ATOM     18  C   UNL     1      -2.439   1.200   0.963  0.00  0.00    -0.033 A 
ATOM     20  C   UNL     1      -3.703   1.651   1.342  0.00  0.00    +0.006 A 
ATOM     21  C   UNL     1      -1.655   1.966   0.101  0.00  0.00    +0.006 A 
ATOM     24  C   UNL     1      -4.184   2.868   0.859  0.00  0.00    +0.015 A 
ATOM     25  C   UNL     1      -2.135   3.183  -0.383  0.00  0.00    +0.015 A 
ATOM     26  C   UNL     1      -3.400   3.634  -0.004  0.00  0.00    +0.059 A 
BRANCH  26  32
ATOM      5  O   UNL     1      -5.000   5.397  -0.237  0.00  0.00    -0.245 OA
ATOM     32  C   UNL     1      -3.900   4.903  -0.507  0.00  0.00    +0.337 C 
BRANCH  32   4
ATOM      4  O   UNL     1      -3.013   5.522  -1.334  0.00  0.00    -0.477 OA
ATOM     35  H   UNL     1      -3.360   6.377  -1.668  0.00  0.00    +0.295 HD
ENDBRANCH  32   4
ENDBRANCH  26  32
ENDBRANCH  16  18
ENDBRANCH   6  16
TORSDOF 6
