REMARK  Name = 51137022
REMARK  6 active torsions:
REMARK  status: ('A' for Active; 'I' for Inactive)
REMARK    1  A    between atoms: O_2  and  C_18
REMARK    2  A    between atoms: O_2  and  C_26
REMARK    3  A    between atoms: O_3  and  C_23
REMARK    4  A    between atoms: O_3  and  C_27
REMARK    5  A    between atoms: N_7  and  C_19
REMARK    6  A    between atoms: C_8  and  C_12
REMARK                            x       y       z     vdW  Elec       q    Type
REMARK                         _______ _______ _______ _____ _____    ______ ____
ROOT
ATOM      1  O   UNL     1       2.124  -1.546   1.780  0.00  0.00    -0.252 OA
ATOM      4  N   UNL     1       0.766  -1.747  -0.060  0.00  0.00    -0.285 N 
ATOM      7  N   UNL     1       2.809  -0.624  -0.251  0.00  0.00    -0.269 N 
ATOM      8  C   UNL     1      -1.500  -2.440  -0.275  0.00  0.00    +0.074 C 
ATOM      9  C   UNL     1      -0.844  -2.404  -1.663  0.00  0.00    +0.032 C 
ATOM     10  C   UNL     1      -0.278  -2.477   0.651  0.00  0.00    +0.120 C 
ATOM     11  C   UNL     1       0.403  -1.551  -1.462  0.00  0.00    +0.110 C 
ATOM     13  C   UNL     1       1.932  -1.317   0.584  0.00  0.00    +0.306 C 
ATOM     29  H   UNL     1       2.528  -0.475  -1.215  0.00  0.00    +0.156 HD
ENDROOT
BRANCH   8  12
ATOM      5  N   UNL     1      -3.783  -1.392  -0.432  0.00  0.00    -0.341 N 
ATOM      6  N   UNL     1      -2.183  -0.097   0.409  0.00  0.00    -0.232 NA
ATOM     12  C   UNL     1      -2.465  -1.283  -0.084  0.00  0.00    +0.113 A 
ATOM     14  C   UNL     1      -4.392  -0.197  -0.145  0.00  0.00    +0.070 A 
ATOM     15  C   UNL     1      -3.373   0.594   0.379  0.00  0.00    +0.089 A 
ATOM     16  C   UNL     1      -5.707   0.246  -0.293  0.00  0.00    +0.073 A 
ATOM     17  C   UNL     1      -3.665   1.907   0.783  0.00  0.00    +0.033 A 
ATOM     18  C   UNL     1      -5.979   1.556   0.114  0.00  0.00    +0.122 A 
ATOM     20  C   UNL     1      -4.978   2.374   0.643  0.00  0.00    +0.048 A 
ATOM     28  H   UNL     1      -4.230  -2.206  -0.832  0.00  0.00    +0.167 HD
BRANCH  18   2
ATOM      2  O   UNL     1      -7.247   2.042  -0.008  0.00  0.00    -0.495 OA
ATOM     26  C   UNL     1      -8.227   1.163  -0.554  0.00  0.00    +0.277 C 
ENDBRANCH  18   2
ENDBRANCH   8  12
BRANCH   7  19
ATOM     19  C   UNL     1       4.065  -0.061   0.084  0.00  0.00    +0.038 A 
ATOM     21  C   UNL     1       4.802   0.625  -0.882  0.00  0.00    +0.069 A 
ATOM     22  C   UNL     1       4.566  -0.192   1.379  0.00  0.00    +0.023 A 
ATOM     23  C   UNL     1       6.039   1.179  -0.553  0.00  0.00    +0.122 A 
ATOM     24  C   UNL     1       5.803   0.361   1.708  0.00  0.00    +0.005 A 
ATOM     25  C   UNL     1       6.540   1.047   0.742  0.00  0.00    +0.046 A 
BRANCH  23   3
ATOM      3  O   UNL     1       6.758   1.846  -1.497  0.00  0.00    -0.495 OA
ATOM     27  C   UNL     1       8.015   2.387  -1.093  0.00  0.00    +0.277 C 
ENDBRANCH  23   3
ENDBRANCH   7  19
TORSDOF 4
