REMARK  Name = 26744252
REMARK  5 active torsions:
REMARK  status: ('A' for Active; 'I' for Inactive)
REMARK    1  A    between atoms: O_3  and  C_12
REMARK    2  A    between atoms: N_4  and  C_16
REMARK    3  A    between atoms: C_7  and  C_14
REMARK    4  A    between atoms: C_8  and  C_15
REMARK    5  A    between atoms: C_16  and  C_17
REMARK                            x       y       z     vdW  Elec       q    Type
REMARK                         _______ _______ _______ _____ _____    ______ ____
ROOT
ATOM      4  N   UNL     1       0.348  -1.351  -0.203  0.00  0.00    -0.285 NA
ATOM      8  C   UNL     1      -1.009  -1.788  -0.592  0.00  0.00    +0.149 C 
ATOM     11  C   UNL     1      -1.281  -3.039   0.263  0.00  0.00    +0.061 C 
ATOM     12  C   UNL     1      -0.004  -3.253   1.067  0.00  0.00    +0.130 C 
ATOM     13  C   UNL     1       1.057  -2.550   0.240  0.00  0.00    +0.116 C 
ENDROOT
BRANCH   8  15
ATOM      2  O   UNL     1      -3.140  -0.757  -1.202  0.00  0.00    -0.336 OA
ATOM      5  N   UNL     1      -2.056   0.292   0.454  0.00  0.00    -0.194 NA
ATOM      6  N   UNL     1      -3.946   0.328  -0.835  0.00  0.00    -0.061 NA
ATOM     14  C   UNL     1      -3.240   0.898   0.146  0.00  0.00    +0.175 A 
ATOM     15  C   UNL     1      -2.049  -0.705  -0.394  0.00  0.00    +0.245 A 
BRANCH  14   7
ATOM      7  C   UNL     1      -3.730   2.151   0.876  0.00  0.00    +0.060 C 
ATOM      9  C   UNL     1      -4.070   3.369   0.069  0.00  0.00    +0.012 C 
ATOM     10  C   UNL     1      -2.836   3.355   0.922  0.00  0.00    +0.012 C 
ENDBRANCH  14   7
ENDBRANCH   8  15
BRANCH  12   3
ATOM      3  O   UNL     1       0.272  -4.632   1.212  0.00  0.00    -0.390 OA
ATOM     23  H   UNL     1      -0.480  -5.032   1.682  0.00  0.00    +0.210 HD
ENDBRANCH  12   3
BRANCH   4  16
ATOM     16  C   UNL     1       1.057  -0.658  -1.270  0.00  0.00    +0.120 C 
BRANCH  16  17
ATOM      1  F   UNL     1       5.271   2.508   0.721  0.00  0.00    -0.205 F 
ATOM     17  C   UNL     1       2.183   0.188  -0.739  0.00  0.00    -0.033 A 
ATOM     18  C   UNL     1       1.950   1.517  -0.385  0.00  0.00    +0.008 A 
ATOM     19  C   UNL     1       3.459  -0.357  -0.599  0.00  0.00    +0.008 A 
ATOM     20  C   UNL     1       2.993   2.301   0.108  0.00  0.00    +0.038 A 
ATOM     21  C   UNL     1       4.503   0.427  -0.106  0.00  0.00    +0.038 A 
ATOM     22  C   UNL     1       4.269   1.756   0.247  0.00  0.00    +0.123 A 
ENDBRANCH  16  17
ENDBRANCH   4  16
TORSDOF 5
