REMARK  Name = 40777677
REMARK  13 active torsions:
REMARK  status: ('A' for Active; 'I' for Inactive)
REMARK    1  A    between atoms: O_5  and  C_27
REMARK    2  A    between atoms: N_7  and  C_12
REMARK    3  A    between atoms: N_8  and  C_26
REMARK    4  A    between atoms: C_10  and  C_13
REMARK    5  A    between atoms: C_16  and  C_17
REMARK    6  A    between atoms: C_16  and  C_21
REMARK    7  A    between atoms: C_16  and  C_22
REMARK    8  A    between atoms: C_16  and  C_23
REMARK    9  A    between atoms: C_17  and  C_19
REMARK   10  A    between atoms: C_18  and  C_24
REMARK   11  A    between atoms: C_20  and  C_25
REMARK   12  A    between atoms: C_21  and  C_27
REMARK   13  A    between atoms: C_32  and  C_33
REMARK                            x       y       z     vdW  Elec       q    Type
REMARK                         _______ _______ _______ _____ _____    ______ ____
ROOT
ATOM     10  C   UNL     1       0.599  -1.459   0.112  0.00  0.00    +0.047 C 
ATOM     11  C   UNL     1       1.317  -0.173  -0.347  0.00  0.00    +0.039 C 
ATOM     12  C   UNL     1       2.395   0.104   0.707  0.00  0.00    +0.097 C 
ATOM     14  C   UNL     1       0.915  -1.498   1.579  0.00  0.00    -0.021 C 
ATOM     15  C   UNL     1       1.897  -0.648   1.897  0.00  0.00    -0.009 C 
ENDROOT
BRANCH  10  13
ATOM      8  N   UNL     1      -3.003  -0.998  -0.368  0.00  0.00    -0.236 N 
ATOM      9  N   UNL     1      -2.882  -2.123  -1.094  0.00  0.00    -0.171 NA
ATOM     13  C   UNL     1      -0.876  -1.470  -0.218  0.00  0.00    +0.003 A 
ATOM     18  C   UNL     1      -1.831  -0.565   0.178  0.00  0.00    +0.046 A 
ATOM     20  C   UNL     1      -1.580  -2.406  -0.998  0.00  0.00    +0.064 A 
ATOM     24  C   UNL     1      -1.724   0.649   1.012  0.00  0.00    +0.066 C 
ATOM     25  C   UNL     1      -1.047  -3.598  -1.680  0.00  0.00    +0.068 C 
BRANCH   8  26
ATOM     26  C   UNL     1      -4.253  -0.391  -0.235  0.00  0.00    +0.066 A 
ATOM     28  C   UNL     1      -5.311  -1.092   0.343  0.00  0.00    +0.028 A 
ATOM     29  C   UNL     1      -4.444   0.915  -0.685  0.00  0.00    +0.028 A 
ATOM     30  C   UNL     1      -6.561  -0.486   0.472  0.00  0.00    +0.014 A 
ATOM     31  C   UNL     1      -5.694   1.521  -0.557  0.00  0.00    +0.014 A 
ATOM     32  C   UNL     1      -6.752   0.821   0.022  0.00  0.00    +0.055 A 
BRANCH  32  33
ATOM      1  F   UNL     1      -8.072   2.602   0.919  0.00  0.00    -0.166 F 
ATOM      2  F   UNL     1      -9.011   0.649   0.743  0.00  0.00    -0.166 F 
ATOM      3  F   UNL     1      -8.638   1.847  -1.033  0.00  0.00    -0.166 F 
ATOM     33  C   UNL     1      -8.089   1.468   0.159  0.00  0.00    +0.417 C 
ENDBRANCH  32  33
ENDBRANCH   8  26
ENDBRANCH  10  13
BRANCH  12   7
ATOM      4  O   UNL     1       4.488   1.539  -0.644  0.00  0.00    -0.276 OA
ATOM      7  N   UNL     1       3.686  -0.408   0.331  0.00  0.00    -0.309 N 
ATOM     19  C   UNL     1       4.634   0.362  -0.321  0.00  0.00    +0.214 C 
ATOM     34  H   UNL     1       3.893  -1.384   0.524  0.00  0.00    +0.149 HD
BRANCH  19  17
ATOM     17  C   UNL     1       5.921  -0.394  -0.609  0.00  0.00    +0.102 C 
BRANCH  17  16
ATOM     16  C   UNL     1       7.021  -0.242   0.472  0.00  0.00    -0.017 C 
ATOM     22  C   UNL     1       8.219  -1.124   0.059  0.00  0.00    +0.012 C 
ATOM     23  C   UNL     1       6.513  -0.761   1.834  0.00  0.00    +0.012 C 
BRANCH  16  21
ATOM     21  C   UNL     1       7.480   1.224   0.662  0.00  0.00    +0.127 C 
BRANCH  21  27
ATOM      6  O   UNL     1       7.309   2.450  -1.419  0.00  0.00    -0.251 OA
ATOM     27  C   UNL     1       8.012   1.890  -0.589  0.00  0.00    +0.305 C 
BRANCH  27   5
ATOM      5  O   UNL     1       9.360   1.795  -0.703  0.00  0.00    -0.481 OA
ATOM     35  H   UNL     1       9.689   2.227  -1.521  0.00  0.00    +0.295 HD
ENDBRANCH  27   5
ENDBRANCH  21  27
ENDBRANCH  16  21
ENDBRANCH  17  16
ENDBRANCH  19  17
ENDBRANCH  12   7
TORSDOF 9
