REMARK  Name = 56775309
REMARK  2 active torsions:
REMARK  status: ('A' for Active; 'I' for Inactive)
REMARK    1  A    between atoms: N_6  and  C_14
REMARK    2  A    between atoms: C_13  and  C_15
REMARK                            x       y       z     vdW  Elec       q    Type
REMARK                         _______ _______ _______ _____ _____    ______ ____
ROOT
ATOM      2  O   UNL     1       2.901   1.119  -0.964  0.00  0.00    -0.364 OA
ATOM      3  O   UNL     1       4.391  -2.110  -0.852  0.00  0.00    -0.273 OA
ATOM      4  O   UNL     1      -1.468   2.887  -0.050  0.00  0.00    -0.270 OA
ATOM      5  N   UNL     1       0.159   1.256   0.243  0.00  0.00    -0.293 N 
ATOM      6  N   UNL     1       2.858  -1.164   0.621  0.00  0.00    -0.296 N 
ATOM      7  C   UNL     1       2.013  -0.025   0.957  0.00  0.00    +0.123 C 
ATOM      8  C   UNL     1       2.514   1.303   0.395  0.00  0.00    +0.158 C 
ATOM      9  C   UNL     1       0.605  -0.131   0.365  0.00  0.00    +0.133 C 
ATOM     10  C   UNL     1       1.271   2.183   0.428  0.00  0.00    +0.141 C 
ATOM     11  C   UNL     1       3.993   0.232  -1.056  0.00  0.00    +0.256 C 
ATOM     12  C   UNL     1       3.755  -1.137  -0.443  0.00  0.00    +0.241 C 
ATOM     13  C   UNL     1      -1.137   1.707   0.047  0.00  0.00    +0.247 C 
ATOM     14  C   UNL     1       2.612  -2.404   1.344  0.00  0.00    +0.132 C 
ENDROOT
BRANCH  13  15
ATOM      1  F   UNL     1      -5.193  -2.140  -0.289  0.00  0.00    -0.205 F 
ATOM     15  C   UNL     1      -2.202   0.696  -0.041  0.00  0.00    +0.037 A 
ATOM     16  C   UNL     1      -2.866   0.280   1.113  0.00  0.00    +0.016 A 
ATOM     17  C   UNL     1      -2.549   0.153  -1.279  0.00  0.00    +0.016 A 
ATOM     18  C   UNL     1      -3.876  -0.678   1.030  0.00  0.00    +0.039 A 
ATOM     19  C   UNL     1      -3.559  -0.805  -1.362  0.00  0.00    +0.039 A 
ATOM     20  C   UNL     1      -4.223  -1.221  -0.208  0.00  0.00    +0.123 A 
ENDBRANCH  13  15
TORSDOF 1
