REMARK  Name = 51138078
REMARK  12 active torsions:
REMARK  status: ('A' for Active; 'I' for Inactive)
REMARK    1  A    between atoms: O_2  and  C_26
REMARK    2  A    between atoms: O_2  and  C_33
REMARK    3  A    between atoms: N_4  and  C_22
REMARK    4  A    between atoms: N_5  and  C_23
REMARK    5  A    between atoms: C_6  and  C_10
REMARK    6  A    between atoms: C_8  and  C_17
REMARK    7  A    between atoms: C_10  and  C_13
REMARK    8  A    between atoms: C_13  and  C_20
REMARK    9  A    between atoms: C_13  and  C_21
REMARK   10  A    between atoms: C_22  and  C_24
REMARK   11  A    between atoms: C_23  and  C_25
REMARK   12  A    between atoms: C_28  and  C_32
REMARK                            x       y       z     vdW  Elec       q    Type
REMARK                         _______ _______ _______ _____ _____    ______ ____
ROOT
ATOM      3  N   UNL     1      -0.327  -0.843  -0.959  0.00  0.00    -0.299 NA
ATOM      4  N   UNL     1       4.508   0.615  -0.894  0.00  0.00    -0.335 N 
ATOM      6  C   UNL     1       0.327  -1.677   0.059  0.00  0.00    +0.085 C 
ATOM      7  C   UNL     1       1.851  -1.556   0.145  0.00  0.00    -0.021 A 
ATOM      8  C   UNL     1      -0.197   0.591  -0.745  0.00  0.00    +0.145 C 
ATOM      9  C   UNL     1       2.623  -0.496  -0.414  0.00  0.00    +0.008 A 
ATOM     11  C   UNL     1       0.950   1.178  -1.566  0.00  0.00    +0.065 C 
ATOM     12  C   UNL     1       2.300   0.695  -1.153  0.00  0.00    -0.020 A 
ATOM     14  C   UNL     1       4.013  -0.496  -0.252  0.00  0.00    +0.050 A 
ATOM     15  C   UNL     1       3.487   1.340  -1.434  0.00  0.00    +0.091 A 
ATOM     16  C   UNL     1       2.567  -2.519   0.900  0.00  0.00    +0.006 A 
ATOM     18  C   UNL     1       4.705  -1.480   0.456  0.00  0.00    +0.026 A 
ATOM     19  C   UNL     1       3.953  -2.490   1.043  0.00  0.00    +0.002 A 
ATOM     34  H   UNL     1      -0.022  -1.106  -1.895  0.00  0.00    +0.123 HD
ENDROOT
BRANCH   8  17
ATOM      1  O   UNL     1      -1.870   1.057  -2.381  0.00  0.00    -0.274 OA
ATOM      5  N   UNL     1      -2.154   1.863  -0.216  0.00  0.00    -0.310 N 
ATOM     17  C   UNL     1      -1.491   1.178  -1.220  0.00  0.00    +0.231 C 
ATOM     35  H   UNL     1      -1.761   1.892   0.720  0.00  0.00    +0.149 HD
BRANCH   5  23
ATOM     23  C   UNL     1      -3.415   2.540  -0.421  0.00  0.00    +0.143 C 
BRANCH  23  25
ATOM     25  C   UNL     1      -4.586   1.653  -0.110  0.00  0.00    +0.011 A 
ATOM     26  C   UNL     1      -4.747   1.105   1.162  0.00  0.00    +0.125 A 
ATOM     27  C   UNL     1      -5.518   1.380  -1.111  0.00  0.00    +0.009 A 
ATOM     29  C   UNL     1      -5.840   0.283   1.434  0.00  0.00    +0.046 A 
ATOM     30  C   UNL     1      -6.612   0.558  -0.839  0.00  0.00    +0.001 A 
ATOM     31  C   UNL     1      -6.773   0.009   0.433  0.00  0.00    +0.004 A 
BRANCH  26   2
ATOM      2  O   UNL     1      -3.845   1.361   2.151  0.00  0.00    -0.495 OA
ATOM     33  C   UNL     1      -4.088   0.759   3.421  0.00  0.00    +0.277 C 
ENDBRANCH  26   2
ENDBRANCH  23  25
ENDBRANCH   5  23
ENDBRANCH   8  17
BRANCH   6  10
ATOM     10  C   UNL     1      -0.134  -3.111  -0.259  0.00  0.00    +0.026 C 
BRANCH  10  13
ATOM     13  C   UNL     1      -1.570  -3.392   0.194  0.00  0.00    -0.015 C 
ATOM     20  C   UNL     1      -1.919  -4.851  -0.111  0.00  0.00    +0.007 C 
ATOM     21  C   UNL     1      -2.590  -2.467  -0.473  0.00  0.00    +0.007 C 
ENDBRANCH  10  13
ENDBRANCH   6  10
BRANCH   4  22
ATOM     22  C   UNL     1       5.904   0.988  -0.979  0.00  0.00    +0.210 C 
BRANCH  22  24
ATOM     24  C   UNL     1       6.396   1.567   0.278  0.00  0.00    -0.081 C 
ATOM     28  C   UNL     1       6.801   2.041   1.304  0.00  0.00    -0.104 C 
ATOM     32  C   UNL     1       7.292   2.618   2.555  0.00  0.00    +0.106 C 
ENDBRANCH  22  24
ENDBRANCH   4  22
TORSDOF 8
