REMARK  Name = 38029337
REMARK  14 active torsions:
REMARK  status: ('A' for Active; 'I' for Inactive)
REMARK    1  A    between atoms: O_3  and  C_31
REMARK    2  A    between atoms: O_3  and  C_36
REMARK    3  A    between atoms: N_4  and  C_15
REMARK    4  A    between atoms: N_5  and  C_22
REMARK    5  A    between atoms: N_6  and  C_24
REMARK    6  A    between atoms: C_8  and  C_12
REMARK    7  A    between atoms: C_9  and  C_15
REMARK    8  A    between atoms: C_11  and  C_16
REMARK    9  A    between atoms: C_12  and  C_17
REMARK   10  A    between atoms: C_12  and  C_18
REMARK   11  A    between atoms: C_13  and  C_19
REMARK   12  A    between atoms: C_16  and  C_20
REMARK   13  A    between atoms: C_22  and  C_23
REMARK   14  A    between atoms: C_32  and  C_35
REMARK                            x       y       z     vdW  Elec       q    Type
REMARK                         _______ _______ _______ _____ _____    ______ ____
ROOT
ATOM      8  C   UNL     1      -4.481   0.179  -0.384  0.00  0.00    +0.000 C 
ATOM      9  C   UNL     1      -4.332   0.740   1.052  0.00  0.00    +0.032 C 
ATOM     10  C   UNL     1      -4.500  -1.357  -0.360  0.00  0.00    +0.012 C 
ATOM     11  C   UNL     1      -3.221  -1.946   0.264  0.00  0.00    +0.023 C 
ATOM     13  C   UNL     1      -2.857  -1.254   1.562  0.00  0.00    -0.073 C 
ATOM     14  C   UNL     1      -3.373  -0.060   1.903  0.00  0.00    -0.022 C 
ATOM     19  C   UNL     1      -1.920  -1.987   2.480  0.00  0.00    +0.039 C 
ENDROOT
BRANCH   8  12
ATOM     12  C   UNL     1      -5.746   0.703  -1.071  0.00  0.00    -0.013 C 
ATOM     17  C   UNL     1      -5.586   0.657  -2.587  0.00  0.00    +0.007 C 
ATOM     18  C   UNL     1      -6.963  -0.103  -0.630  0.00  0.00    +0.007 C 
ENDBRANCH   8  12
BRANCH   9  15
ATOM     15  C   UNL     1      -3.890   2.208   1.029  0.00  0.00    +0.113 C 
BRANCH  15   4
ATOM      2  O   UNL     1      -1.087   2.009   1.583  0.00  0.00    -0.253 OA
ATOM      4  N   UNL     1      -2.820   2.402   0.102  0.00  0.00    -0.299 N 
ATOM      6  N   UNL     1      -0.645   2.530  -0.663  0.00  0.00    -0.269 N 
ATOM     21  C   UNL     1      -1.460   2.287   0.446  0.00  0.00    +0.304 C 
ATOM     37  H   UNL     1      -3.052   2.662  -0.852  0.00  0.00    +0.150 HD
ATOM     39  H   UNL     1      -1.117   2.747  -1.537  0.00  0.00    +0.156 HD
BRANCH   6  24
ATOM     24  C   UNL     1       0.768   2.510  -0.722  0.00  0.00    +0.038 A 
ATOM     27  C   UNL     1       1.509   2.220   0.423  0.00  0.00    +0.069 A 
ATOM     28  C   UNL     1       1.420   2.780  -1.925  0.00  0.00    +0.023 A 
ATOM     31  C   UNL     1       2.903   2.201   0.366  0.00  0.00    +0.122 A 
ATOM     33  C   UNL     1       2.813   2.761  -1.983  0.00  0.00    +0.005 A 
ATOM     34  C   UNL     1       3.555   2.472  -0.837  0.00  0.00    +0.046 A 
BRANCH  31   3
ATOM      3  O   UNL     1       3.627   1.918   1.483  0.00  0.00    -0.495 OA
ATOM     36  C   UNL     1       2.896   1.651   2.679  0.00  0.00    +0.277 C 
ENDBRANCH  31   3
ENDBRANCH   6  24
ENDBRANCH  15   4
ENDBRANCH   9  15
BRANCH  11  16
ATOM     16  C   UNL     1      -2.053  -1.904  -0.727  0.00  0.00    +0.103 C 
BRANCH  16  20
ATOM      1  O   UNL     1      -1.292  -4.054   0.080  0.00  0.00    -0.276 OA
ATOM      5  N   UNL     1       0.241  -2.567  -0.837  0.00  0.00    -0.311 N 
ATOM     20  C   UNL     1      -1.024  -2.974  -0.440  0.00  0.00    +0.214 C 
ATOM     38  H   UNL     1       0.343  -1.681  -1.323  0.00  0.00    +0.149 HD
BRANCH   5  22
ATOM     22  C   UNL     1       1.419  -3.389  -0.682  0.00  0.00    +0.139 C 
BRANCH  22  23
ATOM     23  C   UNL     1       2.659  -2.564  -0.489  0.00  0.00    -0.030 A 
ATOM     25  C   UNL     1       3.235  -1.907  -1.576  0.00  0.00    +0.006 A 
ATOM     26  C   UNL     1       3.233  -2.454   0.777  0.00  0.00    +0.006 A 
ATOM     29  C   UNL     1       4.386  -1.140  -1.397  0.00  0.00    +0.019 A 
ATOM     30  C   UNL     1       4.385  -1.687   0.956  0.00  0.00    +0.019 A 
ATOM     32  C   UNL     1       4.961  -1.030  -0.131  0.00  0.00    +0.052 A 
BRANCH  32  35
ATOM      7  N   UNL     1       7.098   0.394   0.202  0.00  0.00    -0.191 NA
ATOM     35  C   UNL     1       6.141  -0.244   0.052  0.00  0.00    +0.099 C 
ENDBRANCH  32  35
ENDBRANCH  22  23
ENDBRANCH   5  22
ENDBRANCH  16  20
ENDBRANCH  11  16
TORSDOF 10
