REMARK  Name = 45783334
REMARK  5 active torsions:
REMARK  status: ('A' for Active; 'I' for Inactive)
REMARK    1  A    between atoms: N_3  and  C_18
REMARK    2  A    between atoms: C_11  and  C_21
REMARK    3  A    between atoms: C_15  and  C_24
REMARK    4  A    between atoms: C_18  and  C_23
REMARK    5  A    between atoms: C_25  and  C_27
REMARK                            x       y       z     vdW  Elec       q    Type
REMARK                         _______ _______ _______ _____ _____    ______ ____
ROOT
ATOM      1  O   UNL     1      -3.635  -2.041  -0.098  0.00  0.00    -0.336 OA
ATOM      5  N   UNL     1      -1.960  -0.622  -0.542  0.00  0.00    -0.190 NA
ATOM      7  N   UNL     1      -2.452  -2.726   0.208  0.00  0.00    -0.056 NA
ATOM     21  C   UNL     1      -3.255  -0.811  -0.533  0.00  0.00    +0.245 A 
ATOM     25  C   UNL     1      -1.509  -1.824  -0.080  0.00  0.00    +0.202 A 
ENDROOT
BRANCH  25  27
ATOM      4  N   UNL     1       3.103  -0.432  -0.381  0.00  0.00    -0.315 N 
ATOM      8  N   UNL     1       2.620  -2.614   0.400  0.00  0.00    -0.240 NA
ATOM     15  C   UNL     1       5.083   1.578  -1.068  0.00  0.00    +0.078 C 
ATOM     16  C   UNL     1       5.061   0.203  -1.733  0.00  0.00    +0.031 C 
ATOM     17  C   UNL     1       3.706   1.954  -0.526  0.00  0.00    +0.031 C 
ATOM     19  C   UNL     1       4.422  -0.872  -0.854  0.00  0.00    +0.107 C 
ATOM     20  C   UNL     1       3.063   0.854   0.321  0.00  0.00    +0.107 C 
ATOM     22  C   UNL     1       2.170  -1.424  -0.058  0.00  0.00    +0.122 A 
ATOM     26  C   UNL     1       0.831  -1.116  -0.233  0.00  0.00    +0.055 A 
ATOM     27  C   UNL     1      -0.108  -2.092   0.082  0.00  0.00    +0.027 A 
ATOM     28  C   UNL     1       0.315  -3.329   0.555  0.00  0.00    +0.031 A 
ATOM     29  C   UNL     1       1.678  -3.538   0.695  0.00  0.00    +0.113 A 
BRANCH  15  24
ATOM      2  O   UNL     1       5.855   1.907   1.172  0.00  0.00    -0.276 OA
ATOM     10  N   UNL     1       7.399   1.350  -0.440  0.00  0.00    -0.329 N 
ATOM     24  C   UNL     1       6.128   1.627   0.008  0.00  0.00    +0.214 C 
ATOM     33  H   UNL     1       8.185   1.353   0.200  0.00  0.00    +0.145 HD
ATOM     34  H   UNL     1       7.615   1.182  -1.417  0.00  0.00    +0.145 HD
ENDBRANCH  15  24
ENDBRANCH  25  27
BRANCH  21  11
ATOM      3  N   UNL     1      -3.990   1.555  -0.767  0.00  0.00    -0.284 NA
ATOM     11  C   UNL     1      -4.367   0.137  -0.931  0.00  0.00    +0.146 C 
ATOM     12  C   UNL     1      -4.757   0.005  -2.415  0.00  0.00    +0.030 C 
ATOM     13  C   UNL     1      -4.628   1.410  -2.986  0.00  0.00    +0.017 C 
ATOM     14  C   UNL     1      -4.750   2.303  -1.768  0.00  0.00    +0.085 C 
BRANCH   3  18
ATOM     18  C   UNL     1      -4.218   2.057   0.582  0.00  0.00    +0.159 C 
BRANCH  18  23
ATOM      6  N   UNL     1      -3.387   0.913   2.651  0.00  0.00    -0.347 N 
ATOM      9  N   UNL     1      -1.839   1.914   1.411  0.00  0.00    -0.239 NA
ATOM     23  C   UNL     1      -3.121   1.645   1.527  0.00  0.00    +0.121 A 
ATOM     30  C   UNL     1      -2.199   0.702   3.292  0.00  0.00    +0.104 A 
ATOM     31  C   UNL     1      -1.259   1.329   2.509  0.00  0.00    +0.130 A 
ATOM     32  H   UNL     1      -4.294   0.585   2.953  0.00  0.00    +0.167 HD
ENDBRANCH  18  23
ENDBRANCH   3  18
ENDBRANCH  21  11
TORSDOF 5
