REMARK  Name = 45783659
REMARK  5 active torsions:
REMARK  status: ('A' for Active; 'I' for Inactive)
REMARK    1  A    between atoms: N_3  and  C_13
REMARK    2  A    between atoms: N_7  and  C_26
REMARK    3  A    between atoms: C_9  and  C_14
REMARK    4  A    between atoms: C_13  and  C_15
REMARK    5  A    between atoms: C_18  and  C_19
REMARK                            x       y       z     vdW  Elec       q    Type
REMARK                         _______ _______ _______ _____ _____    ______ ____
ROOT
ATOM      2  O   UNL     1      -1.878  -0.525   2.138  0.00  0.00    -0.336 OA
ATOM      4  N   UNL     1      -0.976  -1.179   0.194  0.00  0.00    -0.190 NA
ATOM      5  N   UNL     1      -0.514  -0.221   2.220  0.00  0.00    -0.056 NA
ATOM     14  C   UNL     1      -2.066  -1.086   0.914  0.00  0.00    +0.245 A 
ATOM     18  C   UNL     1      -0.050  -0.635   1.037  0.00  0.00    +0.204 A 
ENDROOT
BRANCH  18  19
ATOM      6  N   UNL     1       3.574   0.170   1.245  0.00  0.00    -0.237 NA
ATOM     19  C   UNL     1       1.331  -0.523   0.667  0.00  0.00    +0.041 A 
ATOM     23  C   UNL     1       1.779  -0.966  -0.573  0.00  0.00    +0.017 A 
ATOM     24  C   UNL     1       2.260   0.032   1.532  0.00  0.00    +0.124 A 
ATOM     25  C   UNL     1       3.124  -0.842  -0.904  0.00  0.00    +0.047 A 
ATOM     26  C   UNL     1       3.973  -0.272   0.032  0.00  0.00    +0.139 A 
BRANCH  26   7
ATOM      7  N   UNL     1       5.314  -0.147  -0.294  0.00  0.00    -0.290 N 
ATOM      8  N   UNL     1       7.465   0.367  -0.091  0.00  0.00    -0.244 NA
ATOM     27  C   UNL     1       5.903  -0.533  -1.465  0.00  0.00    +0.114 A 
ATOM     28  C   UNL     1       6.291   0.388   0.499  0.00  0.00    +0.205 A 
ATOM     29  C   UNL     1       7.230  -0.206  -1.316  0.00  0.00    +0.130 A 
ENDBRANCH  26   7
ENDBRANCH  18  19
BRANCH  14   9
ATOM      3  N   UNL     1      -3.985  -0.865  -0.654  0.00  0.00    -0.287 NA
ATOM      9  C   UNL     1      -3.480  -1.509   0.575  0.00  0.00    +0.146 C 
ATOM     10  C   UNL     1      -3.599  -3.020   0.303  0.00  0.00    +0.030 C 
ATOM     11  C   UNL     1      -4.237  -3.127  -1.075  0.00  0.00    +0.017 C 
ATOM     12  C   UNL     1      -4.946  -1.798  -1.244  0.00  0.00    +0.085 C 
BRANCH   3  13
ATOM     13  C   UNL     1      -4.571   0.447  -0.416  0.00  0.00    +0.123 C 
BRANCH  13  15
ATOM      1  F   UNL     1      -2.681   1.027  -2.445  0.00  0.00    -0.205 F 
ATOM     15  C   UNL     1      -3.518   1.515  -0.278  0.00  0.00    +0.002 A 
ATOM     16  C   UNL     1      -2.617   1.748  -1.317  0.00  0.00    +0.128 A 
ATOM     17  C   UNL     1      -3.444   2.271   0.892  0.00  0.00    +0.008 A 
ATOM     20  C   UNL     1      -1.643   2.737  -1.186  0.00  0.00    +0.038 A 
ATOM     21  C   UNL     1      -2.470   3.260   1.023  0.00  0.00    +0.000 A 
ATOM     22  C   UNL     1      -1.569   3.493  -0.016  0.00  0.00    +0.003 A 
ENDBRANCH  13  15
ENDBRANCH   3  13
ENDBRANCH  14   9
TORSDOF 5
