REMARK  Name = 11943194
REMARK  10 active torsions:
REMARK  status: ('A' for Active; 'I' for Inactive)
REMARK    1  A    between atoms: O_1  and  C_15
REMARK    2  A    between atoms: O_1  and  C_17
REMARK    3  A    between atoms: O_3  and  C_21
REMARK    4  A    between atoms: O_3  and  C_24
REMARK    5  A    between atoms: O_4  and  C_22
REMARK    6  A    between atoms: O_4  and  C_25
REMARK    7  A    between atoms: N_6  and  C_18
REMARK    8  A    between atoms: C_8  and  C_14
REMARK    9  A    between atoms: C_10  and  C_15
REMARK   10  A    between atoms: C_14  and  C_16
REMARK                            x       y       z     vdW  Elec       q    Type
REMARK                         _______ _______ _______ _____ _____    ______ ____
ROOT
ATOM      2  O   UNL     1      -0.445   1.357   0.929  0.00  0.00    -0.226 OA
ATOM      6  N   UNL     1      -1.331  -0.684   0.200  0.00  0.00    -0.251 N 
ATOM     17  C   UNL     1      -0.333   0.181   0.604  0.00  0.00    +0.405 C 
ATOM     26  H   UNL     1      -1.038  -1.630  -0.031  0.00  0.00    +0.158 HD
ENDROOT
BRANCH   6  18
ATOM     18  C   UNL     1      -2.713  -0.417   0.069  0.00  0.00    +0.043 A 
ATOM     19  C   UNL     1      -3.562  -1.427  -0.354  0.00  0.00    +0.069 A 
ATOM     20  C   UNL     1      -3.192   0.849   0.366  0.00  0.00    +0.069 A 
ATOM     21  C   UNL     1      -4.555   1.112   0.237  0.00  0.00    +0.125 A 
ATOM     22  C   UNL     1      -4.926  -1.164  -0.483  0.00  0.00    +0.125 A 
ATOM     23  C   UNL     1      -5.423   0.105  -0.188  0.00  0.00    +0.091 A 
BRANCH  21   3
ATOM      3  O   UNL     1      -5.040   2.351   0.524  0.00  0.00    -0.495 OA
ATOM     24  C   UNL     1      -6.445   2.550   0.370  0.00  0.00    +0.277 C 
ENDBRANCH  21   3
BRANCH  22   4
ATOM      4  O   UNL     1      -5.773  -2.146  -0.898  0.00  0.00    -0.495 OA
ATOM     25  C   UNL     1      -7.154  -1.808  -1.008  0.00  0.00    +0.277 C 
ENDBRANCH  22   4
ENDBRANCH   6  18
BRANCH  17   1
ATOM      1  O   UNL     1       0.876  -0.480   0.594  0.00  0.00    -0.449 OA
BRANCH   1  15
ATOM     15  C   UNL     1       2.012   0.268   0.983  0.00  0.00    +0.252 C 
BRANCH  15  10
ATOM      5  N   UNL     1       4.471   0.018   1.413  0.00  0.00    -0.296 NA
ATOM      7  C   UNL     1       4.950  -1.110  -0.881  0.00  0.00    -0.004 C 
ATOM      8  C   UNL     1       5.394   0.371  -0.891  0.00  0.00    +0.006 C 
ATOM      9  C   UNL     1       3.455  -1.192  -0.525  0.00  0.00    +0.026 C 
ATOM     10  C   UNL     1       3.239  -0.643   0.903  0.00  0.00    +0.094 C 
ATOM     11  C   UNL     1       4.955   1.025   0.439  0.00  0.00    +0.088 C 
ATOM     12  C   UNL     1       5.728  -1.803   0.254  0.00  0.00    +0.019 C 
ATOM     13  C   UNL     1       5.518  -1.022   1.563  0.00  0.00    +0.085 C 
BRANCH   8  14
ATOM     14  C   UNL     1       4.875   1.148  -2.099  0.00  0.00    +0.002 C 
ATOM     16  C   UNL     1       5.418   2.563  -2.121  0.00  0.00    +0.004 C 
ENDBRANCH   8  14
ENDBRANCH  15  10
ENDBRANCH   1  15
ENDBRANCH  17   1
TORSDOF 7
