REMARK  Name = 44716212
REMARK  6 active torsions:
REMARK  status: ('A' for Active; 'I' for Inactive)
REMARK    1  A    between atoms: N_3  and  C_15
REMARK    2  A    between atoms: N_4  and  C_18
REMARK    3  A    between atoms: N_4  and  C_19
REMARK    4  A    between atoms: C_9  and  C_16
REMARK    5  A    between atoms: C_10  and  C_15
REMARK    6  A    between atoms: C_20  and  C_21
REMARK                            x       y       z     vdW  Elec       q    Type
REMARK                         _______ _______ _______ _____ _____    ______ ____
ROOT
ATOM      2  N   UNL     1      -2.319   1.515  -1.070  0.00  0.00    -0.297 NA
ATOM      8  C   UNL     1      -2.470   0.186   1.162  0.00  0.00    +0.005 C 
ATOM      9  C   UNL     1      -3.451  -0.370   0.111  0.00  0.00    +0.092 C 
ATOM     10  C   UNL     1      -1.059   0.757  -0.837  0.00  0.00    +0.078 C 
ATOM     11  C   UNL     1      -1.056   0.093   0.561  0.00  0.00    +0.025 C 
ATOM     12  C   UNL     1      -2.752   1.683   1.385  0.00  0.00    +0.020 C 
ATOM     13  C   UNL     1      -3.443   0.545  -1.128  0.00  0.00    +0.097 C 
ATOM     14  C   UNL     1      -2.587   2.437   0.057  0.00  0.00    +0.085 C 
ENDROOT
BRANCH   9  16
ATOM      1  O   UNL     1      -5.218   0.267   1.543  0.00  0.00    -0.275 OA
ATOM      4  N   UNL     1      -5.612  -1.554   0.154  0.00  0.00    -0.307 N 
ATOM     16  C   UNL     1      -4.835  -0.517   0.671  0.00  0.00    +0.220 C 
ATOM     18  C   UNL     1      -5.119  -2.460  -0.880  0.00  0.00    +0.131 C 
ATOM     19  C   UNL     1      -6.973  -1.809   0.609  0.00  0.00    +0.131 C 
ENDBRANCH   9  16
BRANCH  10  15
ATOM     15  C   UNL     1       0.184   1.621  -1.056  0.00  0.00    +0.164 C 
BRANCH  15   3
ATOM      3  N   UNL     1       1.443   0.803  -0.998  0.00  0.00    -0.250 N 
ATOM      5  N   UNL     1       1.630  -0.227  -1.839  0.00  0.00    -0.065 NA
ATOM      6  N   UNL     1       2.815  -0.756  -1.557  0.00  0.00    -0.128 NA
ATOM     17  C   UNL     1       2.501   0.962  -0.156  0.00  0.00    +0.140 A 
ATOM     20  C   UNL     1       3.362  -0.040  -0.529  0.00  0.00    +0.131 A 
BRANCH  20  21
ATOM      7  N   UNL     1       4.997   0.522   1.067  0.00  0.00    -0.253 NA
ATOM     21  C   UNL     1       4.636  -0.303   0.059  0.00  0.00    +0.092 A 
ATOM     22  C   UNL     1       5.418  -1.348  -0.407  0.00  0.00    +0.030 A 
ATOM     23  C   UNL     1       6.650  -1.559   0.202  0.00  0.00    +0.004 A 
ATOM     24  C   UNL     1       6.201   0.286   1.634  0.00  0.00    +0.111 A 
ATOM     25  C   UNL     1       7.057  -0.731   1.242  0.00  0.00    +0.020 A 
ENDBRANCH  20  21
ENDBRANCH  15   3
ENDBRANCH  10  15
TORSDOF 4
