REMARK  Name = 7049320
REMARK  10 active torsions:
REMARK  status: ('A' for Active; 'I' for Inactive)
REMARK    1  A    between atoms: O_1  and  C_10
REMARK    2  A    between atoms: O_2  and  C_12
REMARK    3  A    between atoms: N_6  and  C_11
REMARK    4  A    between atoms: N_7  and  C_19
REMARK    5  A    between atoms: N_8  and  C_20
REMARK    6  A    between atoms: C_14  and  C_16
REMARK    7  A    between atoms: C_17  and  C_18
REMARK    8  A    between atoms: C_18  and  C_20
REMARK    9  A    between atoms: C_19  and  C_21
REMARK   10  A    between atoms: C_19  and  C_22
REMARK                            x       y       z     vdW  Elec       q    Type
REMARK                         _______ _______ _______ _____ _____    ______ ____
ROOT
ATOM     10  C   UNL     1      -1.584   1.866   0.881  0.00  0.00    +0.167 C 
ATOM     11  C   UNL     1      -1.464   0.866  -0.284  0.00  0.00    +0.127 C 
ATOM     12  C   UNL     1      -0.594   3.027   0.731  0.00  0.00    +0.149 C 
ATOM     13  C   UNL     1       0.858   2.537   0.598  0.00  0.00    +0.074 C 
ATOM     14  C   UNL     1       0.993   1.293  -0.234  0.00  0.00    +0.015 C 
ATOM     15  C   UNL     1      -0.039   0.539  -0.643  0.00  0.00    +0.006 C 
ENDROOT
BRANCH  14  16
ATOM      3  O   UNL     1       3.049   1.624  -1.321  0.00  0.00    -0.271 OA
ATOM      7  N   UNL     1       2.675  -0.386  -0.200  0.00  0.00    -0.301 N 
ATOM     16  C   UNL     1       2.338   0.880  -0.646  0.00  0.00    +0.240 C 
ATOM     26  H   UNL     1       2.004  -0.915   0.350  0.00  0.00    +0.150 HD
BRANCH   7  19
ATOM     19  C   UNL     1       3.947  -1.010  -0.483  0.00  0.00    +0.156 C 
ATOM     21  C   UNL     1       3.889  -1.814  -1.772  0.00  0.00    +0.038 C 
BRANCH  19  22
ATOM      5  O   UNL     1       3.492  -2.511   1.371  0.00  0.00    -0.274 OA
ATOM      9  N   UNL     1       5.676  -1.974   0.904  0.00  0.00    -0.328 N 
ATOM     22  C   UNL     1       4.315  -1.896   0.697  0.00  0.00    +0.231 C 
ATOM     29  H   UNL     1       6.057  -2.542   1.653  0.00  0.00    +0.145 HD
ATOM     30  H   UNL     1       6.346  -1.476   0.326  0.00  0.00    +0.145 HD
ENDBRANCH  19  22
ENDBRANCH   7  19
ENDBRANCH  14  16
BRANCH  11   6
ATOM      4  O   UNL     1      -4.213   0.310  -0.874  0.00  0.00    -0.276 OA
ATOM      6  N   UNL     1      -2.168  -0.362  -0.007  0.00  0.00    -0.306 N 
ATOM     17  C   UNL     1      -3.506  -0.535  -0.332  0.00  0.00    +0.215 C 
ATOM     23  H   UNL     1      -1.676  -1.107   0.480  0.00  0.00    +0.149 HD
BRANCH  17  18
ATOM     18  C   UNL     1      -4.006  -1.913   0.063  0.00  0.00    +0.110 C 
BRANCH  18  20
ATOM     20  C   UNL     1      -5.476  -2.118  -0.289  0.00  0.00    +0.087 C 
BRANCH  20   8
ATOM      8  N   UNL     1      -5.915  -3.446   0.120  0.00  0.00    -0.330 NA
ATOM     27  H   UNL     1      -6.883  -3.586  -0.168  0.00  0.00    +0.118 HD
ATOM     28  H   UNL     1      -5.367  -4.154  -0.367  0.00  0.00    +0.118 HD
ENDBRANCH  20   8
ENDBRANCH  18  20
ENDBRANCH  17  18
ENDBRANCH  11   6
BRANCH  10   1
ATOM      1  O   UNL     1      -1.322   1.196   2.117  0.00  0.00    -0.387 OA
ATOM     24  H   UNL     1      -1.435   1.846   2.831  0.00  0.00    +0.210 HD
ENDBRANCH  10   1
BRANCH  12   2
ATOM      2  O   UNL     1      -0.945   3.828  -0.396  0.00  0.00    -0.389 OA
ATOM     25  H   UNL     1      -0.324   4.576  -0.430  0.00  0.00    +0.210 HD
ENDBRANCH  12   2
TORSDOF 9
