REMARK  Name = 40780412
REMARK  9 active torsions:
REMARK  status: ('A' for Active; 'I' for Inactive)
REMARK    1  A    between atoms: O_2  and  C_24
REMARK    2  A    between atoms: O_2  and  C_26
REMARK    3  A    between atoms: N_3  and  C_9
REMARK    4  A    between atoms: N_4  and  C_17
REMARK    5  A    between atoms: N_6  and  C_21
REMARK    6  A    between atoms: C_7  and  C_10
REMARK    7  A    between atoms: C_13  and  C_15
REMARK    8  A    between atoms: C_14  and  C_16
REMARK    9  A    between atoms: C_21  and  C_25
REMARK                            x       y       z     vdW  Elec       q    Type
REMARK                         _______ _______ _______ _____ _____    ______ ____
ROOT
ATOM      4  N   UNL     1       2.131  -0.739   0.217  0.00  0.00    -0.236 N 
ATOM      5  N   UNL     1       1.978  -1.974   0.725  0.00  0.00    -0.171 NA
ATOM     10  C   UNL     1       0.007  -1.152  -0.086  0.00  0.00    +0.003 A 
ATOM     13  C   UNL     1       0.980  -0.202  -0.281  0.00  0.00    +0.046 A 
ATOM     14  C   UNL     1       0.679  -2.221   0.537  0.00  0.00    +0.064 A 
ATOM     15  C   UNL     1       0.909   1.143  -0.887  0.00  0.00    +0.066 C 
ATOM     16  C   UNL     1       0.116  -3.510   0.976  0.00  0.00    +0.068 C 
ENDROOT
BRANCH   4  17
ATOM     17  C   UNL     1       3.388  -0.133   0.236  0.00  0.00    +0.066 A 
ATOM     19  C   UNL     1       3.570   1.071   0.916  0.00  0.00    +0.031 A 
ATOM     20  C   UNL     1       4.461  -0.731  -0.425  0.00  0.00    +0.031 A 
ATOM     22  C   UNL     1       4.826   1.678   0.934  0.00  0.00    +0.048 A 
ATOM     23  C   UNL     1       5.716  -0.124  -0.406  0.00  0.00    +0.048 A 
ATOM     24  C   UNL     1       5.899   1.081   0.273  0.00  0.00    +0.120 A 
BRANCH  24   2
ATOM      2  O   UNL     1       7.125   1.673   0.291  0.00  0.00    -0.495 OA
ATOM     26  C   UNL     1       8.177   1.007  -0.406  0.00  0.00    +0.277 C 
ENDBRANCH  24   2
ENDBRANCH   4  17
BRANCH  10   7
ATOM      7  C   UNL     1      -1.455  -1.065  -0.457  0.00  0.00    +0.047 C 
ATOM      8  C   UNL     1      -2.188   0.106   0.227  0.00  0.00    +0.039 C 
ATOM      9  C   UNL     1      -3.242   0.597  -0.779  0.00  0.00    +0.098 C 
ATOM     11  C   UNL     1      -1.720  -0.800  -1.910  0.00  0.00    -0.021 C 
ATOM     12  C   UNL     1      -2.696   0.098  -2.080  0.00  0.00    -0.009 C 
BRANCH   9   3
ATOM      1  O   UNL     1      -5.363   1.787   0.800  0.00  0.00    -0.253 OA
ATOM      3  N   UNL     1      -4.562   0.040  -0.505  0.00  0.00    -0.293 N 
ATOM      6  N   UNL     1      -6.693  -0.066   0.372  0.00  0.00    -0.300 N 
ATOM     18  C   UNL     1      -5.526   0.688   0.272  0.00  0.00    +0.300 C 
ATOM     27  H   UNL     1      -4.780  -0.885  -0.864  0.00  0.00    +0.151 HD
ATOM     28  H   UNL     1      -6.740  -0.959  -0.109  0.00  0.00    +0.150 HD
BRANCH   6  21
ATOM     21  C   UNL     1      -7.847   0.375   1.119  0.00  0.00    +0.102 C 
ATOM     25  C   UNL     1      -8.671   1.372   0.329  0.00  0.00    +0.024 C 
ENDBRANCH   6  21
ENDBRANCH   9   3
ENDBRANCH  10   7
TORSDOF 5
