REMARK  Name = 26762283
REMARK  11 active torsions:
REMARK  status: ('A' for Active; 'I' for Inactive)
REMARK    1  A    between atoms: O_4  and  C_30
REMARK    2  A    between atoms: O_4  and  C_31
REMARK    3  A    between atoms: N_7  and  C_12
REMARK    4  A    between atoms: N_8  and  C_21
REMARK    5  A    between atoms: N_9  and  C_22
REMARK    6  A    between atoms: C_11  and  C_17
REMARK    7  A    between atoms: C_17  and  C_18
REMARK    8  A    between atoms: C_18  and  C_20
REMARK    9  A    between atoms: C_21  and  C_23
REMARK   10  A    between atoms: C_21  and  C_24
REMARK   11  A    between atoms: C_22  and  C_25
REMARK                            x       y       z     vdW  Elec       q    Type
REMARK                         _______ _______ _______ _____ _____    ______ ____
ROOT
ATOM      1  O   UNL     1       0.965   1.935   3.720  0.00  0.00    -0.274 OA
ATOM      5  N   UNL     1       0.501   1.430   0.251  0.00  0.00    -0.285 NA
ATOM      6  N   UNL     1      -0.430   3.030   2.263  0.00  0.00    -0.313 N 
ATOM     10  C   UNL     1       0.513   0.879   1.609  0.00  0.00    +0.145 C 
ATOM     11  C   UNL     1      -0.793   2.057  -0.026  0.00  0.00    +0.075 C 
ATOM     12  C   UNL     1       2.005  -0.359   0.180  0.00  0.00    +0.090 C 
ATOM     13  C   UNL     1       1.813   0.090   1.634  0.00  0.00    +0.052 C 
ATOM     14  C   UNL     1       0.867   0.300  -0.603  0.00  0.00    +0.107 C 
ATOM     15  C   UNL     1      -0.908   3.269   0.909  0.00  0.00    +0.123 C 
ATOM     16  C   UNL     1       0.416   1.998   2.621  0.00  0.00    +0.230 C 
ATOM     32  H   UNL     1      -0.582   3.767   2.945  0.00  0.00    +0.149 HD
ENDROOT
BRANCH  12   7
ATOM      2  O   UNL     1       4.443  -1.902   0.263  0.00  0.00    -0.253 OA
ATOM      7  N   UNL     1       3.299   0.034  -0.319  0.00  0.00    -0.295 N 
ATOM      8  N   UNL     1       5.543  -0.154  -0.796  0.00  0.00    -0.297 N 
ATOM     19  C   UNL     1       4.430  -0.778  -0.238  0.00  0.00    +0.300 C 
ATOM     33  H   UNL     1       3.411   0.976  -0.683  0.00  0.00    +0.151 HD
ATOM     34  H   UNL     1       5.414   0.743  -1.254  0.00  0.00    +0.150 HD
BRANCH   8  21
ATOM     21  C   UNL     1       6.846  -0.774  -0.843  0.00  0.00    +0.068 C 
ATOM     23  C   UNL     1       7.939   0.282  -0.746  0.00  0.00    +0.027 C 
ATOM     24  C   UNL     1       6.995  -1.609  -2.109  0.00  0.00    +0.027 C 
ENDBRANCH   8  21
ENDBRANCH  12   7
BRANCH  11  17
ATOM     17  C   UNL     1      -0.939   2.515  -1.479  0.00  0.00    +0.029 C 
BRANCH  17  18
ATOM     18  C   UNL     1      -2.303   3.143  -1.722  0.00  0.00    +0.097 C 
BRANCH  18  20
ATOM      3  O   UNL     1      -4.301   2.395  -0.578  0.00  0.00    -0.276 OA
ATOM      9  N   UNL     1      -3.366   1.044  -2.217  0.00  0.00    -0.311 N 
ATOM     20  C   UNL     1      -3.437   2.179  -1.423  0.00  0.00    +0.213 C 
ATOM     35  H   UNL     1      -2.636   0.956  -2.916  0.00  0.00    +0.149 HD
BRANCH   9  22
ATOM     22  C   UNL     1      -4.332  -0.025  -2.121  0.00  0.00    +0.139 C 
BRANCH  22  25
ATOM     25  C   UNL     1      -3.921  -1.066  -1.120  0.00  0.00    -0.030 A 
ATOM     26  C   UNL     1      -2.913  -1.978  -1.435  0.00  0.00    +0.009 A 
ATOM     27  C   UNL     1      -4.547  -1.121   0.125  0.00  0.00    +0.009 A 
ATOM     28  C   UNL     1      -2.531  -2.944  -0.505  0.00  0.00    +0.046 A 
ATOM     29  C   UNL     1      -4.165  -2.088   1.055  0.00  0.00    +0.046 A 
ATOM     30  C   UNL     1      -3.157  -2.999   0.740  0.00  0.00    +0.120 A 
BRANCH  30   4
ATOM      4  O   UNL     1      -2.784  -3.942   1.648  0.00  0.00    -0.495 OA
ATOM     31  C   UNL     1      -1.746  -4.841   1.261  0.00  0.00    +0.277 C 
ENDBRANCH  30   4
ENDBRANCH  22  25
ENDBRANCH   9  22
ENDBRANCH  18  20
ENDBRANCH  17  18
ENDBRANCH  11  17
TORSDOF 8
