REMARK  Name = 11886074
REMARK  7 active torsions:
REMARK  status: ('A' for Active; 'I' for Inactive)
REMARK    1  A    between atoms: O_3  and  C_13
REMARK    2  A    between atoms: O_3  and  C_17
REMARK    3  A    between atoms: N_5  and  C_12
REMARK    4  A    between atoms: N_9  and  C_24
REMARK    5  A    between atoms: C_16  and  C_18
REMARK    6  A    between atoms: C_23  and  C_25
REMARK    7  A    between atoms: C_32  and  C_35
REMARK                            x       y       z     vdW  Elec       q    Type
REMARK                         _______ _______ _______ _____ _____    ______ ____
ROOT
ATOM      1  O   UNL     1       1.762   0.349  -1.266  0.00  0.00    -0.368 OA
ATOM      2  O   UNL     1      -0.366  -1.621  -0.194  0.00  0.00    -0.368 OA
ATOM     10  C   UNL     1      -0.057  -0.250   0.141  0.00  0.00    +0.177 C 
ATOM     11  C   UNL     1       1.450  -0.108   0.059  0.00  0.00    +0.192 C 
ATOM     12  C   UNL     1      -0.585   0.669  -0.943  0.00  0.00    +0.168 C 
ATOM     13  C   UNL     1       1.930  -1.522   0.289  0.00  0.00    +0.235 C 
ATOM     14  C   UNL     1       0.549   0.671  -1.963  0.00  0.00    +0.190 C 
ATOM     15  C   UNL     1       0.860  -2.336  -0.400  0.00  0.00    +0.207 C 
ENDROOT
BRANCH  12   5
ATOM      5  N   UNL     1      -0.967   1.985  -0.426  0.00  0.00    -0.217 N 
ATOM      6  N   UNL     1      -0.066   2.969  -0.340  0.00  0.00    -0.043 NA
ATOM      7  N   UNL     1      -2.054   3.668   0.388  0.00  0.00    -0.108 NA
ATOM      8  N   UNL     1      -0.737   3.999   0.159  0.00  0.00    -0.023 NA
ATOM     16  C   UNL     1      -2.173   2.414   0.016  0.00  0.00    +0.182 A 
BRANCH  16  18
ATOM     18  C   UNL     1      -3.365   1.607   0.061  0.00  0.00    +0.021 A 
ATOM     19  C   UNL     1      -3.660   0.857   1.201  0.00  0.00    +0.012 A 
ATOM     20  C   UNL     1      -4.228   1.573  -1.036  0.00  0.00    +0.012 A 
ATOM     21  C   UNL     1      -4.815   0.075   1.243  0.00  0.00    +0.009 A 
ATOM     22  C   UNL     1      -5.383   0.791  -0.993  0.00  0.00    +0.009 A 
ATOM     23  C   UNL     1      -5.676   0.043   0.147  0.00  0.00    -0.018 A 
BRANCH  23  25
ATOM     25  C   UNL     1      -6.873  -0.768   0.191  0.00  0.00    -0.018 A 
ATOM     30  C   UNL     1      -8.067  -0.225   0.667  0.00  0.00    +0.008 A 
ATOM     31  C   UNL     1      -6.835  -2.094  -0.243  0.00  0.00    +0.008 A 
ATOM     33  C   UNL     1      -9.221  -1.007   0.709  0.00  0.00    +0.001 A 
ATOM     34  C   UNL     1      -7.989  -2.875  -0.201  0.00  0.00    +0.001 A 
ATOM     36  C   UNL     1      -9.182  -2.332   0.276  0.00  0.00    +0.000 A 
ENDBRANCH  23  25
ENDBRANCH  16  18
ENDBRANCH  12   5
BRANCH  13   3
ATOM      3  O   UNL     1       3.213  -1.774  -0.238  0.00  0.00    -0.442 OA
BRANCH   3  17
ATOM      4  O   UNL     1       4.107  -0.222   1.183  0.00  0.00    -0.226 OA
ATOM      9  N   UNL     1       5.438  -1.416  -0.328  0.00  0.00    -0.251 N 
ATOM     17  C   UNL     1       4.260  -1.050   0.294  0.00  0.00    +0.405 C 
ATOM     37  H   UNL     1       5.362  -2.129  -1.049  0.00  0.00    +0.158 HD
BRANCH   9  24
ATOM     24  C   UNL     1       6.740  -0.922  -0.085  0.00  0.00    +0.036 A 
ATOM     26  C   UNL     1       6.928   0.052   0.882  0.00  0.00    +0.023 A 
ATOM     27  C   UNL     1       7.803  -1.421  -0.821  0.00  0.00    +0.023 A 
ATOM     28  C   UNL     1       8.213   0.540   1.121  0.00  0.00    +0.005 A 
ATOM     29  C   UNL     1       9.088  -0.933  -0.582  0.00  0.00    +0.005 A 
ATOM     32  C   UNL     1       9.293   0.047   0.389  0.00  0.00    -0.050 A 
ATOM     35  C   UNL     1      10.666   0.569   0.644  0.00  0.00    +0.044 C 
ENDBRANCH   9  24
ENDBRANCH   3  17
ENDBRANCH  13   3
TORSDOF 6
