REMARK  Name = 11867036
REMARK  9 active torsions:
REMARK  status: ('A' for Active; 'I' for Inactive)
REMARK    1  A    between atoms: O_3  and  C_13
REMARK    2  A    between atoms: O_4  and  C_18
REMARK    3  A    between atoms: N_7  and  C_25
REMARK    4  A    between atoms: C_8  and  C_16
REMARK    5  A    between atoms: C_10  and  C_18
REMARK    6  A    between atoms: C_10  and  C_19
REMARK    7  A    between atoms: C_11  and  C_21
REMARK    8  A    between atoms: C_21  and  C_22
REMARK    9  A    between atoms: C_23  and  C_24
REMARK                            x       y       z     vdW  Elec       q    Type
REMARK                         _______ _______ _______ _____ _____    ______ ____
ROOT
ATOM      1  S   UNL     1      -0.329   3.159   0.289  0.00  0.00    -0.072 S 
ATOM      6  N   UNL     1       0.924   0.943  -0.173  0.00  0.00    -0.243 NA
ATOM      8  C   UNL     1      -2.439  -0.895   0.251  0.00  0.00    -0.020 C 
ATOM      9  C   UNL     1      -3.275   0.343  -0.299  0.00  0.00    +0.011 C 
ATOM     10  C   UNL     1      -4.847   0.222  -0.253  0.00  0.00    +0.021 C 
ATOM     11  C   UNL     1      -0.940  -0.754  -0.283  0.00  0.00    +0.053 C 
ATOM     12  C   UNL     1      -3.036  -2.211  -0.311  0.00  0.00    +0.010 C 
ATOM     13  C   UNL     1      -5.270  -1.167  -0.808  0.00  0.00    +0.123 C 
ATOM     14  C   UNL     1      -2.733   1.690   0.263  0.00  0.00    +0.049 C 
ATOM     15  C   UNL     1      -4.544  -2.328  -0.138  0.00  0.00    +0.032 C 
ATOM     16  C   UNL     1      -2.429  -0.975   1.798  0.00  0.00    +0.012 C 
ATOM     17  C   UNL     1      -0.424   0.649  -0.086  0.00  0.00    +0.056 A 
ATOM     19  C   UNL     1      -5.466   1.301  -1.187  0.00  0.00    +0.016 C 
ATOM     20  C   UNL     1      -1.248   1.733   0.139  0.00  0.00    +0.014 A 
ATOM     23  C   UNL     1       1.092   2.234   0.016  0.00  0.00    +0.109 A 
ENDROOT
BRANCH  23  24
ATOM      2  S   UNL     1       4.977   3.124  -0.201  0.00  0.00    -0.104 S 
ATOM     24  C   UNL     1       2.434   2.857  -0.007  0.00  0.00    +0.014 A 
ATOM     26  C   UNL     1       2.696   4.241   0.186  0.00  0.00    +0.018 A 
ATOM     27  C   UNL     1       3.581   2.132  -0.228  0.00  0.00    +0.055 A 
ATOM     28  C   UNL     1       4.042   4.525   0.106  0.00  0.00    +0.046 A 
ENDBRANCH  23  24
BRANCH  13   3
ATOM      3  O   UNL     1      -6.677  -1.360  -0.661  0.00  0.00    -0.391 OA
ATOM     34  H   UNL     1      -7.125  -0.831  -1.341  0.00  0.00    +0.210 HD
ENDBRANCH  13   3
BRANCH  10  18
ATOM     18  C   UNL     1      -5.469   0.472   1.138  0.00  0.00    +0.165 C 
BRANCH  18   4
ATOM      4  O   UNL     1      -6.867   0.341   1.016  0.00  0.00    -0.394 OA
ATOM     35  H   UNL     1      -7.230   1.206   0.759  0.00  0.00    +0.209 HD
ENDBRANCH  18   4
ENDBRANCH  10  18
BRANCH  11  21
ATOM     21  C   UNL     1       0.038  -1.795   0.278  0.00  0.00    +0.106 C 
BRANCH  21  22
ATOM      5  O   UNL     1       1.557  -1.343  -1.536  0.00  0.00    -0.275 OA
ATOM      7  N   UNL     1       2.388  -2.101   0.526  0.00  0.00    -0.285 N 
ATOM     22  C   UNL     1       1.402  -1.710  -0.376  0.00  0.00    +0.218 C 
ATOM     36  H   UNL     1       2.093  -2.389   1.456  0.00  0.00    +0.155 HD
BRANCH   7  25
ATOM     25  C   UNL     1       3.784  -2.162   0.305  0.00  0.00    +0.033 A 
ATOM     29  C   UNL     1       4.614  -2.579   1.332  0.00  0.00    +0.023 A 
ATOM     30  C   UNL     1       4.291  -1.802  -0.933  0.00  0.00    +0.023 A 
ATOM     31  C   UNL     1       5.991  -2.640   1.114  0.00  0.00    +0.002 A 
ATOM     32  C   UNL     1       5.667  -1.863  -1.150  0.00  0.00    +0.002 A 
ATOM     33  C   UNL     1       6.517  -2.281  -0.127  0.00  0.00    +0.000 A 
ENDBRANCH   7  25
ENDBRANCH  21  22
ENDBRANCH  11  21
TORSDOF 7
