REMARK  Name = 51137092
REMARK  5 active torsions:
REMARK  status: ('A' for Active; 'I' for Inactive)
REMARK    1  A    between atoms: S_2  and  C_18
REMARK    2  A    between atoms: S_2  and  C_25
REMARK    3  A    between atoms: N_5  and  C_11
REMARK    4  A    between atoms: C_7  and  C_12
REMARK    5  A    between atoms: C_11  and  C_13
REMARK                            x       y       z     vdW  Elec       q    Type
REMARK                         _______ _______ _______ _____ _____    ______ ____
ROOT
ATOM      5  N   UNL     1      -0.321  -0.274  -0.329  0.00  0.00    -0.297 NA
ATOM      7  C   UNL     1       1.820  -1.016   0.277  0.00  0.00    +0.060 C 
ATOM      8  C   UNL     1       1.005  -0.490  -0.913  0.00  0.00    +0.095 C 
ATOM      9  C   UNL     1       1.094  -0.469   1.518  0.00  0.00    +0.027 C 
ATOM     10  C   UNL     1      -0.065   0.352   0.968  0.00  0.00    +0.085 C 
ENDROOT
BRANCH   7  12
ATOM      1  S   UNL     1       4.447  -1.914   0.144  0.00  0.00    -0.072 S 
ATOM      6  N   UNL     1       3.748   0.569   0.148  0.00  0.00    -0.244 NA
ATOM     12  C   UNL     1       3.286  -0.659   0.190  0.00  0.00    +0.084 A 
ATOM     14  C   UNL     1       5.703  -0.735   0.058  0.00  0.00    +0.039 A 
ATOM     15  C   UNL     1       5.133   0.542   0.072  0.00  0.00    +0.078 A 
ATOM     21  C   UNL     1       7.092  -0.927  -0.016  0.00  0.00    +0.017 A 
ATOM     22  C   UNL     1       5.987   1.665   0.009  0.00  0.00    +0.029 A 
ATOM     23  C   UNL     1       7.914   0.202  -0.076  0.00  0.00    +0.001 A 
ATOM     24  C   UNL     1       7.370   1.481  -0.064  0.00  0.00    +0.002 A 
ENDBRANCH   7  12
BRANCH   5  11
ATOM     11  C   UNL     1      -1.176   0.541  -1.179  0.00  0.00    +0.119 C 
BRANCH  11  13
ATOM     13  C   UNL     1      -2.629   0.400  -0.812  0.00  0.00    -0.033 A 
ATOM     16  C   UNL     1      -3.336  -0.742  -1.188  0.00  0.00    +0.007 A 
ATOM     17  C   UNL     1      -3.269   1.412  -0.096  0.00  0.00    +0.007 A 
ATOM     18  C   UNL     1      -5.322   0.140  -0.132  0.00  0.00    +0.088 A 
ATOM     19  C   UNL     1      -4.682  -0.872  -0.848  0.00  0.00    +0.027 A 
ATOM     20  C   UNL     1      -4.615   1.282   0.244  0.00  0.00    +0.027 A 
BRANCH  18   2
ATOM      2  S   UNL     1      -7.006  -0.025   0.297  0.00  0.00    -0.006 S 
ATOM      3  O   UNL     1      -7.574   1.301   0.501  0.00  0.00    -0.170 OA
ATOM      4  O   UNL     1      -7.624  -0.936  -0.656  0.00  0.00    -0.170 OA
ATOM     25  C   UNL     1      -6.982  -0.828   1.884  0.00  0.00    +0.200 C 
ENDBRANCH  18   2
ENDBRANCH  11  13
ENDBRANCH   5  11
TORSDOF 4
