REMARK  Name = 11867589
REMARK  8 active torsions:
REMARK  status: ('A' for Active; 'I' for Inactive)
REMARK    1  A    between atoms: N_4  and  C_11
REMARK    2  A    between atoms: N_5  and  C_12
REMARK    3  A    between atoms: N_8  and  C_30
REMARK    4  A    between atoms: N_8  and  C_31
REMARK    5  A    between atoms: N_8  and  C_32
REMARK    6  A    between atoms: C_15  and  C_18
REMARK    7  A    between atoms: C_18  and  C_22
REMARK    8  A    between atoms: C_24  and  C_25
REMARK                            x       y       z     vdW  Elec       q    Type
REMARK                         _______ _______ _______ _____ _____    ______ ____
ROOT
ATOM      1  O   UNL     1       0.363  -3.596   1.074  0.00  0.00    -0.370 OA
ATOM      2  O   UNL     1      -0.174  -2.453  -1.806  0.00  0.00    -0.370 OA
ATOM      9  C   UNL     1       0.532  -1.960  -0.652  0.00  0.00    +0.175 C 
ATOM     10  C   UNL     1      -0.250  -2.398   0.571  0.00  0.00    +0.171 C 
ATOM     11  C   UNL     1       1.869  -2.664  -0.527  0.00  0.00    +0.166 C 
ATOM     12  C   UNL     1      -1.634  -2.700   0.042  0.00  0.00    +0.130 C 
ATOM     13  C   UNL     1       1.531  -3.900   0.299  0.00  0.00    +0.190 C 
ATOM     14  C   UNL     1      -1.346  -3.159  -1.375  0.00  0.00    +0.185 C 
ENDROOT
BRANCH  11   4
ATOM      4  N   UNL     1       2.907  -1.802   0.044  0.00  0.00    -0.244 N 
ATOM      6  N   UNL     1       2.741  -1.238   1.251  0.00  0.00    -0.065 NA
ATOM      7  N   UNL     1       3.827  -0.516   1.502  0.00  0.00    -0.134 NA
ATOM     19  C   UNL     1       4.101  -1.457  -0.511  0.00  0.00    +0.134 A 
ATOM     22  C   UNL     1       4.646  -0.652   0.433  0.00  0.00    +0.083 A 
BRANCH  22  18
ATOM     18  C   UNL     1       5.969   0.046   0.402  0.00  0.00    +0.062 C 
BRANCH  18  15
ATOM     15  C   UNL     1       5.875   1.439  -0.217  0.00  0.00    -0.005 C 
ATOM     16  C   UNL     1       7.248   1.901  -0.724  0.00  0.00    +0.004 C 
ATOM     17  C   UNL     1       5.299   2.442   0.791  0.00  0.00    +0.004 C 
ATOM     20  C   UNL     1       7.191   3.314  -1.300  0.00  0.00    +0.000 C 
ATOM     21  C   UNL     1       5.244   3.855   0.212  0.00  0.00    +0.000 C 
ATOM     23  C   UNL     1       6.609   4.307  -0.298  0.00  0.00    +0.000 C 
ENDBRANCH  18  15
ENDBRANCH  22  18
ENDBRANCH  11   4
BRANCH  12   5
ATOM      3  O   UNL     1      -4.502  -2.624   0.173  0.00  0.00    -0.270 OA
ATOM      5  N   UNL     1      -2.465  -1.521   0.051  0.00  0.00    -0.304 N 
ATOM     24  C   UNL     1      -3.850  -1.584   0.117  0.00  0.00    +0.244 C 
ATOM     33  H   UNL     1      -2.002  -0.632  -0.110  0.00  0.00    +0.149 HD
BRANCH  24  25
ATOM     25  C   UNL     1      -4.563  -0.281   0.090  0.00  0.00    +0.037 A 
ATOM     26  C   UNL     1      -5.851  -0.237  -0.402  0.00  0.00    +0.015 A 
ATOM     27  C   UNL     1      -3.915   0.843   0.559  0.00  0.00    +0.015 A 
ATOM     28  C   UNL     1      -6.521   0.987  -0.426  0.00  0.00    +0.024 A 
ATOM     29  C   UNL     1      -4.584   2.066   0.536  0.00  0.00    +0.024 A 
ATOM     30  C   UNL     1      -5.887   2.138   0.043  0.00  0.00    +0.029 A 
BRANCH  30   8
ATOM      8  N   UNL     1      -6.565   3.375   0.020  0.00  0.00    -0.336 N 
ATOM     31  C   UNL     1      -6.282   4.385   1.020  0.00  0.00    +0.129 C 
ATOM     32  C   UNL     1      -7.563   3.646  -0.995  0.00  0.00    +0.129 C 
ENDBRANCH  30   8
ENDBRANCH  24  25
ENDBRANCH  12   5
TORSDOF 6
