REMARK  Name = 45361424
REMARK  14 active torsions:
REMARK  status: ('A' for Active; 'I' for Inactive)
REMARK    1  A    between atoms: O_1  and  C_10
REMARK    2  A    between atoms: N_4  and  C_14
REMARK    3  A    between atoms: N_5  and  C_25
REMARK    4  A    between atoms: C_7  and  C_17
REMARK    5  A    between atoms: C_9  and  C_19
REMARK    6  A    between atoms: C_13  and  C_18
REMARK    7  A    between atoms: C_18  and  C_20
REMARK    8  A    between atoms: C_18  and  C_21
REMARK    9  A    between atoms: C_22  and  C_23
REMARK   10  A    between atoms: C_23  and  C_24
REMARK   11  A    between atoms: C_24  and  C_26
REMARK   12  A    between atoms: C_24  and  C_27
REMARK   13  A    between atoms: C_24  and  C_28
REMARK   14  A    between atoms: C_25  and  C_29
REMARK                            x       y       z     vdW  Elec       q    Type
REMARK                         _______ _______ _______ _____ _____    ______ ____
ROOT
ATOM      7  C   UNL     1      -0.429   0.393   0.949  0.00  0.00    -0.027 C 
ATOM      8  C   UNL     1      -0.647  -0.615  -0.229  0.00  0.00    +0.028 C 
ATOM      9  C   UNL     1      -2.152  -1.056  -0.315  0.00  0.00    +0.012 C 
ATOM     10  C   UNL     1       0.388  -1.776  -0.176  0.00  0.00    +0.122 C 
ATOM     11  C   UNL     1       1.035   0.893   0.935  0.00  0.00    +0.007 C 
ATOM     12  C   UNL     1      -1.347   1.619   0.739  0.00  0.00    +0.009 C 
ATOM     13  C   UNL     1       1.846  -1.269  -0.085  0.00  0.00    +0.029 C 
ATOM     14  C   UNL     1      -3.072   0.190  -0.449  0.00  0.00    +0.076 C 
ATOM     15  C   UNL     1       2.051  -0.239   1.026  0.00  0.00    +0.007 C 
ATOM     16  C   UNL     1      -2.819   1.250   0.622  0.00  0.00    +0.023 C 
ATOM     17  C   UNL     1      -0.726  -0.237   2.333  0.00  0.00    +0.011 C 
ATOM     19  C   UNL     1      -2.444  -2.028  -1.471  0.00  0.00    +0.010 C 
ENDROOT
BRANCH  14   4
ATOM      3  O   UNL     1      -5.259   1.503  -1.821  0.00  0.00    -0.276 OA
ATOM      4  N   UNL     1      -4.473  -0.172  -0.415  0.00  0.00    -0.312 N 
ATOM     22  C   UNL     1      -5.450   0.520  -1.107  0.00  0.00    +0.214 C 
ATOM     34  H   UNL     1      -4.743  -0.951   0.178  0.00  0.00    +0.149 HD
BRANCH  22  23
ATOM     23  C   UNL     1      -6.843  -0.053  -0.899  0.00  0.00    +0.102 C 
BRANCH  23  24
ATOM     24  C   UNL     1      -7.596   0.510   0.329  0.00  0.00    -0.029 C 
ATOM     26  C   UNL     1      -8.986  -0.134   0.469  0.00  0.00    +0.011 C 
ATOM     27  C   UNL     1      -6.774   0.173   1.589  0.00  0.00    +0.011 C 
ATOM     28  C   UNL     1      -7.751   2.037   0.244  0.00  0.00    +0.011 C 
ENDBRANCH  23  24
ENDBRANCH  22  23
ENDBRANCH  14   4
BRANCH  10   1
ATOM      1  O   UNL     1       0.298  -2.549  -1.374  0.00  0.00    -0.391 OA
ATOM     35  H   UNL     1       0.485  -1.963  -2.127  0.00  0.00    +0.210 HD
ENDBRANCH  10   1
BRANCH  13  18
ATOM     18  C   UNL     1       2.839  -2.423   0.097  0.00  0.00    +0.077 C 
ATOM     20  C   UNL     1       2.517  -3.197   1.371  0.00  0.00    +0.017 C 
BRANCH  18  21
ATOM      2  O   UNL     1       5.025  -2.054   1.072  0.00  0.00    -0.276 OA
ATOM      5  N   UNL     1       4.590  -1.189  -1.036  0.00  0.00    -0.309 N 
ATOM     21  C   UNL     1       4.266  -1.883   0.121  0.00  0.00    +0.217 C 
ATOM     36  H   UNL     1       3.924  -1.137  -1.799  0.00  0.00    +0.149 HD
BRANCH   5  25
ATOM     25  C   UNL     1       5.885  -0.583  -1.246  0.00  0.00    +0.159 C 
BRANCH  25  29
ATOM      6  N   UNL     1       6.619   0.991   0.454  0.00  0.00    -0.258 NA
ATOM     29  C   UNL     1       5.944   0.817  -0.705  0.00  0.00    +0.058 A 
ATOM     30  C   UNL     1       5.321   1.840  -1.400  0.00  0.00    +0.025 A 
ATOM     31  C   UNL     1       5.395   3.125  -0.874  0.00  0.00    +0.003 A 
ATOM     32  C   UNL     1       6.670   2.253   0.935  0.00  0.00    +0.111 A 
ATOM     33  C   UNL     1       6.081   3.344   0.316  0.00  0.00    +0.020 A 
ENDBRANCH  25  29
ENDBRANCH   5  25
ENDBRANCH  18  21
ENDBRANCH  13  18
TORSDOF 8
