REMARK  Name = 7144119
REMARK  7 active torsions:
REMARK  status: ('A' for Active; 'I' for Inactive)
REMARK    1  A    between atoms: S_1  and  N_6
REMARK    2  A    between atoms: S_1  and  C_17
REMARK    3  A    between atoms: O_5  and  C_27
REMARK    4  A    between atoms: O_5  and  C_28
REMARK    5  A    between atoms: C_15  and  C_20
REMARK    6  A    between atoms: C_17  and  C_21
REMARK    7  A    between atoms: C_21  and  C_24
REMARK                            x       y       z     vdW  Elec       q    Type
REMARK                         _______ _______ _______ _____ _____    ______ ____
ROOT
ATOM      4  O   UNL     1       1.122   4.556  -0.804  0.00  0.00    -0.268 OA
ATOM      6  N   UNL     1       2.252  -0.170   0.157  0.00  0.00    -0.180 NA
ATOM      7  N   UNL     1       0.605   2.514   0.221  0.00  0.00    -0.311 N 
ATOM      8  C   UNL     1       2.127   1.487   2.012  0.00  0.00    +0.025 C 
ATOM      9  C   UNL     1       0.095   0.304   1.305  0.00  0.00    +0.053 C 
ATOM     10  C   UNL     1       0.848   0.841   2.519  0.00  0.00    +0.017 C 
ATOM     11  C   UNL     1       3.003   0.461   1.278  0.00  0.00    +0.114 C 
ATOM     12  C   UNL     1       0.957  -0.763   0.600  0.00  0.00    +0.118 C 
ATOM     13  C   UNL     1       1.754   2.675   1.123  0.00  0.00    +0.130 C 
ATOM     14  C   UNL     1      -0.282   1.425   0.333  0.00  0.00    +0.034 A 
ATOM     15  C   UNL     1      -1.411   1.393  -0.422  0.00  0.00    +0.002 A 
ATOM     16  C   UNL     1       0.389   3.575  -0.676  0.00  0.00    +0.252 A 
ATOM     18  C   UNL     1      -1.666   2.468  -1.362  0.00  0.00    +0.015 A 
ATOM     19  C   UNL     1      -0.831   3.496  -1.511  0.00  0.00    +0.071 A 
ENDROOT
BRANCH  15  20
ATOM     20  C   UNL     1      -2.383   0.282  -0.325  0.00  0.00    -0.016 A 
ATOM     22  C   UNL     1      -2.232  -0.841  -1.133  0.00  0.00    +0.012 A 
ATOM     23  C   UNL     1      -3.441   0.367   0.575  0.00  0.00    +0.012 A 
ATOM     25  C   UNL     1      -3.148  -1.888  -1.041  0.00  0.00    +0.046 A 
ATOM     26  C   UNL     1      -4.358  -0.681   0.666  0.00  0.00    +0.046 A 
ATOM     27  C   UNL     1      -4.211  -1.808  -0.142  0.00  0.00    +0.120 A 
BRANCH  27   5
ATOM      5  O   UNL     1      -5.106  -2.830  -0.053  0.00  0.00    -0.495 OA
ATOM     28  C   UNL     1      -6.168  -2.683   0.888  0.00  0.00    +0.277 C 
ENDBRANCH  27   5
ENDBRANCH  15  20
BRANCH   6   1
ATOM      1  S   UNL     1       3.180  -1.132  -0.910  0.00  0.00    +0.032 S 
ATOM      2  O   UNL     1       4.468  -0.501  -1.106  0.00  0.00    -0.158 OA
ATOM      3  O   UNL     1       2.349  -1.525  -2.027  0.00  0.00    -0.158 OA
BRANCH   1  17
ATOM     17  C   UNL     1       3.418  -2.555   0.123  0.00  0.00    +0.185 C 
BRANCH  17  21
ATOM     21  C   UNL     1       4.240  -3.620  -0.583  0.00  0.00    +0.021 C 
ATOM     24  C   UNL     1       4.429  -4.848   0.293  0.00  0.00    +0.005 C 
ENDBRANCH  17  21
ENDBRANCH   1  17
ENDBRANCH   6   1
TORSDOF 5
