REMARK  Name = 11865883
REMARK  4 active torsions:
REMARK  status: ('A' for Active; 'I' for Inactive)
REMARK    1  A    between atoms: N_9  and  C_17
REMARK    2  A    between atoms: C_21  and  C_22
REMARK    3  A    between atoms: C_27  and  C_29
REMARK    4  A    between atoms: C_28  and  C_30
REMARK                            x       y       z     vdW  Elec       q    Type
REMARK                         _______ _______ _______ _____ _____    ______ ____
ROOT
ATOM      1  O   UNL     1      -0.461   0.808  -1.448  0.00  0.00    -0.273 OA
ATOM      2  O   UNL     1       2.091  -3.550   1.163  0.00  0.00    -0.274 OA
ATOM      3  O   UNL     1      -2.805   1.274   0.387  0.00  0.00    -0.275 OA
ATOM      6  N   UNL     1      -2.557  -0.811  -0.586  0.00  0.00    -0.288 N 
ATOM      7  N   UNL     1       1.117  -0.387  -0.242  0.00  0.00    -0.287 N 
ATOM      8  N   UNL     1       0.116  -3.193   0.117  0.00  0.00    -0.309 N 
ATOM     11  C   UNL     1      -1.200  -1.061  -0.104  0.00  0.00    +0.182 C 
ATOM     12  C   UNL     1      -0.837  -2.438  -0.673  0.00  0.00    +0.104 C 
ATOM     13  C   UNL     1       1.470  -1.234   0.899  0.00  0.00    +0.164 C 
ATOM     14  C   UNL     1      -2.193  -3.123  -0.809  0.00  0.00    +0.043 C 
ATOM     15  C   UNL     1      -3.087  -1.984  -1.277  0.00  0.00    +0.110 C 
ATOM     16  C   UNL     1       2.925  -0.844   1.202  0.00  0.00    +0.055 C 
ATOM     17  C   UNL     1       3.465  -0.414  -0.162  0.00  0.00    +0.093 C 
ATOM     18  C   UNL     1      -0.173  -0.092  -0.662  0.00  0.00    +0.239 C 
ATOM     19  C   UNL     1       2.276   0.317  -0.768  0.00  0.00    +0.131 C 
ATOM     20  C   UNL     1       1.293  -2.742   0.676  0.00  0.00    +0.234 C 
ATOM     22  C   UNL     1      -3.287   0.301  -0.196  0.00  0.00    +0.219 C 
ATOM     36  H   UNL     1       0.025  -4.204   0.063  0.00  0.00    +0.149 HD
ENDROOT
BRANCH  22  21
ATOM      5  O   UNL     1      -9.076   1.018   1.767  0.00  0.00    -0.276 OA
ATOM     10  N   UNL     1      -7.460   1.048   0.099  0.00  0.00    -0.302 N 
ATOM     21  C   UNL     1      -4.746   0.273  -0.535  0.00  0.00    +0.078 C 
ATOM     23  C   UNL     1      -5.253   1.695  -0.789  0.00  0.00    +0.032 C 
ATOM     24  C   UNL     1      -5.521  -0.385   0.610  0.00  0.00    +0.032 C 
ATOM     25  C   UNL     1      -6.764   1.711  -1.011  0.00  0.00    +0.108 C 
ATOM     26  C   UNL     1      -7.026  -0.326   0.359  0.00  0.00    +0.108 C 
ATOM     28  C   UNL     1      -8.485   1.609   0.859  0.00  0.00    +0.212 C 
ATOM     30  C   UNL     1      -8.871   3.029   0.531  0.00  0.00    +0.109 C 
ENDBRANCH  22  21
BRANCH  17   9
ATOM      4  O   UNL     1       6.183  -1.319  -0.198  0.00  0.00    -0.270 OA
ATOM      9  N   UNL     1       4.638   0.405  -0.069  0.00  0.00    -0.307 N 
ATOM     27  C   UNL     1       5.920  -0.124  -0.096  0.00  0.00    +0.244 C 
ATOM     37  H   UNL     1       4.495   1.389   0.134  0.00  0.00    +0.149 HD
BRANCH  27  29
ATOM     29  C   UNL     1       7.029   0.855   0.037  0.00  0.00    +0.037 A 
ATOM     31  C   UNL     1       8.229   0.433   0.572  0.00  0.00    +0.013 A 
ATOM     32  C   UNL     1       6.825   2.154  -0.379  0.00  0.00    +0.013 A 
ATOM     33  C   UNL     1       9.271   1.352   0.697  0.00  0.00    +0.001 A 
ATOM     34  C   UNL     1       7.867   3.073  -0.254  0.00  0.00    +0.001 A 
ATOM     35  C   UNL     1       9.090   2.671   0.284  0.00  0.00    +0.000 A 
ENDBRANCH  27  29
ENDBRANCH  17   9
TORSDOF 3
