REMARK  Name = 71694018
REMARK  7 active torsions:
REMARK  status: ('A' for Active; 'I' for Inactive)
REMARK    1  A    between atoms: S_2  and  N_7
REMARK    2  A    between atoms: S_2  and  C_17
REMARK    3  A    between atoms: O_3  and  C_10
REMARK    4  A    between atoms: O_4  and  C_12
REMARK    5  A    between atoms: N_7  and  C_9
REMARK    6  A    between atoms: C_8  and  C_13
REMARK    7  A    between atoms: C_14  and  C_18
REMARK                            x       y       z     vdW  Elec       q    Type
REMARK                         _______ _______ _______ _____ _____    ______ ____
ROOT
ATOM      8  C   UNL     1      -1.470  -0.716  -0.726  0.00  0.00    +0.043 C 
ATOM      9  C   UNL     1      -1.747   0.522   0.172  0.00  0.00    +0.115 C 
ATOM     10  C   UNL     1      -3.246   0.476   0.498  0.00  0.00    +0.162 C 
ATOM     11  C   UNL     1      -2.797  -1.492  -0.772  0.00  0.00    +0.043 C 
ATOM     12  C   UNL     1      -3.841  -0.401  -0.600  0.00  0.00    +0.145 C 
ENDROOT
BRANCH   8  13
ATOM     13  C   UNL     1      -0.303  -1.561  -0.266  0.00  0.00    -0.040 A 
ATOM     14  C   UNL     1       0.789  -1.792  -1.102  0.00  0.00    -0.047 A 
ATOM     15  C   UNL     1      -0.330  -2.113   1.015  0.00  0.00    +0.004 A 
ATOM     16  C   UNL     1       1.855  -2.575  -0.657  0.00  0.00    +0.003 A 
ATOM     18  C   UNL     1       0.841  -1.212  -2.477  0.00  0.00    +0.044 C 
ATOM     19  C   UNL     1       0.735  -2.896   1.460  0.00  0.00    +0.000 A 
ATOM     20  C   UNL     1       1.827  -3.127   0.624  0.00  0.00    +0.000 A 
ENDBRANCH   8  13
BRANCH  10   3
ATOM      3  O   UNL     1      -3.401  -0.140   1.775  0.00  0.00    -0.388 OA
ATOM     27  H   UNL     1      -3.005   0.453   2.436  0.00  0.00    +0.210 HD
ENDBRANCH  10   3
BRANCH  12   4
ATOM      4  O   UNL     1      -5.099  -0.939  -0.247  0.00  0.00    -0.389 OA
ATOM     28  H   UNL     1      -5.366  -1.549  -0.955  0.00  0.00    +0.210 HD
ENDBRANCH  12   4
BRANCH   9   7
ATOM      7  N   UNL     1      -1.446   1.760  -0.593  0.00  0.00    -0.184 NA
ATOM     26  H   UNL     1      -1.765   1.812  -1.568  0.00  0.00    +0.148 HD
BRANCH   7   2
ATOM      2  S   UNL     1      -0.321   2.878   0.014  0.00  0.00    +0.059 S 
ATOM      5  O   UNL     1      -0.697   3.257   1.363  0.00  0.00    -0.153 OA
ATOM      6  O   UNL     1      -0.085   3.897  -0.991  0.00  0.00    -0.153 OA
BRANCH   2  17
ATOM      1 CL   UNL     1       4.896  -0.597   0.365  0.00  0.00    -0.084 Cl
ATOM     17  C   UNL     1       1.148   1.900   0.113  0.00  0.00    +0.105 A 
ATOM     21  C   UNL     1       2.017   1.835  -0.976  0.00  0.00    +0.030 A 
ATOM     22  C   UNL     1       1.438   1.193   1.280  0.00  0.00    +0.030 A 
ATOM     23  C   UNL     1       3.176   1.063  -0.898  0.00  0.00    +0.022 A 
ATOM     24  C   UNL     1       2.596   0.421   1.358  0.00  0.00    +0.022 A 
ATOM     25  C   UNL     1       3.466   0.356   0.269  0.00  0.00    +0.041 A 
ENDBRANCH   2  17
ENDBRANCH   7   2
ENDBRANCH   9   7
TORSDOF 6
