REMARK  Name = 26742833
REMARK  3 active torsions:
REMARK  status: ('A' for Active; 'I' for Inactive)
REMARK    1  A    between atoms: N_6  and  C_20
REMARK    2  A    between atoms: C_11  and  C_17
REMARK    3  A    between atoms: C_20  and  C_21
REMARK                            x       y       z     vdW  Elec       q    Type
REMARK                         _______ _______ _______ _____ _____    ______ ____
ROOT
ATOM      1  O   UNL     1      -0.244   3.258  -1.603  0.00  0.00    -0.275 OA
ATOM      2  O   UNL     1      -1.532  -3.605  -1.027  0.00  0.00    -0.276 OA
ATOM      5  N   UNL     1      -1.988   2.043  -0.650  0.00  0.00    -0.301 N 
ATOM      6  N   UNL     1      -1.007  -2.464   0.924  0.00  0.00    -0.297 N 
ATOM      7  C   UNL     1      -2.822   0.231   0.835  0.00  0.00    +0.011 C 
ATOM      8  C   UNL     1      -3.137  -0.602  -0.430  0.00  0.00    +0.004 C 
ATOM      9  C   UNL     1      -2.862   1.733   0.487  0.00  0.00    +0.111 C 
ATOM     10  C   UNL     1      -2.223  -0.213  -1.607  0.00  0.00    +0.023 C 
ATOM     12  C   UNL     1      -1.492  -0.112   1.532  0.00  0.00    +0.024 C 
ATOM     13  C   UNL     1      -2.274   1.290  -1.870  0.00  0.00    +0.108 C 
ATOM     16  C   UNL     1      -3.187  -2.116  -0.187  0.00  0.00    +0.100 C 
ATOM     17  C   UNL     1      -0.959   2.990  -0.640  0.00  0.00    +0.219 C 
ATOM     18  C   UNL     1      -1.409  -1.561   2.000  0.00  0.00    +0.108 C 
ATOM     19  C   UNL     1      -1.835  -2.802  -0.140  0.00  0.00    +0.216 C 
ENDROOT
BRANCH  17  11
ATOM     11  C   UNL     1      -0.715   3.724   0.638  0.00  0.00    +0.075 C 
ATOM     14  C   UNL     1       0.647   4.293   0.905  0.00  0.00    +0.013 C 
ATOM     15  C   UNL     1       0.167   3.102   1.681  0.00  0.00    +0.013 C 
ENDBRANCH  17  11
BRANCH   6  20
ATOM     20  C   UNL     1       0.342  -3.010   1.001  0.00  0.00    +0.143 C 
BRANCH  20  21
ATOM      3  O   UNL     1       4.026   0.287   1.104  0.00  0.00    -0.453 OA
ATOM      4  O   UNL     1       4.159   0.389  -1.300  0.00  0.00    -0.453 OA
ATOM     21  C   UNL     1       1.351  -2.109   0.351  0.00  0.00    -0.026 A 
ATOM     22  C   UNL     1       2.206  -1.340   1.143  0.00  0.00    +0.054 A 
ATOM     23  C   UNL     1       1.429  -2.050  -1.052  0.00  0.00    +0.009 A 
ATOM     24  C   UNL     1       3.119  -0.529   0.500  0.00  0.00    +0.167 A 
ATOM     25  C   UNL     1       2.363  -1.221  -1.678  0.00  0.00    +0.050 A 
ATOM     26  C   UNL     1       3.195  -0.471  -0.872  0.00  0.00    +0.166 A 
ATOM     27  C   UNL     1       4.682   0.865  -0.044  0.00  0.00    +0.466 C 
ENDBRANCH  20  21
ENDBRANCH   6  20
TORSDOF 3
