REMARK  Name = 71693437
REMARK  9 active torsions:
REMARK  status: ('A' for Active; 'I' for Inactive)
REMARK    1  A    between atoms: O_2  and  C_11
REMARK    2  A    between atoms: N_6  and  C_13
REMARK    3  A    between atoms: N_7  and  C_21
REMARK    4  A    between atoms: C_9  and  C_11
REMARK    5  A    between atoms: C_10  and  C_12
REMARK    6  A    between atoms: C_13  and  C_18
REMARK    7  A    between atoms: C_25  and  C_27
REMARK    8  A    between atoms: C_28  and  C_31
REMARK    9  A    between atoms: C_30  and  C_32
REMARK                            x       y       z     vdW  Elec       q    Type
REMARK                         _______ _______ _______ _____ _____    ______ ____
ROOT
ATOM      1  O   UNL     1       3.073  -1.737  -1.806  0.00  0.00    -0.361 OA
ATOM      3  O   UNL     1       5.457   0.715  -1.712  0.00  0.00    -0.273 OA
ATOM      6  N   UNL     1       4.214  -0.147   0.065  0.00  0.00    -0.287 N 
ATOM      9  C   UNL     1       3.550  -1.334   0.615  0.00  0.00    +0.135 C 
ATOM     10  C   UNL     1       2.720  -2.082  -0.462  0.00  0.00    +0.171 C 
ATOM     14  C   UNL     1       4.764  -0.169  -1.214  0.00  0.00    +0.242 C 
ATOM     15  C   UNL     1       4.442  -1.433  -1.976  0.00  0.00    +0.256 C 
ENDROOT
BRANCH  10  12
ATOM     12  C   UNL     1       1.238  -1.803  -0.304  0.00  0.00    -0.017 A 
ATOM     16  C   UNL     1       0.653  -0.731  -0.979  0.00  0.00    +0.008 A 
ATOM     17  C   UNL     1       0.458  -2.619   0.516  0.00  0.00    +0.008 A 
ATOM     19  C   UNL     1      -0.711  -0.476  -0.833  0.00  0.00    +0.023 A 
ATOM     20  C   UNL     1      -0.905  -2.364   0.661  0.00  0.00    +0.023 A 
ATOM     21  C   UNL     1      -1.490  -1.292  -0.013  0.00  0.00    +0.034 A 
BRANCH  21   7
ATOM      5  O   UNL     1      -3.198   0.851  -1.228  0.00  0.00    -0.270 OA
ATOM      7  N   UNL     1      -2.854  -1.036   0.132  0.00  0.00    -0.281 N 
ATOM     25  C   UNL     1      -3.607  -0.015  -0.462  0.00  0.00    +0.252 C 
ATOM     34  H   UNL     1      -3.338  -1.685   0.746  0.00  0.00    +0.155 HD
BRANCH  25  27
ATOM      4  O   UNL     1      -7.219   0.595  -0.109  0.00  0.00    -0.464 OA
ATOM     27  C   UNL     1      -5.057  -0.020  -0.133  0.00  0.00    +0.078 A 
ATOM     28  C   UNL     1      -5.985   0.882  -0.600  0.00  0.00    +0.114 A 
ATOM     29  C   UNL     1      -5.767  -0.920   0.697  0.00  0.00    +0.057 A 
ATOM     30  C   UNL     1      -7.078  -0.503   0.680  0.00  0.00    +0.103 A 
ATOM     31  C   UNL     1      -5.902   2.050  -1.490  0.00  0.00    +0.087 C 
ATOM     32  C   UNL     1      -8.301  -1.002   1.324  0.00  0.00    +0.086 C 
ENDBRANCH  25  27
ENDBRANCH  21   7
ENDBRANCH  10  12
BRANCH   9  11
ATOM     11  C   UNL     1       4.572  -2.269   1.274  0.00  0.00    +0.181 C 
BRANCH  11   2
ATOM      2  O   UNL     1       4.962  -1.698   2.506  0.00  0.00    -0.393 OA
ATOM     33  H   UNL     1       5.604  -2.303   2.915  0.00  0.00    +0.209 HD
ENDBRANCH  11   2
ENDBRANCH   9  11
BRANCH   6  13
ATOM     13  C   UNL     1       4.398   1.001   0.939  0.00  0.00    +0.145 C 
BRANCH  13  18
ATOM      8  N   UNL     1       2.228   3.753  -0.480  0.00  0.00    -0.263 NA
ATOM     18  C   UNL     1       3.282   1.996   0.803  0.00  0.00    -0.012 A 
ATOM     22  C   UNL     1       2.296   2.105   1.776  0.00  0.00    +0.008 A 
ATOM     23  C   UNL     1       3.204   2.836  -0.297  0.00  0.00    +0.115 A 
ATOM     24  C   UNL     1       1.275   3.037   1.623  0.00  0.00    +0.020 A 
ATOM     26  C   UNL     1       1.286   3.830   0.487  0.00  0.00    +0.111 A 
ENDBRANCH  13  18
ENDBRANCH   6  13
TORSDOF 7
