REMARK  Name = 45784372
REMARK  12 active torsions:
REMARK  status: ('A' for Active; 'I' for Inactive)
REMARK    1  A    between atoms: O_1  and  C_10
REMARK    2  A    between atoms: O_4  and  C_23
REMARK    3  A    between atoms: O_4  and  C_26
REMARK    4  A    between atoms: N_5  and  C_14
REMARK    5  A    between atoms: N_6  and  C_24
REMARK    6  A    between atoms: C_7  and  C_17
REMARK    7  A    between atoms: C_9  and  C_19
REMARK    8  A    between atoms: C_13  and  C_18
REMARK    9  A    between atoms: C_18  and  C_20
REMARK   10  A    between atoms: C_18  and  C_21
REMARK   11  A    between atoms: C_22  and  C_23
REMARK   12  A    between atoms: C_24  and  C_25
REMARK                            x       y       z     vdW  Elec       q    Type
REMARK                         _______ _______ _______ _____ _____    ______ ____
ROOT
ATOM      7  C   UNL     1      -1.464  -0.990   1.705  0.00  0.00    -0.027 C 
ATOM      8  C   UNL     1      -1.271  -1.615   0.283  0.00  0.00    +0.028 C 
ATOM      9  C   UNL     1       0.013  -1.036  -0.413  0.00  0.00    +0.012 C 
ATOM     10  C   UNL     1      -2.580  -1.530  -0.553  0.00  0.00    +0.122 C 
ATOM     11  C   UNL     1      -2.668  -1.664   2.405  0.00  0.00    +0.007 C 
ATOM     12  C   UNL     1      -0.205  -1.275   2.556  0.00  0.00    +0.009 C 
ATOM     13  C   UNL     1      -3.803  -2.111   0.195  0.00  0.00    +0.029 C 
ATOM     14  C   UNL     1       1.260  -1.261   0.487  0.00  0.00    +0.076 C 
ATOM     15  C   UNL     1      -3.961  -1.548   1.607  0.00  0.00    +0.007 C 
ATOM     16  C   UNL     1       1.076  -0.758   1.918  0.00  0.00    +0.023 C 
ATOM     17  C   UNL     1      -1.710   0.539   1.653  0.00  0.00    +0.011 C 
ATOM     19  C   UNL     1       0.279  -1.630  -1.806  0.00  0.00    +0.010 C 
ENDROOT
BRANCH  14   5
ATOM      3  O   UNL     1       3.994  -2.175   0.722  0.00  0.00    -0.272 OA
ATOM      5  N   UNL     1       2.442  -0.636  -0.070  0.00  0.00    -0.309 N 
ATOM     22  C   UNL     1       3.715  -1.155   0.099  0.00  0.00    +0.251 C 
ATOM     37  H   UNL     1       2.331   0.252  -0.551  0.00  0.00    +0.149 HD
BRANCH  22  23
ATOM     23  C   UNL     1       4.760  -0.302  -0.588  0.00  0.00    +0.324 C 
BRANCH  23   4
ATOM      4  O   UNL     1       6.047  -0.855  -0.414  0.00  0.00    -0.483 OA
BRANCH   4  26
ATOM     26  C   UNL     1       7.108   0.019  -0.391  0.00  0.00    +0.121 A 
ATOM     29  C   UNL     1       7.045   1.211  -1.113  0.00  0.00    +0.045 A 
ATOM     30  C   UNL     1       8.246  -0.285   0.356  0.00  0.00    +0.045 A 
ATOM     34  C   UNL     1       8.121   2.098  -1.089  0.00  0.00    +0.004 A 
ATOM     35  C   UNL     1       9.322   0.602   0.380  0.00  0.00    +0.004 A 
ATOM     36  C   UNL     1       9.260   1.794  -0.343  0.00  0.00    +0.000 A 
ENDBRANCH   4  26
ENDBRANCH  23   4
ENDBRANCH  22  23
ENDBRANCH  14   5
BRANCH  10   1
ATOM      1  O   UNL     1      -2.433  -2.296  -1.750  0.00  0.00    -0.391 OA
ATOM     38  H   UNL     1      -2.239  -3.215  -1.498  0.00  0.00    +0.210 HD
ENDBRANCH  10   1
BRANCH  13  18
ATOM     18  C   UNL     1      -5.104  -1.900  -0.589  0.00  0.00    +0.077 C 
ATOM     20  C   UNL     1      -5.238  -2.960  -1.677  0.00  0.00    +0.017 C 
BRANCH  18  21
ATOM      2  O   UNL     1      -4.710  -0.233  -2.301  0.00  0.00    -0.276 OA
ATOM      6  N   UNL     1      -5.684   0.436  -0.305  0.00  0.00    -0.311 N 
ATOM     21  C   UNL     1      -5.134  -0.493  -1.177  0.00  0.00    +0.216 C 
ATOM     39  H   UNL     1      -6.043   0.131   0.594  0.00  0.00    +0.149 HD
BRANCH   6  24
ATOM     24  C   UNL     1      -5.818   1.835  -0.637  0.00  0.00    +0.139 C 
BRANCH  24  25
ATOM     25  C   UNL     1      -4.608   2.627  -0.233  0.00  0.00    -0.030 A 
ATOM     27  C   UNL     1      -4.543   3.204   1.035  0.00  0.00    +0.005 A 
ATOM     28  C   UNL     1      -3.549   2.786  -1.127  0.00  0.00    +0.005 A 
ATOM     31  C   UNL     1      -3.419   3.939   1.410  0.00  0.00    +0.000 A 
ATOM     32  C   UNL     1      -2.425   3.522  -0.752  0.00  0.00    +0.000 A 
ATOM     33  C   UNL     1      -2.360   4.098   0.516  0.00  0.00    +0.000 A 
ENDBRANCH  24  25
ENDBRANCH   6  24
ENDBRANCH  18  21
ENDBRANCH  13  18
TORSDOF 9
