REMARK  Name = 45360757
REMARK  10 active torsions:
REMARK  status: ('A' for Active; 'I' for Inactive)
REMARK    1  A    between atoms: N_6  and  C_9
REMARK    2  A    between atoms: N_6  and  C_17
REMARK    3  A    between atoms: N_7  and  C_22
REMARK    4  A    between atoms: N_7  and  C_23
REMARK    5  A    between atoms: C_10  and  C_15
REMARK    6  A    between atoms: C_15  and  C_16
REMARK    7  A    between atoms: C_16  and  C_18
REMARK    8  A    between atoms: C_17  and  C_19
REMARK    9  A    between atoms: C_22  and  C_26
REMARK   10  A    between atoms: C_23  and  C_27
REMARK                            x       y       z     vdW  Elec       q    Type
REMARK                         _______ _______ _______ _____ _____    ______ ____
ROOT
ATOM      2  O   UNL     1       0.574  -4.787  -0.670  0.00  0.00    -0.274 OA
ATOM      4  N   UNL     1      -1.188  -1.608  -0.332  0.00  0.00    -0.286 NA
ATOM      5  N   UNL     1      -1.074  -4.183   0.777  0.00  0.00    -0.313 N 
ATOM      8  C   UNL     1      -0.393  -2.621  -1.038  0.00  0.00    +0.145 C 
ATOM      9  C   UNL     1       0.852  -0.586  -0.584  0.00  0.00    +0.070 C 
ATOM     10  C   UNL     1      -2.360  -2.137   0.357  0.00  0.00    +0.075 C 
ATOM     11  C   UNL     1       0.975  -1.956  -1.252  0.00  0.00    +0.048 C 
ATOM     12  C   UNL     1      -0.256  -0.790   0.441  0.00  0.00    +0.104 C 
ATOM     13  C   UNL     1      -1.960  -3.205   1.363  0.00  0.00    +0.123 C 
ATOM     14  C   UNL     1      -0.238  -3.940  -0.287  0.00  0.00    +0.230 C 
ATOM     29  H   UNL     1      -0.975  -5.073   1.256  0.00  0.00    +0.149 HD
ENDROOT
BRANCH   9   6
ATOM      6  N   UNL     1       2.101  -0.120  -0.003  0.00  0.00    -0.308 NA
ATOM     30  H   UNL     1       1.898   0.605   0.686  0.00  0.00    +0.123 HD
BRANCH   6  17
ATOM     17  C   UNL     1       2.979   0.435  -1.025  0.00  0.00    +0.116 C 
BRANCH  17  19
ATOM      1  F   UNL     1       7.864   2.216   1.146  0.00  0.00    -0.205 F 
ATOM     19  C   UNL     1       4.284   0.911  -0.445  0.00  0.00    -0.033 A 
ATOM     20  C   UNL     1       4.409   2.225   0.005  0.00  0.00    +0.008 A 
ATOM     21  C   UNL     1       5.368   0.037  -0.358  0.00  0.00    +0.008 A 
ATOM     24  C   UNL     1       5.618   2.666   0.542  0.00  0.00    +0.038 A 
ATOM     25  C   UNL     1       6.578   0.479   0.179  0.00  0.00    +0.038 A 
ATOM     28  C   UNL     1       6.702   1.793   0.629  0.00  0.00    +0.123 A 
ENDBRANCH  17  19
ENDBRANCH   6  17
ENDBRANCH   9   6
BRANCH  10  15
ATOM     15  C   UNL     1      -3.201  -1.046   1.020  0.00  0.00    +0.029 C 
BRANCH  15  16
ATOM     16  C   UNL     1      -3.569   0.049   0.024  0.00  0.00    +0.097 C 
BRANCH  16  18
ATOM      3  O   UNL     1      -4.688   1.108   1.860  0.00  0.00    -0.276 OA
ATOM      7  N   UNL     1      -4.774   2.209  -0.180  0.00  0.00    -0.302 N 
ATOM     18  C   UNL     1      -4.391   1.160   0.664  0.00  0.00    +0.216 C 
BRANCH   7  22
ATOM     22  C   UNL     1      -4.447   2.313  -1.600  0.00  0.00    +0.104 C 
ATOM     26  C   UNL     1      -3.138   3.045  -1.815  0.00  0.00    +0.024 C 
ENDBRANCH   7  22
BRANCH   7  23
ATOM     23  C   UNL     1      -5.572   3.305   0.355  0.00  0.00    +0.104 C 
ATOM     27  C   UNL     1      -7.055   3.026   0.227  0.00  0.00    +0.024 C 
ENDBRANCH   7  23
ENDBRANCH  16  18
ENDBRANCH  15  16
ENDBRANCH  10  15
TORSDOF 8
