REMARK  Name = 26744634
REMARK  11 active torsions:
REMARK  status: ('A' for Active; 'I' for Inactive)
REMARK    1  A    between atoms: O_2  and  C_10
REMARK    2  A    between atoms: O_3  and  C_11
REMARK    3  A    between atoms: O_6  and  C_26
REMARK    4  A    between atoms: O_6  and  C_30
REMARK    5  A    between atoms: N_7  and  C_15
REMARK    6  A    between atoms: N_8  and  C_18
REMARK    7  A    between atoms: C_12  and  C_14
REMARK    8  A    between atoms: C_13  and  C_15
REMARK    9  A    between atoms: C_14  and  C_16
REMARK   10  A    between atoms: C_17  and  C_19
REMARK   11  A    between atoms: C_18  and  C_20
REMARK                            x       y       z     vdW  Elec       q    Type
REMARK                         _______ _______ _______ _____ _____    ______ ____
ROOT
ATOM      1  O   UNL     1      -3.004  -0.766  -0.718  0.00  0.00    -0.366 OA
ATOM     10  C   UNL     1      -4.277  -0.220   1.215  0.00  0.00    +0.175 C 
ATOM     11  C   UNL     1      -4.129   1.012   0.346  0.00  0.00    +0.176 C 
ATOM     12  C   UNL     1      -3.178  -1.126   0.672  0.00  0.00    +0.158 C 
ATOM     13  C   UNL     1      -3.804   0.395  -1.004  0.00  0.00    +0.167 C 
ENDROOT
BRANCH  10   2
ATOM      2  O   UNL     1      -5.533  -0.851   0.970  0.00  0.00    -0.387 OA
ATOM     31  H   UNL     1      -5.571  -1.649   1.524  0.00  0.00    +0.210 HD
ENDBRANCH  10   2
BRANCH  11   3
ATOM      3  O   UNL     1      -5.295   1.806   0.299  0.00  0.00    -0.387 OA
ATOM     32  H   UNL     1      -5.512   2.061   1.212  0.00  0.00    +0.210 HD
ENDBRANCH  11   3
BRANCH  12  14
ATOM     14  C   UNL     1      -1.842  -0.931   1.375  0.00  0.00    +0.130 C 
BRANCH  14  16
ATOM      4  O   UNL     1      -1.142  -3.028   0.394  0.00  0.00    -0.276 OA
ATOM      8  N   UNL     1       0.355  -1.840   1.716  0.00  0.00    -0.310 N 
ATOM     16  C   UNL     1      -0.864  -2.056   1.091  0.00  0.00    +0.216 C 
ATOM     34  H   UNL     1       0.491  -0.991   2.257  0.00  0.00    +0.149 HD
BRANCH   8  18
ATOM     18  C   UNL     1       1.467  -2.757   1.615  0.00  0.00    +0.159 C 
BRANCH  18  20
ATOM      9  N   UNL     1       1.949  -2.709  -0.765  0.00  0.00    -0.258 NA
ATOM     20  C   UNL     1       2.383  -2.407   0.479  0.00  0.00    +0.058 A 
ATOM     23  C   UNL     1       3.601  -1.804   0.750  0.00  0.00    +0.025 A 
ATOM     27  C   UNL     1       4.426  -1.491  -0.325  0.00  0.00    +0.003 A 
ATOM     28  C   UNL     1       2.777  -2.391  -1.785  0.00  0.00    +0.111 A 
ATOM     29  C   UNL     1       4.013  -1.787  -1.620  0.00  0.00    +0.020 A 
ENDBRANCH  18  20
ENDBRANCH   8  18
ENDBRANCH  14  16
ENDBRANCH  12  14
BRANCH  13  15
ATOM     15  C   UNL     1      -3.039   1.329  -1.924  0.00  0.00    +0.138 C 
BRANCH  15   7
ATOM      5  O   UNL     1      -0.515  -0.010  -2.208  0.00  0.00    -0.270 OA
ATOM      7  N   UNL     1      -1.791   1.723  -1.341  0.00  0.00    -0.309 N 
ATOM     17  C   UNL     1      -0.610   1.011  -1.532  0.00  0.00    +0.244 C 
ATOM     33  H   UNL     1      -1.786   2.590  -0.815  0.00  0.00    +0.149 HD
BRANCH  17  19
ATOM     19  C   UNL     1       0.594   1.536  -0.838  0.00  0.00    +0.037 A 
ATOM     21  C   UNL     1       1.864   1.290  -1.361  0.00  0.00    +0.016 A 
ATOM     22  C   UNL     1       0.455   2.273   0.338  0.00  0.00    +0.016 A 
ATOM     24  C   UNL     1       2.994   1.780  -0.708  0.00  0.00    +0.046 A 
ATOM     25  C   UNL     1       1.586   2.764   0.991  0.00  0.00    +0.046 A 
ATOM     26  C   UNL     1       2.855   2.517   0.468  0.00  0.00    +0.120 A 
BRANCH  26   6
ATOM      6  O   UNL     1       3.958   2.997   1.106  0.00  0.00    -0.495 OA
ATOM     30  C   UNL     1       3.743   3.742   2.303  0.00  0.00    +0.277 C 
ENDBRANCH  26   6
ENDBRANCH  17  19
ENDBRANCH  15   7
ENDBRANCH  13  15
TORSDOF 10
