REMARK  Name = 11886195
REMARK  7 active torsions:
REMARK  status: ('A' for Active; 'I' for Inactive)
REMARK    1  A    between atoms: S_1  and  N_7
REMARK    2  A    between atoms: S_1  and  C_20
REMARK    3  A    between atoms: O_4  and  C_19
REMARK    4  A    between atoms: O_4  and  C_23
REMARK    5  A    between atoms: N_7  and  C_15
REMARK    6  A    between atoms: N_8  and  C_16
REMARK    7  A    between atoms: C_21  and  C_27
REMARK                            x       y       z     vdW  Elec       q    Type
REMARK                         _______ _______ _______ _____ _____    ______ ____
ROOT
ATOM      2  O   UNL     1      -0.643  -3.529   0.949  0.00  0.00    -0.370 OA
ATOM      3  O   UNL     1      -0.438  -1.767  -1.648  0.00  0.00    -0.370 OA
ATOM     13  C   UNL     1      -0.109  -1.555  -0.266  0.00  0.00    +0.170 C 
ATOM     14  C   UNL     1      -1.169  -2.244   0.571  0.00  0.00    +0.175 C 
ATOM     15  C   UNL     1       1.173  -2.278   0.084  0.00  0.00    +0.133 C 
ATOM     16  C   UNL     1      -2.345  -2.425  -0.370  0.00  0.00    +0.171 C 
ATOM     17  C   UNL     1       0.677  -3.675   0.408  0.00  0.00    +0.183 C 
ATOM     18  C   UNL     1      -1.682  -2.475  -1.742  0.00  0.00    +0.190 C 
ENDROOT
BRANCH  16   8
ATOM      8  N   UNL     1      -3.359  -1.380  -0.209  0.00  0.00    -0.187 N 
ATOM      9  N   UNL     1      -4.622  -1.691   0.098  0.00  0.00    -0.041 NA
ATOM     10  N   UNL     1      -4.389   0.517  -0.101  0.00  0.00    -0.071 NA
ATOM     11  N   UNL     1      -5.250  -0.523   0.163  0.00  0.00    -0.020 NA
ATOM     19  C   UNL     1      -3.221  -0.039  -0.329  0.00  0.00    +0.342 A 
BRANCH  19   4
ATOM      4  O   UNL     1      -2.096   0.584  -0.626  0.00  0.00    -0.423 OA
BRANCH   4  23
ATOM     23  C   UNL     1      -1.809   1.865  -0.177  0.00  0.00    +0.132 A 
ATOM     28  C   UNL     1      -2.056   2.183   1.145  0.00  0.00    +0.046 A 
ATOM     29  C   UNL     1      -1.285   2.785  -1.064  0.00  0.00    +0.046 A 
ATOM     30  C   UNL     1      -1.768   3.472   1.596  0.00  0.00    +0.004 A 
ATOM     31  C   UNL     1      -0.997   4.073  -0.613  0.00  0.00    +0.004 A 
ATOM     32  C   UNL     1      -1.239   4.417   0.717  0.00  0.00    +0.000 A 
ENDBRANCH   4  23
ENDBRANCH  19   4
ENDBRANCH  16   8
BRANCH  15   7
ATOM      7  N   UNL     1       1.817  -1.675   1.226  0.00  0.00    -0.182 NA
ATOM     33  H   UNL     1       1.231  -1.367   2.010  0.00  0.00    +0.148 HD
BRANCH   7   1
ATOM      1  S   UNL     1       3.430  -1.155   1.108  0.00  0.00    +0.060 S 
ATOM      5  O   UNL     1       4.258  -2.252   0.644  0.00  0.00    -0.153 OA
ATOM      6  O   UNL     1       3.779  -0.438   2.320  0.00  0.00    -0.153 OA
BRANCH   1  20
ATOM     20  C   UNL     1       3.333   0.042  -0.189  0.00  0.00    +0.123 A 
ATOM     21  C   UNL     1       2.693   1.258  -0.001  0.00  0.00    +0.078 A 
ATOM     22  C   UNL     1       3.921  -0.278  -1.405  0.00  0.00    +0.030 A 
ATOM     24  C   UNL     1       2.639   2.175  -1.052  0.00  0.00    +0.021 A 
ATOM     25  C   UNL     1       3.868   0.639  -2.455  0.00  0.00    +0.002 A 
ATOM     26  C   UNL     1       3.227   1.865  -2.278  0.00  0.00    +0.001 A 
BRANCH  21  27
ATOM     12  N   UNL     1       1.582   1.893   2.251  0.00  0.00    -0.191 NA
ATOM     27  C   UNL     1       2.079   1.609   1.244  0.00  0.00    +0.101 C 
ENDBRANCH  21  27
ENDBRANCH   1  20
ENDBRANCH   7   1
ENDBRANCH  15   7
TORSDOF 7
