REMARK  Name = 28960456
REMARK  9 active torsions:
REMARK  status: ('A' for Active; 'I' for Inactive)
REMARK    1  A    between atoms: O_3  and  C_12
REMARK    2  A    between atoms: O_5  and  C_23
REMARK    3  A    between atoms: O_5  and  C_31
REMARK    4  A    between atoms: O_6  and  C_32
REMARK    5  A    between atoms: O_6  and  C_35
REMARK    6  A    between atoms: N_7  and  C_11
REMARK    7  A    between atoms: N_8  and  C_13
REMARK    8  A    between atoms: N_9  and  C_22
REMARK    9  A    between atoms: N_10  and  C_27
REMARK                            x       y       z     vdW  Elec       q    Type
REMARK                         _______ _______ _______ _____ _____    ______ ____
ROOT
ATOM      1  O   UNL     1       0.081  -3.377  -1.811  0.00  0.00    -0.342 OA
ATOM      2  O   UNL     1      -0.460  -5.245  -0.546  0.00  0.00    -0.347 OA
ATOM     11  C   UNL     1      -0.905  -3.049   0.365  0.00  0.00    +0.144 C 
ATOM     12  C   UNL     1       0.497  -3.012   1.016  0.00  0.00    +0.159 C 
ATOM     13  C   UNL     1       1.652  -3.071  -0.007  0.00  0.00    +0.136 C 
ATOM     14  C   UNL     1      -0.888  -3.921  -0.904  0.00  0.00    +0.270 C 
ATOM     15  C   UNL     1       1.304  -3.887  -1.270  0.00  0.00    +0.170 C 
ATOM     16  C   UNL     1       0.903  -5.323  -0.989  0.00  0.00    +0.196 C 
ENDROOT
BRANCH  13   8
ATOM      4  O   UNL     1       3.598  -1.433   1.308  0.00  0.00    -0.252 OA
ATOM      8  N   UNL     1       2.053  -1.733  -0.384  0.00  0.00    -0.291 N 
ATOM     10  N   UNL     1       3.194   0.252  -0.275  0.00  0.00    -0.269 N 
ATOM     21  C   UNL     1       3.015  -1.002   0.317  0.00  0.00    +0.304 C 
ATOM     36  H   UNL     1       1.557  -1.278  -1.145  0.00  0.00    +0.151 HD
ATOM     38  H   UNL     1       2.629   0.453  -1.096  0.00  0.00    +0.156 HD
BRANCH  10  27
ATOM     27  C   UNL     1       4.072   1.284   0.128  0.00  0.00    +0.038 A 
ATOM     29  C   UNL     1       4.118   2.481  -0.589  0.00  0.00    +0.069 A 
ATOM     30  C   UNL     1       4.893   1.107   1.242  0.00  0.00    +0.023 A 
ATOM     32  C   UNL     1       4.984   3.499  -0.191  0.00  0.00    +0.122 A 
ATOM     33  C   UNL     1       5.759   2.126   1.640  0.00  0.00    +0.005 A 
ATOM     34  C   UNL     1       5.804   3.322   0.923  0.00  0.00    +0.046 A 
BRANCH  32   6
ATOM      6  O   UNL     1       5.029   4.666  -0.889  0.00  0.00    -0.495 OA
ATOM     35  C   UNL     1       4.163   4.781  -2.018  0.00  0.00    +0.277 C 
ENDBRANCH  32   6
ENDBRANCH  10  27
ENDBRANCH  13   8
BRANCH  11   7
ATOM      7  N   UNL     1      -1.341  -1.692   0.029  0.00  0.00    -0.290 NA
ATOM      9  N   UNL     1      -3.190   0.474  -0.184  0.00  0.00    -0.325 N 
ATOM     17  C   UNL     1      -2.415  -1.730  -0.970  0.00  0.00    +0.104 C 
ATOM     18  C   UNL     1      -1.801  -0.987   1.232  0.00  0.00    +0.104 C 
ATOM     19  C   UNL     1      -2.841  -0.316  -1.372  0.00  0.00    +0.120 C 
ATOM     20  C   UNL     1      -2.207   0.452   0.904  0.00  0.00    +0.120 C 
BRANCH   9  22
ATOM     22  C   UNL     1      -4.008   1.596  -0.358  0.00  0.00    +0.072 A 
ATOM     23  C   UNL     1      -4.866   2.013   0.659  0.00  0.00    +0.141 A 
ATOM     24  C   UNL     1      -3.960   2.299  -1.562  0.00  0.00    +0.027 A 
ATOM     25  C   UNL     1      -5.676   3.133   0.473  0.00  0.00    +0.047 A 
ATOM     26  C   UNL     1      -4.770   3.419  -1.749  0.00  0.00    +0.002 A 
ATOM     28  C   UNL     1      -5.628   3.836  -0.731  0.00  0.00    +0.004 A 
BRANCH  23   5
ATOM      5  O   UNL     1      -4.928   1.341   1.843  0.00  0.00    -0.493 OA
ATOM     31  C   UNL     1      -5.834   1.840   2.825  0.00  0.00    +0.277 C 
ENDBRANCH  23   5
ENDBRANCH   9  22
ENDBRANCH  11   7
BRANCH  12   3
ATOM      3  O   UNL     1       0.601  -4.141   1.894  0.00  0.00    -0.388 OA
ATOM     37  H   UNL     1       1.459  -4.082   2.348  0.00  0.00    +0.210 HD
ENDBRANCH  12   3
TORSDOF 7
