REMARK  Name = 45784060
REMARK  3 active torsions:
REMARK  status: ('A' for Active; 'I' for Inactive)
REMARK    1  A    between atoms: C_8  and  C_15
REMARK    2  A    between atoms: C_9  and  C_19
REMARK    3  A    between atoms: C_24  and  C_26
REMARK                            x       y       z     vdW  Elec       q    Type
REMARK                         _______ _______ _______ _____ _____    ______ ____
ROOT
ATOM      6  N   UNL     1       1.866  -1.861   0.383  0.00  0.00    -0.342 N 
ATOM      7  N   UNL     1       0.581  -0.264  -0.477  0.00  0.00    -0.232 NA
ATOM     19  C   UNL     1       0.607  -1.487   0.004  0.00  0.00    +0.113 A 
ATOM     20  C   UNL     1       2.709  -0.810   0.130  0.00  0.00    +0.067 A 
ATOM     21  C   UNL     1       1.884   0.174  -0.407  0.00  0.00    +0.089 A 
ATOM     22  C   UNL     1       4.081  -0.641   0.318  0.00  0.00    +0.040 A 
ATOM     23  C   UNL     1       2.443   1.407  -0.783  0.00  0.00    +0.030 A 
ATOM     24  C   UNL     1       4.621   0.592  -0.063  0.00  0.00    +0.057 A 
ATOM     25  C   UNL     1       3.819   1.599  -0.604  0.00  0.00    +0.014 A 
ATOM     27  H   UNL     1       2.130  -2.753   0.781  0.00  0.00    +0.167 HD
ENDROOT
BRANCH  19   9
ATOM      4  O   UNL     1      -3.958  -0.798  -1.947  0.00  0.00    -0.275 OA
ATOM      5  N   UNL     1      -2.655  -1.308  -0.108  0.00  0.00    -0.301 N 
ATOM      9  C   UNL     1      -0.575  -2.429   0.152  0.00  0.00    +0.074 C 
ATOM     10  C   UNL     1      -1.751  -2.212  -0.808  0.00  0.00    +0.119 C 
ATOM     11  C   UNL     1      -1.252  -2.278   1.523  0.00  0.00    +0.032 C 
ATOM     12  C   UNL     1      -2.297  -1.191   1.301  0.00  0.00    +0.108 C 
ATOM     15  C   UNL     1      -3.697  -0.663  -0.750  0.00  0.00    +0.219 C 
BRANCH  15   8
ATOM      8  C   UNL     1      -4.529   0.236   0.112  0.00  0.00    +0.075 C 
ATOM     13  C   UNL     1      -5.970   0.235  -0.402  0.00  0.00    +0.013 C 
ATOM     14  C   UNL     1      -3.936   1.646   0.117  0.00  0.00    +0.013 C 
ATOM     16  C   UNL     1      -6.844   1.212   0.380  0.00  0.00    +0.001 C 
ATOM     17  C   UNL     1      -4.813   2.619   0.901  0.00  0.00    +0.001 C 
ATOM     18  C   UNL     1      -6.250   2.618   0.388  0.00  0.00    +0.000 C 
ENDBRANCH  15   8
ENDBRANCH  19   9
BRANCH  24  26
ATOM      1  F   UNL     1       6.463   2.077  -0.301  0.00  0.00    -0.166 F 
ATOM      2  F   UNL     1       6.501   0.736   1.410  0.00  0.00    -0.166 F 
ATOM      3  F   UNL     1       6.869  -0.041  -0.582  0.00  0.00    -0.166 F 
ATOM     26  C   UNL     1       6.085   0.834   0.114  0.00  0.00    +0.417 C 
ENDBRANCH  24  26
TORSDOF 3
