REMARK  Name = 56775611
REMARK  7 active torsions:
REMARK  status: ('A' for Active; 'I' for Inactive)
REMARK    1  A    between atoms: O_3  and  C_17
REMARK    2  A    between atoms: N_4  and  C_7
REMARK    3  A    between atoms: N_4  and  C_10
REMARK    4  A    between atoms: C_6  and  C_10
REMARK    5  A    between atoms: C_7  and  C_13
REMARK    6  A    between atoms: C_13  and  C_14
REMARK    7  A    between atoms: C_16  and  C_17
REMARK                            x       y       z     vdW  Elec       q    Type
REMARK                         _______ _______ _______ _____ _____    ______ ____
ROOT
ATOM      1  O   UNL     1      -1.759  -3.130   0.939  0.00  0.00    -0.376 OA
ATOM      7  C   UNL     1      -1.043  -1.375  -0.043  0.00  0.00    +0.072 C 
ATOM     11  C   UNL     1      -0.567  -2.319   1.055  0.00  0.00    +0.184 C 
ATOM     12  C   UNL     1      -2.224  -2.330  -0.172  0.00  0.00    +0.184 C 
ENDROOT
BRANCH   7   4
ATOM      4  N   UNL     1      -1.508  -0.129   0.574  0.00  0.00    -0.306 NA
ATOM     18  H   UNL     1      -0.785   0.426   1.029  0.00  0.00    +0.123 HD
BRANCH   4  10
ATOM     10  C   UNL     1      -2.195   0.680  -0.425  0.00  0.00    +0.085 C 
BRANCH  10   6
ATOM      6  C   UNL     1      -3.162   1.625   0.211  0.00  0.00    +0.003 C 
ATOM      8  C   UNL     1      -3.644   2.814  -0.567  0.00  0.00    +0.005 C 
ATOM      9  C   UNL     1      -2.701   3.003   0.585  0.00  0.00    +0.005 C 
ENDBRANCH  10   6
ENDBRANCH   4  10
ENDBRANCH   7   4
BRANCH   7  13
ATOM     13  C   UNL     1      -0.164  -1.144  -1.234  0.00  0.00    +0.085 C 
BRANCH  13  14
ATOM      2  O   UNL     1       3.251  -0.603  -0.186  0.00  0.00    -0.357 OA
ATOM      5  N   UNL     1       2.185  -1.425  -0.529  0.00  0.00    -0.083 NA
ATOM     14  C   UNL     1       1.181  -0.590  -0.811  0.00  0.00    +0.086 A 
ATOM     15  C   UNL     1       1.551   0.758  -0.664  0.00  0.00    +0.073 A 
ATOM     16  C   UNL     1       2.861   0.695  -0.270  0.00  0.00    +0.163 A 
BRANCH  16  17
ATOM     17  C   UNL     1       3.872   1.706   0.062  0.00  0.00    +0.232 C 
BRANCH  17   3
ATOM      3  O   UNL     1       4.068   1.765   1.478  0.00  0.00    -0.387 OA
ATOM     19  H   UNL     1       4.744   2.445   1.641  0.00  0.00    +0.210 HD
ENDBRANCH  17   3
ENDBRANCH  16  17
ENDBRANCH  13  14
ENDBRANCH   7  13
TORSDOF 7
