REMARK  Name = 51137140
REMARK  6 active torsions:
REMARK  status: ('A' for Active; 'I' for Inactive)
REMARK    1  A    between atoms: S_1  and  C_18
REMARK    2  A    between atoms: S_1  and  C_22
REMARK    3  A    between atoms: N_5  and  C_13
REMARK    4  A    between atoms: C_8  and  C_12
REMARK    5  A    between atoms: C_13  and  C_14
REMARK    6  A    between atoms: C_22  and  C_26
REMARK                            x       y       z     vdW  Elec       q    Type
REMARK                         _______ _______ _______ _____ _____    ______ ____
ROOT
ATOM      2  O   UNL     1       1.068  -2.014   0.330  0.00  0.00    -0.439 OA
ATOM      6  N   UNL     1       0.916   0.234   0.089  0.00  0.00    -0.213 NA
ATOM     12  C   UNL     1       0.283  -0.901   0.289  0.00  0.00    +0.201 A 
ATOM     15  C   UNL     1       2.232  -0.150  -0.011  0.00  0.00    +0.111 A 
ATOM     16  C   UNL     1       2.328  -1.526   0.136  0.00  0.00    +0.155 A 
ATOM     17  C   UNL     1       3.402   0.592  -0.225  0.00  0.00    +0.058 A 
ATOM     18  C   UNL     1       4.620  -0.100  -0.280  0.00  0.00    +0.090 A 
ATOM     19  C   UNL     1       3.515  -2.246   0.087  0.00  0.00    +0.050 A 
ATOM     21  C   UNL     1       4.673  -1.491  -0.127  0.00  0.00    +0.030 A 
ENDROOT
BRANCH  12   8
ATOM      5  N   UNL     1      -3.307  -0.289  -0.108  0.00  0.00    -0.296 NA
ATOM      8  C   UNL     1      -1.198  -1.130   0.478  0.00  0.00    +0.090 C 
ATOM      9  C   UNL     1      -1.816  -0.402   1.685  0.00  0.00    +0.029 C 
ATOM     10  C   UNL     1      -2.034  -0.668  -0.723  0.00  0.00    +0.097 C 
ATOM     11  C   UNL     1      -2.938   0.446   1.101  0.00  0.00    +0.085 C 
BRANCH   5  13
ATOM     13  C   UNL     1      -4.143   0.498  -1.002  0.00  0.00    +0.139 C 
BRANCH  13  14
ATOM      7  N   UNL     1      -6.019   1.640   0.045  0.00  0.00    -0.259 NA
ATOM     14  C   UNL     1      -5.582   0.512  -0.558  0.00  0.00    +0.055 A 
ATOM     20  C   UNL     1      -6.372  -0.604  -0.782  0.00  0.00    +0.024 A 
ATOM     23  C   UNL     1      -7.696  -0.559  -0.361  0.00  0.00    +0.003 A 
ATOM     24  C   UNL     1      -7.312   1.647   0.441  0.00  0.00    +0.111 A 
ATOM     25  C   UNL     1      -8.183   0.584   0.263  0.00  0.00    +0.020 A 
ENDBRANCH  13  14
ENDBRANCH   5  13
ENDBRANCH  12   8
BRANCH  18   1
ATOM      1  S   UNL     1       6.101   0.793  -0.547  0.00  0.00    -0.003 S 
ATOM      3  O   UNL     1       7.092  -0.104  -1.120  0.00  0.00    -0.169 OA
ATOM      4  O   UNL     1       5.757   2.029  -1.234  0.00  0.00    -0.169 OA
BRANCH   1  22
ATOM     22  C   UNL     1       6.661   1.212   1.088  0.00  0.00    +0.168 C 
ATOM     26  C   UNL     1       7.952   1.999   1.046  0.00  0.00    +0.028 C 
ENDBRANCH   1  22
ENDBRANCH  18   1
TORSDOF 5
