REMARK  Name = 40777669
REMARK  9 active torsions:
REMARK  status: ('A' for Active; 'I' for Inactive)
REMARK    1  A    between atoms: N_5  and  C_11
REMARK    2  A    between atoms: N_6  and  C_20
REMARK    3  A    between atoms: N_8  and  C_21
REMARK    4  A    between atoms: C_9  and  C_12
REMARK    5  A    between atoms: C_15  and  C_17
REMARK    6  A    between atoms: C_16  and  C_18
REMARK    7  A    between atoms: C_21  and  C_27
REMARK    8  A    between atoms: C_21  and  C_28
REMARK    9  A    between atoms: C_26  and  C_29
REMARK                            x       y       z     vdW  Elec       q    Type
REMARK                         _______ _______ _______ _____ _____    ______ ____
ROOT
ATOM      6  N   UNL     1       1.875  -0.742  -0.047  0.00  0.00    -0.236 N 
ATOM      7  N   UNL     1       1.579  -1.912  -0.639  0.00  0.00    -0.171 NA
ATOM     12  C   UNL     1      -0.273  -0.947   0.288  0.00  0.00    +0.003 A 
ATOM     15  C   UNL     1       0.801  -0.125   0.524  0.00  0.00    +0.046 A 
ATOM     16  C   UNL     1       0.265  -2.031  -0.431  0.00  0.00    +0.064 A 
ATOM     17  C   UNL     1       0.891   1.169   1.230  0.00  0.00    +0.066 C 
ATOM     18  C   UNL     1      -0.445  -3.217  -0.944  0.00  0.00    +0.068 C 
ENDROOT
BRANCH   6  20
ATOM     20  C   UNL     1       3.190  -0.274  -0.060  0.00  0.00    +0.066 A 
ATOM     22  C   UNL     1       3.658   0.518   0.988  0.00  0.00    +0.028 A 
ATOM     23  C   UNL     1       4.034  -0.595  -1.123  0.00  0.00    +0.028 A 
ATOM     24  C   UNL     1       4.971   0.989   0.974  0.00  0.00    +0.014 A 
ATOM     25  C   UNL     1       5.347  -0.124  -1.138  0.00  0.00    +0.014 A 
ATOM     26  C   UNL     1       5.816   0.668  -0.089  0.00  0.00    +0.055 A 
BRANCH  26  29
ATOM      1  F   UNL     1       8.156   0.176  -0.130  0.00  0.00    -0.166 F 
ATOM      2  F   UNL     1       7.519   1.927   0.991  0.00  0.00    -0.166 F 
ATOM      3  F   UNL     1       7.507   1.958  -1.183  0.00  0.00    -0.166 F 
ATOM     29  C   UNL     1       7.220   1.170  -0.105  0.00  0.00    +0.417 C 
ENDBRANCH  26  29
ENDBRANCH   6  20
BRANCH  12   9
ATOM      9  C   UNL     1      -1.709  -0.734   0.709  0.00  0.00    +0.047 C 
ATOM     10  C   UNL     1      -2.689  -0.678  -0.478  0.00  0.00    +0.039 C 
ATOM     11  C   UNL     1      -4.001  -1.309   0.019  0.00  0.00    +0.098 C 
ATOM     13  C   UNL     1      -2.287  -1.836   1.547  0.00  0.00    -0.021 C 
ATOM     14  C   UNL     1      -3.535  -2.140   1.174  0.00  0.00    -0.009 C 
BRANCH  11   5
ATOM      4  O   UNL     1      -6.115  -0.120  -1.569  0.00  0.00    -0.253 OA
ATOM      5  N   UNL     1      -4.967  -0.302   0.442  0.00  0.00    -0.293 N 
ATOM      8  N   UNL     1      -6.742   1.161   0.261  0.00  0.00    -0.297 N 
ATOM     19  C   UNL     1      -5.957   0.216  -0.397  0.00  0.00    +0.300 C 
ATOM     30  H   UNL     1      -4.895   0.071   1.384  0.00  0.00    +0.151 HD
ATOM     31  H   UNL     1      -6.486   1.426   1.207  0.00  0.00    +0.150 HD
BRANCH   8  21
ATOM     21  C   UNL     1      -7.837   1.851  -0.379  0.00  0.00    +0.068 C 
ATOM     27  C   UNL     1      -7.337   3.115  -1.066  0.00  0.00    +0.027 C 
ATOM     28  C   UNL     1      -8.932   2.168   0.631  0.00  0.00    +0.027 C 
ENDBRANCH   8  21
ENDBRANCH  11   5
ENDBRANCH  12   9
TORSDOF 5
