REMARK  Name = 45360675
REMARK  9 active torsions:
REMARK  status: ('A' for Active; 'I' for Inactive)
REMARK    1  A    between atoms: N_4  and  C_9
REMARK    2  A    between atoms: N_4  and  C_17
REMARK    3  A    between atoms: N_6  and  C_26
REMARK    4  A    between atoms: N_7  and  C_25
REMARK    5  A    between atoms: C_11  and  C_15
REMARK    6  A    between atoms: C_15  and  C_16
REMARK    7  A    between atoms: C_16  and  C_19
REMARK    8  A    between atoms: C_17  and  C_18
REMARK    9  A    between atoms: C_25  and  C_29
REMARK                            x       y       z     vdW  Elec       q    Type
REMARK                         _______ _______ _______ _____ _____    ______ ____
ROOT
ATOM      1  O   UNL     1      -1.435  -3.073   2.112  0.00  0.00    -0.274 OA
ATOM      3  N   UNL     1      -1.405   0.378   0.925  0.00  0.00    -0.286 NA
ATOM      5  N   UNL     1      -2.128  -1.172   3.149  0.00  0.00    -0.313 N 
ATOM      8  C   UNL     1      -1.395  -1.082   0.772  0.00  0.00    +0.145 C 
ATOM      9  C   UNL     1       0.699  -0.045   0.110  0.00  0.00    +0.070 C 
ATOM     10  C   UNL     1      -0.006  -1.400   0.196  0.00  0.00    +0.048 C 
ATOM     11  C   UNL     1      -2.426   0.879   1.837  0.00  0.00    +0.075 C 
ATOM     12  C   UNL     1      -0.024   0.797   1.152  0.00  0.00    +0.104 C 
ATOM     13  C   UNL     1      -2.267   0.265   3.218  0.00  0.00    +0.123 C 
ATOM     14  C   UNL     1      -1.630  -1.855   2.066  0.00  0.00    +0.230 C 
ATOM     36  H   UNL     1      -2.301  -1.701   3.998  0.00  0.00    +0.149 HD
ENDROOT
BRANCH   9   4
ATOM      4  N   UNL     1       2.134  -0.134   0.330  0.00  0.00    -0.308 NA
ATOM     35  H   UNL     1       2.489   0.788   0.584  0.00  0.00    +0.123 HD
BRANCH   4  17
ATOM     17  C   UNL     1       2.820  -0.591  -0.872  0.00  0.00    +0.118 C 
BRANCH  17  18
ATOM      6  N   UNL     1       6.326  -1.555  -0.339  0.00  0.00    -0.349 N 
ATOM     18  C   UNL     1       4.303  -0.704  -0.664  0.00  0.00    -0.008 A 
ATOM     20  C   UNL     1       5.233   0.371  -0.603  0.00  0.00    +0.004 A 
ATOM     21  C   UNL     1       5.005  -1.875  -0.499  0.00  0.00    +0.091 A 
ATOM     22  C   UNL     1       6.495  -0.190  -0.398  0.00  0.00    +0.049 A 
ATOM     23  C   UNL     1       5.122   1.772  -0.703  0.00  0.00    +0.010 A 
ATOM     24  C   UNL     1       7.657   0.582  -0.287  0.00  0.00    +0.026 A 
ATOM     26  C   UNL     1       7.381  -2.525  -0.135  0.00  0.00    +0.149 C 
ATOM     27  C   UNL     1       6.276   2.558  -0.594  0.00  0.00    +0.001 A 
ATOM     28  C   UNL     1       7.522   1.970  -0.390  0.00  0.00    +0.002 A 
ENDBRANCH  17  18
ENDBRANCH   4  17
ENDBRANCH   9   4
BRANCH  11  15
ATOM     15  C   UNL     1      -2.454   2.406   1.915  0.00  0.00    +0.029 C 
BRANCH  15  16
ATOM     16  C   UNL     1      -2.571   3.027   0.530  0.00  0.00    +0.097 C 
BRANCH  16  19
ATOM      2  O   UNL     1      -4.969   2.836   0.262  0.00  0.00    -0.276 OA
ATOM      7  N   UNL     1      -3.576   1.944  -1.367  0.00  0.00    -0.311 N 
ATOM     19  C   UNL     1      -3.846   2.608  -0.179  0.00  0.00    +0.213 C 
ATOM     37  H   UNL     1      -2.615   1.771  -1.646  0.00  0.00    +0.149 HD
BRANCH   7  25
ATOM     25  C   UNL     1      -4.624   1.444  -2.225  0.00  0.00    +0.139 C 
BRANCH  25  29
ATOM     29  C   UNL     1      -5.011   0.035  -1.877  0.00  0.00    -0.030 A 
ATOM     30  C   UNL     1      -4.359  -1.037  -2.485  0.00  0.00    +0.005 A 
ATOM     31  C   UNL     1      -6.021  -0.200  -0.945  0.00  0.00    +0.005 A 
ATOM     32  C   UNL     1      -4.718  -2.346  -2.162  0.00  0.00    +0.000 A 
ATOM     33  C   UNL     1      -6.380  -1.509  -0.621  0.00  0.00    +0.000 A 
ATOM     34  C   UNL     1      -5.729  -2.581  -1.230  0.00  0.00    +0.000 A 
ENDBRANCH  25  29
ENDBRANCH   7  25
ENDBRANCH  16  19
ENDBRANCH  15  16
ENDBRANCH  11  15
TORSDOF 8
