REMARK  Name = 38028961
REMARK  9 active torsions:
REMARK  status: ('A' for Active; 'I' for Inactive)
REMARK    1  A    between atoms: N_4  and  C_16
REMARK    2  A    between atoms: C_8  and  C_12
REMARK    3  A    between atoms: C_9  and  C_16
REMARK    4  A    between atoms: C_11  and  C_15
REMARK    5  A    between atoms: C_12  and  C_17
REMARK    6  A    between atoms: C_12  and  C_18
REMARK    7  A    between atoms: C_13  and  C_19
REMARK    8  A    between atoms: C_15  and  C_20
REMARK    9  A    between atoms: C_25  and  C_27
REMARK                            x       y       z     vdW  Elec       q    Type
REMARK                         _______ _______ _______ _____ _____    ______ ____
ROOT
ATOM      8  C   UNL     1      -3.373   1.239   0.860  0.00  0.00    +0.000 C 
ATOM      9  C   UNL     1      -4.531   0.820  -0.081  0.00  0.00    +0.032 C 
ATOM     10  C   UNL     1      -2.707   2.526   0.349  0.00  0.00    +0.012 C 
ATOM     11  C   UNL     1      -2.145   2.365  -1.076  0.00  0.00    +0.023 C 
ATOM     13  C   UNL     1      -3.145   1.706  -2.005  0.00  0.00    -0.073 C 
ATOM     14  C   UNL     1      -4.212   1.031  -1.542  0.00  0.00    -0.022 C 
ATOM     19  C   UNL     1      -2.914   1.879  -3.480  0.00  0.00    +0.039 C 
ENDROOT
BRANCH   8  12
ATOM     12  C   UNL     1      -3.855   1.441   2.300  0.00  0.00    -0.013 C 
ATOM     17  C   UNL     1      -4.485   2.821   2.462  0.00  0.00    +0.007 C 
ATOM     18  C   UNL     1      -2.699   1.256   3.278  0.00  0.00    +0.007 C 
ENDBRANCH   8  12
BRANCH  11  15
ATOM     15  C   UNL     1      -0.819   1.597  -1.063  0.00  0.00    +0.103 C 
BRANCH  15  20
ATOM      1  O   UNL     1       0.032   3.652  -0.233  0.00  0.00    -0.276 OA
ATOM      3  N   UNL     1       1.556   1.914  -0.474  0.00  0.00    -0.298 N 
ATOM      5  N   UNL     1       4.181   0.764  -0.070  0.00  0.00    -0.312 N 
ATOM      6  N   UNL     1       6.107  -0.329  -0.892  0.00  0.00    -0.240 NA
ATOM     20  C   UNL     1       0.286   2.488  -0.550  0.00  0.00    +0.216 C 
ATOM     21  C   UNL     1       1.853   0.527  -0.841  0.00  0.00    +0.126 C 
ATOM     22  C   UNL     1       2.679   2.713   0.008  0.00  0.00    +0.126 C 
ATOM     23  C   UNL     1       3.329   0.306  -1.170  0.00  0.00    +0.125 C 
ATOM     24  C   UNL     1       3.699   1.866   0.767  0.00  0.00    +0.125 C 
ATOM     26  C   UNL     1       5.433   0.196   0.156  0.00  0.00    +0.121 A 
ATOM     28  C   UNL     1       5.908   0.205   1.457  0.00  0.00    +0.043 A 
ATOM     30  C   UNL     1       7.156  -0.359   1.698  0.00  0.00    +0.005 A 
ATOM     31  C   UNL     1       7.316  -0.868  -0.620  0.00  0.00    +0.113 A 
ATOM     32  C   UNL     1       7.880  -0.908   0.645  0.00  0.00    +0.020 A 
ENDBRANCH  15  20
ENDBRANCH  11  15
BRANCH   9  16
ATOM     16  C   UNL     1      -4.928  -0.643   0.149  0.00  0.00    +0.112 C 
BRANCH  16   4
ATOM      2  O   UNL     1      -3.567  -2.511   1.853  0.00  0.00    -0.269 OA
ATOM      4  N   UNL     1      -3.865  -1.522  -0.226  0.00  0.00    -0.310 N 
ATOM     25  C   UNL     1      -3.257  -2.402   0.669  0.00  0.00    +0.262 C 
ATOM     36  H   UNL     1      -3.566  -1.534  -1.197  0.00  0.00    +0.149 HD
BRANCH  25  27
ATOM      7  N   UNL     1      -1.852  -3.036  -1.175  0.00  0.00    -0.250 NA
ATOM     27  C   UNL     1      -2.148  -3.230   0.130  0.00  0.00    +0.125 A 
ATOM     29  C   UNL     1      -1.488  -4.132   0.949  0.00  0.00    +0.033 A 
ATOM     33  C   UNL     1      -0.457  -4.881   0.394  0.00  0.00    +0.004 A 
ATOM     34  C   UNL     1      -0.844  -3.782  -1.680  0.00  0.00    +0.111 A 
ATOM     35  C   UNL     1      -0.123  -4.709  -0.945  0.00  0.00    +0.020 A 
ENDBRANCH  25  27
ENDBRANCH  16   4
ENDBRANCH   9  16
TORSDOF 6
