REMARK  Name = 28962095
REMARK  7 active torsions:
REMARK  status: ('A' for Active; 'I' for Inactive)
REMARK    1  A    between atoms: O_2  and  C_9
REMARK    2  A    between atoms: O_3  and  C_17
REMARK    3  A    between atoms: N_5  and  C_7
REMARK    4  A    between atoms: N_6  and  C_15
REMARK    5  A    between atoms: C_8  and  C_15
REMARK    6  A    between atoms: C_10  and  C_17
REMARK    7  A    between atoms: C_18  and  C_19
REMARK                            x       y       z     vdW  Elec       q    Type
REMARK                         _______ _______ _______ _____ _____    ______ ____
ROOT
ATOM      1  O   UNL     1      -0.387  -1.862  -0.604  0.00  0.00    -0.365 OA
ATOM      7  C   UNL     1      -2.291  -0.434  -0.622  0.00  0.00    +0.118 C 
ATOM      8  C   UNL     1      -0.759  -0.467  -0.552  0.00  0.00    +0.155 C 
ATOM      9  C   UNL     1      -2.689  -1.790  -0.059  0.00  0.00    +0.165 C 
ATOM     10  C   UNL     1      -1.581  -2.667  -0.629  0.00  0.00    +0.174 C 
ENDROOT
BRANCH   7   5
ATOM      5  N   UNL     1      -2.942   0.717   0.003  0.00  0.00    -0.295 NA
ATOM     11  C   UNL     1      -2.494   1.966  -0.628  0.00  0.00    +0.085 C 
ATOM     12  C   UNL     1      -4.404   0.581  -0.067  0.00  0.00    +0.085 C 
ATOM     13  C   UNL     1      -3.128   3.183   0.047  0.00  0.00    +0.015 C 
ATOM     14  C   UNL     1      -5.101   1.753   0.626  0.00  0.00    +0.015 C 
ATOM     16  C   UNL     1      -4.650   3.088   0.045  0.00  0.00    +0.002 C 
ENDBRANCH   7   5
BRANCH   9   2
ATOM      2  O   UNL     1      -2.644  -1.796   1.362  0.00  0.00    -0.388 OA
ATOM     25  H   UNL     1      -3.008  -2.646   1.664  0.00  0.00    +0.210 HD
ENDBRANCH   9   2
BRANCH   8  15
ATOM     15  C   UNL     1      -0.118   0.126   0.698  0.00  0.00    +0.137 C 
BRANCH  15   6
ATOM      4  O   UNL     1       1.688   2.071  -0.396  0.00  0.00    -0.270 OA
ATOM      6  N   UNL     1       1.309   0.030   0.641  0.00  0.00    -0.309 N 
ATOM     18  C   UNL     1       2.112   1.026   0.090  0.00  0.00    +0.244 C 
ATOM     26  H   UNL     1       1.720  -0.840   0.962  0.00  0.00    +0.149 HD
BRANCH  18  19
ATOM     19  C   UNL     1       3.574   0.763   0.083  0.00  0.00    +0.037 A 
ATOM     20  C   UNL     1       4.385   1.357  -0.885  0.00  0.00    +0.013 A 
ATOM     21  C   UNL     1       4.137  -0.075   1.045  0.00  0.00    +0.013 A 
ATOM     22  C   UNL     1       5.758   1.112  -0.890  0.00  0.00    +0.001 A 
ATOM     23  C   UNL     1       5.510  -0.321   1.039  0.00  0.00    +0.001 A 
ATOM     24  C   UNL     1       6.321   0.273   0.072  0.00  0.00    +0.000 A 
ENDBRANCH  18  19
ENDBRANCH  15   6
ENDBRANCH   8  15
BRANCH  10  17
ATOM     17  C   UNL     1      -1.326  -3.964   0.117  0.00  0.00    +0.190 C 
BRANCH  17   3
ATOM      3  O   UNL     1      -0.283  -4.671  -0.535  0.00  0.00    -0.392 OA
ATOM     27  H   UNL     1      -0.143  -5.496  -0.041  0.00  0.00    +0.210 HD
ENDBRANCH  17   3
ENDBRANCH  10  17
TORSDOF 7
