REMARK  Name = 75536385
REMARK  9 active torsions:
REMARK  status: ('A' for Active; 'I' for Inactive)
REMARK    1  A    between atoms: O_2  and  C_10
REMARK    2  A    between atoms: O_5  and  C_29
REMARK    3  A    between atoms: O_5  and  C_31
REMARK    4  A    between atoms: N_6  and  C_14
REMARK    5  A    between atoms: C_8  and  C_13
REMARK    6  A    between atoms: C_9  and  C_14
REMARK    7  A    between atoms: C_13  and  C_15
REMARK    8  A    between atoms: C_17  and  C_19
REMARK    9  A    between atoms: C_18  and  C_20
REMARK                            x       y       z     vdW  Elec       q    Type
REMARK                         _______ _______ _______ _____ _____    ______ ____
ROOT
ATOM      1  O   UNL     1       3.431  -0.390   0.677  0.00  0.00    -0.369 OA
ATOM      8  C   UNL     1       3.469  -1.206  -0.496  0.00  0.00    +0.125 C 
ATOM      9  C   UNL     1       4.168   0.836   0.592  0.00  0.00    +0.164 C 
ATOM     10  C   UNL     1       5.633   0.581   0.212  0.00  0.00    +0.145 C 
ATOM     11  C   UNL     1       4.908  -1.583  -0.844  0.00  0.00    +0.034 C 
ATOM     12  C   UNL     1       5.768  -0.332  -1.003  0.00  0.00    +0.036 C 
ENDROOT
BRANCH  10   2
ATOM      2  O   UNL     1       6.290  -0.055   1.312  0.00  0.00    -0.389 OA
ATOM     32  H   UNL     1       7.225  -0.165   1.071  0.00  0.00    +0.210 HD
ENDBRANCH  10   2
BRANCH   8  13
ATOM     13  C   UNL     1       2.634  -2.450  -0.217  0.00  0.00    +0.090 C 
BRANCH  13  15
ATOM      3  O   UNL     1      -0.466  -1.600   1.414  0.00  0.00    -0.354 OA
ATOM      7  N   UNL     1       0.892  -1.897   1.431  0.00  0.00    -0.083 NA
ATOM     15  C   UNL     1       1.218  -2.100   0.151  0.00  0.00    +0.087 A 
ATOM     16  C   UNL     1       0.118  -1.946  -0.710  0.00  0.00    +0.076 A 
ATOM     18  C   UNL     1      -0.915  -1.632   0.133  0.00  0.00    +0.167 A 
BRANCH  18  20
ATOM     20  C   UNL     1      -2.308  -1.342  -0.045  0.00  0.00    +0.020 A 
ATOM     21  C   UNL     1      -3.107  -1.054   1.062  0.00  0.00    +0.015 A 
ATOM     22  C   UNL     1      -2.864  -1.348  -1.324  0.00  0.00    +0.015 A 
ATOM     25  C   UNL     1      -4.462  -0.772   0.888  0.00  0.00    +0.046 A 
ATOM     26  C   UNL     1      -4.219  -1.066  -1.497  0.00  0.00    +0.046 A 
ATOM     29  C   UNL     1      -5.018  -0.778  -0.391  0.00  0.00    +0.120 A 
BRANCH  29   5
ATOM      5  O   UNL     1      -6.341  -0.505  -0.559  0.00  0.00    -0.495 OA
ATOM     31  C   UNL     1      -7.099  -0.219   0.615  0.00  0.00    +0.277 C 
ENDBRANCH  29   5
ENDBRANCH  18  20
ENDBRANCH  13  15
ENDBRANCH   8  13
BRANCH   9  14
ATOM     14  C   UNL     1       3.476   1.831  -0.337  0.00  0.00    +0.138 C 
BRANCH  14   6
ATOM      4  O   UNL     1       1.143   1.316  -1.929  0.00  0.00    -0.270 OA
ATOM      6  N   UNL     1       2.114   2.035   0.052  0.00  0.00    -0.309 N 
ATOM     17  C   UNL     1       1.037   1.756  -0.788  0.00  0.00    +0.244 C 
ATOM     33  H   UNL     1       1.959   2.479   0.951  0.00  0.00    +0.149 HD
BRANCH  17  19
ATOM     19  C   UNL     1      -0.314   2.047  -0.244  0.00  0.00    +0.037 A 
ATOM     23  C   UNL     1      -1.365   2.348  -1.110  0.00  0.00    +0.013 A 
ATOM     24  C   UNL     1      -0.532   2.018   1.133  0.00  0.00    +0.013 A 
ATOM     27  C   UNL     1      -2.634   2.621  -0.599  0.00  0.00    +0.001 A 
ATOM     28  C   UNL     1      -1.801   2.291   1.645  0.00  0.00    +0.001 A 
ATOM     30  C   UNL     1      -2.852   2.592   0.778  0.00  0.00    +0.000 A 
ENDBRANCH  17  19
ENDBRANCH  14   6
ENDBRANCH   9  14
TORSDOF 8
