REMARK  Name = 40777099
REMARK  6 active torsions:
REMARK  status: ('A' for Active; 'I' for Inactive)
REMARK    1  A    between atoms: N_5  and  C_15
REMARK    2  A    between atoms: C_9  and  C_16
REMARK    3  A    between atoms: C_10  and  C_15
REMARK    4  A    between atoms: C_18  and  C_21
REMARK    5  A    between atoms: C_19  and  C_22
REMARK    6  A    between atoms: C_20  and  C_23
REMARK                            x       y       z     vdW  Elec       q    Type
REMARK                         _______ _______ _______ _____ _____    ______ ____
ROOT
ATOM      4  N   UNL     1       1.160   2.601   1.173  0.00  0.00    -0.297 NA
ATOM      8  C   UNL     1       0.619   2.328  -1.360  0.00  0.00    +0.002 C 
ATOM      9  C   UNL     1      -0.661   2.118  -0.505  0.00  0.00    +0.055 C 
ATOM     10  C   UNL     1       2.132   1.669   0.544  0.00  0.00    +0.074 C 
ATOM     11  C   UNL     1       1.707   1.333  -0.902  0.00  0.00    +0.024 C 
ATOM     12  C   UNL     1       1.140   3.746  -1.042  0.00  0.00    +0.019 C 
ATOM     13  C   UNL     1      -0.223   2.096   0.988  0.00  0.00    +0.094 C 
ATOM     14  C   UNL     1       1.272   3.908   0.482  0.00  0.00    +0.085 C 
ENDROOT
BRANCH   9  16
ATOM      6  N   UNL     1      -1.197   0.174  -1.888  0.00  0.00    -0.237 NA
ATOM      7  N   UNL     1      -3.181  -1.147  -1.533  0.00  0.00    -0.232 NA
ATOM     16  C   UNL     1      -1.577   0.955  -0.856  0.00  0.00    +0.050 A 
ATOM     17  C   UNL     1      -2.729   0.751  -0.123  0.00  0.00    +0.052 A 
ATOM     18  C   UNL     1      -3.500  -0.326  -0.511  0.00  0.00    +0.076 A 
ATOM     19  C   UNL     1      -2.034  -0.844  -2.169  0.00  0.00    +0.127 A 
ATOM     22  C   UNL     1      -1.649  -1.728  -3.306  0.00  0.00    +0.088 C 
BRANCH  18  21
ATOM      1 BR   UNL     1      -3.198  -2.332   1.962  0.00  0.00    -0.050 Br
ATOM     21  C   UNL     1      -4.730  -0.646   0.173  0.00  0.00    +0.014 A 
ATOM     24  C   UNL     1      -4.765  -1.506   1.270  0.00  0.00    +0.027 A 
ATOM     25  C   UNL     1      -5.909  -0.066  -0.296  0.00  0.00    +0.011 A 
ATOM     27  C   UNL     1      -5.978  -1.787   1.899  0.00  0.00    +0.016 A 
ATOM     28  C   UNL     1      -7.122  -0.346   0.333  0.00  0.00    +0.001 A 
ATOM     31  C   UNL     1      -7.157  -1.207   1.431  0.00  0.00    +0.001 A 
ENDBRANCH  18  21
ENDBRANCH   9  16
BRANCH  10  15
ATOM     15  C   UNL     1       2.354   0.407   1.380  0.00  0.00    +0.123 C 
BRANCH  15   5
ATOM      3  O   UNL     1       5.167   0.533   1.943  0.00  0.00    -0.270 OA
ATOM      5  N   UNL     1       3.377  -0.412   0.807  0.00  0.00    -0.309 N 
ATOM     20  C   UNL     1       4.725  -0.283   1.138  0.00  0.00    +0.251 C 
ATOM     32  H   UNL     1       3.103  -1.110   0.122  0.00  0.00    +0.149 HD
BRANCH  20  23
ATOM      2  S   UNL     1       5.051  -2.309  -0.707  0.00  0.00    -0.092 S 
ATOM     23  C   UNL     1       5.667  -1.191   0.435  0.00  0.00    +0.074 A 
ATOM     26  C   UNL     1       7.036  -1.284   0.562  0.00  0.00    +0.021 A 
ATOM     29  C   UNL     1       7.586  -2.285  -0.289  0.00  0.00    +0.008 A 
ATOM     30  C   UNL     1       6.617  -2.920  -1.034  0.00  0.00    +0.046 A 
ENDBRANCH  20  23
ENDBRANCH  15   5
ENDBRANCH  10  15
TORSDOF 5
