REMARK  Name = 45783835
REMARK  3 active torsions:
REMARK  status: ('A' for Active; 'I' for Inactive)
REMARK    1  A    between atoms: N_2  and  C_16
REMARK    2  A    between atoms: C_7  and  C_15
REMARK    3  A    between atoms: C_18  and  C_20
REMARK                            x       y       z     vdW  Elec       q    Type
REMARK                         _______ _______ _______ _____ _____    ______ ____
ROOT
ATOM      1  O   UNL     1      -2.707   2.051   0.191  0.00  0.00    -0.336 OA
ATOM      4  N   UNL     1      -1.341   0.277   0.159  0.00  0.00    -0.190 NA
ATOM      5  N   UNL     1      -1.405   2.564   0.124  0.00  0.00    -0.056 NA
ATOM     15  C   UNL     1      -2.579   0.699   0.208  0.00  0.00    +0.245 A 
ATOM     18  C   UNL     1      -0.657   1.457   0.108  0.00  0.00    +0.202 A 
ENDROOT
BRANCH  18  20
ATOM      3  N   UNL     1       3.596  -0.780  -0.045  0.00  0.00    -0.315 N 
ATOM      6  N   UNL     1       3.567   1.568  -0.084  0.00  0.00    -0.240 NA
ATOM     11  C   UNL     1       5.352  -2.325   0.207  0.00  0.00    +0.020 C 
ATOM     12  C   UNL     1       4.133  -3.051  -0.336  0.00  0.00    +0.020 C 
ATOM     13  C   UNL     1       5.053  -0.861  -0.111  0.00  0.00    +0.106 C 
ATOM     14  C   UNL     1       2.984  -2.106   0.006  0.00  0.00    +0.106 C 
ATOM     17  C   UNL     1       2.886   0.401  -0.033  0.00  0.00    +0.122 A 
ATOM     19  C   UNL     1       1.505   0.311   0.031  0.00  0.00    +0.055 A 
ATOM     20  C   UNL     1       0.775   1.494   0.044  0.00  0.00    +0.027 A 
ATOM     21  C   UNL     1       1.440   2.715  -0.006  0.00  0.00    +0.031 A 
ATOM     22  C   UNL     1       2.824   2.698  -0.068  0.00  0.00    +0.113 A 
ENDBRANCH  18  20
BRANCH  15   7
ATOM      2  N   UNL     1      -4.009  -1.042  -0.849  0.00  0.00    -0.294 NA
ATOM      7  C   UNL     1      -3.864  -0.100   0.278  0.00  0.00    +0.146 C 
ATOM      8  C   UNL     1      -3.948  -0.981   1.538  0.00  0.00    +0.030 C 
ATOM      9  C   UNL     1      -4.202  -2.390   1.022  0.00  0.00    +0.017 C 
ATOM     10  C   UNL     1      -4.804  -2.164  -0.350  0.00  0.00    +0.085 C 
ATOM     16  C   UNL     1      -4.601  -0.435  -2.034  0.00  0.00    +0.105 C 
ENDBRANCH  15   7
TORSDOF 2
