REMARK  Name = 56776058
REMARK  7 active torsions:
REMARK  status: ('A' for Active; 'I' for Inactive)
REMARK    1  A    between atoms: O_5  and  C_13
REMARK    2  A    between atoms: O_5  and  C_24
REMARK    3  A    between atoms: C_10  and  C_16
REMARK    4  A    between atoms: C_13  and  C_14
REMARK    5  A    between atoms: C_13  and  C_17
REMARK    6  A    between atoms: C_13  and  C_18
REMARK    7  A    between atoms: C_19  and  C_23
REMARK                            x       y       z     vdW  Elec       q    Type
REMARK                         _______ _______ _______ _____ _____    ______ ____
ROOT
ATOM      4  O   UNL     1       1.005   4.043  -0.645  0.00  0.00    -0.376 OA
ATOM      6  O   UNL     1       0.890  -0.087   2.134  0.00  0.00    -0.272 OA
ATOM      7  N   UNL     1       1.194   1.406   0.375  0.00  0.00    -0.284 N 
ATOM     10  C   UNL     1       0.069   2.269   0.789  0.00  0.00    +0.168 C 
ATOM     11  C   UNL     1       1.881   1.800  -0.862  0.00  0.00    +0.136 C 
ATOM     12  C   UNL     1       0.424   3.758   0.628  0.00  0.00    +0.190 C 
ATOM     14  C   UNL     1       1.470   0.240   1.095  0.00  0.00    +0.262 C 
ATOM     15  C   UNL     1       2.197   3.287  -0.851  0.00  0.00    +0.179 C 
ENDROOT
BRANCH  10  16
ATOM      8  N   UNL     1      -2.028   0.872   0.661  0.00  0.00    -0.340 N 
ATOM      9  N   UNL     1      -1.748   2.334  -0.986  0.00  0.00    -0.238 NA
ATOM     16  C   UNL     1      -1.237   1.849   0.123  0.00  0.00    +0.130 A 
ATOM     19  C   UNL     1      -3.112   0.725  -0.158  0.00  0.00    +0.066 A 
ATOM     20  C   UNL     1      -2.916   1.638  -1.167  0.00  0.00    +0.139 A 
ATOM     33  H   UNL     1      -1.840   0.362   1.515  0.00  0.00    +0.167 HD
BRANCH  19  23
ATOM     23  C   UNL     1      -4.169  -0.220   0.089  0.00  0.00    -0.000 A 
ATOM     28  C   UNL     1      -5.466   0.056  -0.342  0.00  0.00    +0.010 A 
ATOM     29  C   UNL     1      -3.895  -1.413   0.759  0.00  0.00    +0.010 A 
ATOM     30  C   UNL     1      -6.490  -0.860  -0.104  0.00  0.00    +0.001 A 
ATOM     31  C   UNL     1      -4.920  -2.329   0.998  0.00  0.00    +0.001 A 
ATOM     32  C   UNL     1      -6.217  -2.053   0.567  0.00  0.00    +0.000 A 
ENDBRANCH  19  23
ENDBRANCH  10  16
BRANCH  14  13
ATOM     13  C   UNL     1       2.553  -0.654   0.545  0.00  0.00    +0.265 C 
BRANCH  13  17
ATOM     17  C   UNL     1       2.221  -1.141  -0.852  0.00  0.00    +0.002 A 
ATOM     21  C   UNL     1       0.891  -1.313  -1.234  0.00  0.00    +0.007 A 
ATOM     22  C   UNL     1       3.247  -1.417  -1.756  0.00  0.00    +0.007 A 
ATOM     25  C   UNL     1       0.586  -1.762  -2.519  0.00  0.00    +0.000 A 
ATOM     26  C   UNL     1       2.942  -1.865  -3.041  0.00  0.00    +0.000 A 
ATOM     27  C   UNL     1       1.612  -2.038  -3.423  0.00  0.00    +0.000 A 
ENDBRANCH  13  17
BRANCH  13  18
ATOM      1  F   UNL     1       3.122  -1.357   2.740  0.00  0.00    -0.167 F 
ATOM      2  F   UNL     1       3.875  -2.561   1.087  0.00  0.00    -0.167 F 
ATOM      3  F   UNL     1       1.757  -2.620   1.606  0.00  0.00    -0.167 F 
ATOM     18  C   UNL     1       2.832  -1.806   1.497  0.00  0.00    +0.431 C 
ENDBRANCH  13  18
BRANCH  13   5
ATOM      5  O   UNL     1       3.693   0.206   0.538  0.00  0.00    -0.356 OA
ATOM     24  C   UNL     1       3.738   1.010   1.706  0.00  0.00    +0.196 C 
ENDBRANCH  13   5
ENDBRANCH  14  13
TORSDOF 6
