REMARK  Name = 75368554
REMARK  8 active torsions:
REMARK  status: ('A' for Active; 'I' for Inactive)
REMARK    1  A    between atoms: O_2  and  C_18
REMARK    2  A    between atoms: O_2  and  C_21
REMARK    3  A    between atoms: O_3  and  C_19
REMARK    4  A    between atoms: O_3  and  C_22
REMARK    5  A    between atoms: O_4  and  C_20
REMARK    6  A    between atoms: O_4  and  C_23
REMARK    7  A    between atoms: N_6  and  C_14
REMARK    8  A    between atoms: C_14  and  C_15
REMARK                            x       y       z     vdW  Elec       q    Type
REMARK                         _______ _______ _______ _____ _____    ______ ____
ROOT
ATOM     14  C   UNL     1      -0.230   0.596  -1.748  0.00  0.00    +0.120 C 
ENDROOT
BRANCH  14   6
ATOM      1  O   UNL     1      -6.262   0.293   0.330  0.00  0.00    -0.253 OA
ATOM      5  N   UNL     1      -3.911   0.351   0.249  0.00  0.00    -0.279 N 
ATOM      6  N   UNL     1      -1.324   0.726  -0.785  0.00  0.00    -0.295 NA
ATOM      7  N   UNL     1      -4.915  -1.437   1.167  0.00  0.00    -0.297 N 
ATOM      8  C   UNL     1      -2.824  -0.451   0.770  0.00  0.00    +0.109 C 
ATOM      9  C   UNL     1      -1.725  -0.603  -0.281  0.00  0.00    +0.109 C 
ATOM     10  C   UNL     1      -3.616   1.610  -0.402  0.00  0.00    +0.125 C 
ATOM     11  C   UNL     1      -3.505  -1.754   1.182  0.00  0.00    +0.129 C 
ATOM     12  C   UNL     1      -2.470   1.425  -1.401  0.00  0.00    +0.104 C 
ATOM     13  C   UNL     1      -5.163  -0.194   0.553  0.00  0.00    +0.303 C 
ATOM     24  H   UNL     1      -5.647  -2.067   1.480  0.00  0.00    +0.150 HD
ENDBRANCH  14   6
BRANCH  14  15
ATOM     15  C   UNL     1       1.089   0.346  -1.068  0.00  0.00    -0.026 A 
ATOM     16  C   UNL     1       1.641  -0.935  -1.066  0.00  0.00    +0.054 A 
ATOM     17  C   UNL     1       1.760   1.395  -0.441  0.00  0.00    +0.054 A 
ATOM     18  C   UNL     1       2.983   1.163   0.190  0.00  0.00    +0.165 A 
ATOM     19  C   UNL     1       2.863  -1.167  -0.435  0.00  0.00    +0.165 A 
ATOM     20  C   UNL     1       3.534  -0.118   0.192  0.00  0.00    +0.204 A 
BRANCH  18   2
ATOM      2  O   UNL     1       3.629   2.197   0.798  0.00  0.00    -0.491 OA
ATOM     21  C   UNL     1       2.997   3.474   0.750  0.00  0.00    +0.277 C 
ENDBRANCH  18   2
BRANCH  19   3
ATOM      3  O   UNL     1       3.390  -2.424  -0.440  0.00  0.00    -0.491 OA
ATOM     22  C   UNL     1       2.640  -3.439  -1.104  0.00  0.00    +0.277 C 
ENDBRANCH  19   3
BRANCH  20   4
ATOM      4  O   UNL     1       4.730  -0.345   0.807  0.00  0.00    -0.488 OA
ATOM     23  C   UNL     1       4.689  -0.712   2.184  0.00  0.00    +0.277 C 
ENDBRANCH  20   4
ENDBRANCH  14  15
TORSDOF 5
