REMARK  Name = 11912401
REMARK  10 active torsions:
REMARK  status: ('A' for Active; 'I' for Inactive)
REMARK    1  A    between atoms: N_7  and  C_20
REMARK    2  A    between atoms: N_7  and  C_21
REMARK    3  A    between atoms: N_8  and  C_22
REMARK    4  A    between atoms: C_10  and  C_16
REMARK    5  A    between atoms: C_11  and  C_15
REMARK    6  A    between atoms: C_15  and  C_17
REMARK    7  A    between atoms: C_16  and  C_18
REMARK    8  A    between atoms: C_20  and  C_23
REMARK    9  A    between atoms: C_23  and  C_28
REMARK   10  A    between atoms: C_26  and  C_30
REMARK                            x       y       z     vdW  Elec       q    Type
REMARK                         _______ _______ _______ _____ _____    ______ ____
ROOT
ATOM      5  O   UNL     1       2.249   2.259  -0.503  0.00  0.00    -0.252 OA
ATOM      6  N   UNL     1       0.356   1.877   0.768  0.00  0.00    -0.285 N 
ATOM      8  N   UNL     1       2.425   0.927   1.388  0.00  0.00    -0.269 N 
ATOM     10  C   UNL     1      -2.439   1.179   0.498  0.00  0.00    +0.004 C 
ATOM     11  C   UNL     1      -1.510   0.402   1.467  0.00  0.00    +0.010 C 
ATOM     12  C   UNL     1      -1.650   1.832  -0.651  0.00  0.00    +0.023 C 
ATOM     13  C   UNL     1      -0.361   1.317   1.923  0.00  0.00    +0.113 C 
ATOM     14  C   UNL     1      -0.486   2.672  -0.126  0.00  0.00    +0.109 C 
ATOM     19  C   UNL     1       1.731   1.731   0.485  0.00  0.00    +0.306 C 
ATOM     31  H   UNL     1       2.096   0.882   2.345  0.00  0.00    +0.156 HD
ENDROOT
BRANCH   8  22
ATOM     22  C   UNL     1       3.562   0.124   1.127  0.00  0.00    +0.035 A 
ATOM     24  C   UNL     1       4.108   0.083  -0.156  0.00  0.00    +0.035 A 
ATOM     25  C   UNL     1       4.137  -0.625   2.153  0.00  0.00    +0.023 A 
ATOM     26  C   UNL     1       5.228  -0.708  -0.413  0.00  0.00    +0.057 A 
ATOM     27  C   UNL     1       5.258  -1.416   1.897  0.00  0.00    +0.002 A 
ATOM     29  C   UNL     1       5.803  -1.457   0.614  0.00  0.00    +0.012 A 
BRANCH  26  30
ATOM      1  F   UNL     1       6.903  -1.567  -1.889  0.00  0.00    -0.166 F 
ATOM      2  F   UNL     1       4.939  -1.203  -2.735  0.00  0.00    -0.166 F 
ATOM      3  F   UNL     1       6.226   0.473  -2.219  0.00  0.00    -0.166 F 
ATOM     30  C   UNL     1       5.811  -0.753  -1.784  0.00  0.00    +0.417 C 
ENDBRANCH  26  30
ENDBRANCH   8  22
BRANCH  11  15
ATOM     15  C   UNL     1      -0.955  -0.905   0.887  0.00  0.00    +0.002 C 
ATOM     17  C   UNL     1      -0.136  -1.655   1.916  0.00  0.00    +0.004 C 
ENDBRANCH  11  15
BRANCH  10  16
ATOM     16  C   UNL     1      -3.583   0.326  -0.050  0.00  0.00    +0.100 C 
BRANCH  16  18
ATOM      4  O   UNL     1      -4.726   2.397  -0.438  0.00  0.00    -0.276 OA
ATOM      7  N   UNL     1      -5.846   0.457  -1.041  0.00  0.00    -0.304 N 
ATOM     18  C   UNL     1      -4.758   1.166  -0.521  0.00  0.00    +0.216 C 
ATOM     21  C   UNL     1      -7.046   1.120  -1.535  0.00  0.00    +0.132 C 
BRANCH   7  20
ATOM     20  C   UNL     1      -5.861  -1.001  -1.128  0.00  0.00    +0.122 C 
BRANCH  20  23
ATOM     23  C   UNL     1      -6.435  -1.654   0.123  0.00  0.00    +0.137 C 
BRANCH  23  28
ATOM      9  N   UNL     1      -6.484  -4.277  -0.072  0.00  0.00    -0.197 NA
ATOM     28  C   UNL     1      -6.462  -3.120   0.013  0.00  0.00    +0.064 C 
ENDBRANCH  23  28
ENDBRANCH  20  23
ENDBRANCH   7  20
ENDBRANCH  16  18
ENDBRANCH  10  16
TORSDOF 8
