REMARK  Name = 45783319
REMARK  7 active torsions:
REMARK  status: ('A' for Active; 'I' for Inactive)
REMARK    1  A    between atoms: N_3  and  C_13
REMARK    2  A    between atoms: C_9  and  C_15
REMARK    3  A    between atoms: C_13  and  C_14
REMARK    4  A    between atoms: C_14  and  C_21
REMARK    5  A    between atoms: C_14  and  C_22
REMARK    6  A    between atoms: C_16  and  C_24
REMARK    7  A    between atoms: C_25  and  C_26
REMARK                            x       y       z     vdW  Elec       q    Type
REMARK                         _______ _______ _______ _____ _____    ______ ____
ROOT
ATOM      4  N   UNL     1       3.139  -0.306  -0.238  0.00  0.00    -0.315 N 
ATOM      7  N   UNL     1       2.608  -2.563   0.240  0.00  0.00    -0.240 NA
ATOM     16  C   UNL     1       5.157   1.754  -0.571  0.00  0.00    +0.078 C 
ATOM     17  C   UNL     1       5.164   0.473  -1.403  0.00  0.00    +0.031 C 
ATOM     18  C   UNL     1       3.756   2.074  -0.055  0.00  0.00    +0.031 C 
ATOM     19  C   UNL     1       4.478  -0.696  -0.696  0.00  0.00    +0.107 C 
ATOM     20  C   UNL     1       3.068   0.883   0.616  0.00  0.00    +0.107 C 
ATOM     23  C   UNL     1       2.187  -1.321  -0.088  0.00  0.00    +0.122 A 
ATOM     26  C   UNL     1      -0.098  -1.979  -0.144  0.00  0.00    +0.027 A 
ATOM     27  C   UNL     1       0.859  -0.981  -0.289  0.00  0.00    +0.055 A 
ATOM     28  C   UNL     1       0.297  -3.269   0.192  0.00  0.00    +0.031 A 
ATOM     29  C   UNL     1       1.650  -3.507   0.372  0.00  0.00    +0.113 A 
ENDROOT
BRANCH  26  25
ATOM      1  O   UNL     1      -3.611  -1.871  -0.489  0.00  0.00    -0.336 OA
ATOM      5  N   UNL     1      -1.911  -0.424  -0.670  0.00  0.00    -0.190 NA
ATOM      6  N   UNL     1      -2.448  -2.601  -0.213  0.00  0.00    -0.056 NA
ATOM     15  C   UNL     1      -3.206  -0.600  -0.748  0.00  0.00    +0.245 A 
ATOM     25  C   UNL     1      -1.488  -1.679  -0.340  0.00  0.00    +0.202 A 
BRANCH  15   9
ATOM      3  N   UNL     1      -4.294   1.561  -0.166  0.00  0.00    -0.291 NA
ATOM      9  C   UNL     1      -4.293   0.401  -1.079  0.00  0.00    +0.146 C 
ATOM     10  C   UNL     1      -4.133   1.009  -2.485  0.00  0.00    +0.030 C 
ATOM     11  C   UNL     1      -4.815   2.691  -0.935  0.00  0.00    +0.085 C 
ATOM     12  C   UNL     1      -4.114   2.515  -2.267  0.00  0.00    +0.017 C 
BRANCH   3  13
ATOM     13  C   UNL     1      -5.055   1.330   1.055  0.00  0.00    +0.088 C 
BRANCH  13  14
ATOM     14  C   UNL     1      -4.244   0.570   2.118  0.00  0.00    -0.003 C 
ATOM     21  C   UNL     1      -2.996   1.376   2.489  0.00  0.00    +0.008 C 
ATOM     22  C   UNL     1      -5.060   0.276   3.380  0.00  0.00    +0.008 C 
ENDBRANCH  13  14
ENDBRANCH   3  13
ENDBRANCH  15   9
ENDBRANCH  26  25
BRANCH  16  24
ATOM      2  O   UNL     1       5.817   1.796   1.728  0.00  0.00    -0.276 OA
ATOM      8  N   UNL     1       7.438   1.428   0.136  0.00  0.00    -0.329 N 
ATOM     24  C   UNL     1       6.148   1.659   0.552  0.00  0.00    +0.214 C 
ATOM     30  H   UNL     1       8.191   1.343   0.810  0.00  0.00    +0.145 HD
ATOM     31  H   UNL     1       7.702   1.380  -0.842  0.00  0.00    +0.145 HD
ENDBRANCH  16  24
TORSDOF 5
