REMARK  Name = 11883271
REMARK  5 active torsions:
REMARK  status: ('A' for Active; 'I' for Inactive)
REMARK    1  A    between atoms: O_3  and  C_11
REMARK    2  A    between atoms: O_3  and  C_14
REMARK    3  A    between atoms: N_6  and  C_10
REMARK    4  A    between atoms: C_14  and  C_17
REMARK    5  A    between atoms: C_15  and  C_16
REMARK                            x       y       z     vdW  Elec       q    Type
REMARK                         _______ _______ _______ _____ _____    ______ ____
ROOT
ATOM      1  O   UNL     1       0.175   0.374  -1.069  0.00  0.00    -0.369 OA
ATOM      2  O   UNL     1      -0.818  -2.185   0.298  0.00  0.00    -0.369 OA
ATOM      8  C   UNL     1      -1.177  -0.800   0.485  0.00  0.00    +0.172 C 
ATOM      9  C   UNL     1       0.094   0.009   0.319  0.00  0.00    +0.180 C 
ATOM     10  C   UNL     1      -2.056  -0.333  -0.651  0.00  0.00    +0.130 C 
ATOM     11  C   UNL     1       1.165  -0.984   0.701  0.00  0.00    +0.176 C 
ATOM     12  C   UNL     1      -1.039  -0.009  -1.732  0.00  0.00    +0.185 C 
ATOM     13  C   UNL     1       0.607  -2.280   0.158  0.00  0.00    +0.194 C 
ENDROOT
BRANCH  10   6
ATOM      4  O   UNL     1      -4.766  -0.248   0.387  0.00  0.00    -0.276 OA
ATOM      6  N   UNL     1      -2.816   0.835  -0.279  0.00  0.00    -0.308 N 
ATOM     15  C   UNL     1      -4.111   0.776   0.210  0.00  0.00    +0.210 C 
ATOM     16  C   UNL     1      -4.660   2.137   0.544  0.00  0.00    +0.109 C 
ATOM     18  H   UNL     1      -2.352   1.739  -0.325  0.00  0.00    +0.149 HD
ENDBRANCH  10   6
BRANCH  11   3
ATOM      3  O   UNL     1       2.431  -0.683   0.157  0.00  0.00    -0.362 OA
BRANCH   3  14
ATOM     14  C   UNL     1       2.954   0.540   0.670  0.00  0.00    +0.255 C 
BRANCH  14  17
ATOM      5  O   UNL     1       4.843   0.061  -0.759  0.00  0.00    -0.274 OA
ATOM      7  N   UNL     1       4.866   1.983   0.506  0.00  0.00    -0.327 N 
ATOM     17  C   UNL     1       4.307   0.808   0.054  0.00  0.00    +0.236 C 
ATOM     19  H   UNL     1       5.775   2.290   0.176  0.00  0.00    +0.145 HD
ATOM     20  H   UNL     1       4.399   2.582   1.180  0.00  0.00    +0.145 HD
ENDBRANCH  14  17
ENDBRANCH   3  14
ENDBRANCH  11   3
TORSDOF 4
