REMARK  Name = 75536877
REMARK  5 active torsions:
REMARK  status: ('A' for Active; 'I' for Inactive)
REMARK    1  A    between atoms: O_5  and  C_9
REMARK    2  A    between atoms: O_5  and  C_18
REMARK    3  A    between atoms: C_14  and  C_15
REMARK    4  A    between atoms: C_16  and  C_20
REMARK    5  A    between atoms: C_19  and  C_23
REMARK                            x       y       z     vdW  Elec       q    Type
REMARK                         _______ _______ _______ _____ _____    ______ ____
ROOT
ATOM      4  O   UNL     1       1.205  -4.067   0.360  0.00  0.00    -0.375 OA
ATOM      7  O   UNL     1      -2.206  -1.341  -2.105  0.00  0.00    -0.270 OA
ATOM      8  N   UNL     1      -0.845  -1.914  -0.283  0.00  0.00    -0.292 N 
ATOM      9  C   UNL     1       1.465  -1.579   0.524  0.00  0.00    +0.216 C 
ATOM     10  C   UNL     1      -0.022  -1.505   0.866  0.00  0.00    +0.155 C 
ATOM     11  C   UNL     1      -0.897  -3.349  -0.569  0.00  0.00    +0.136 C 
ATOM     12  C   UNL     1       2.066  -2.980   0.675  0.00  0.00    +0.206 C 
ATOM     13  C   UNL     1       0.481  -3.937  -0.858  0.00  0.00    +0.179 C 
ATOM     14  C   UNL     1      -1.537  -1.028  -1.121  0.00  0.00    +0.250 C 
ENDROOT
BRANCH  14  15
ATOM      6  O   UNL     1      -1.997   2.406   0.063  0.00  0.00    -0.455 OA
ATOM     15  C   UNL     1      -1.470   0.407  -0.818  0.00  0.00    +0.087 A 
ATOM     16  C   UNL     1      -2.341   1.093  -0.004  0.00  0.00    +0.220 A 
ATOM     17  C   UNL     1      -0.530   1.359  -1.281  0.00  0.00    +0.058 A 
ATOM     19  C   UNL     1      -0.895   2.560  -0.716  0.00  0.00    +0.103 A 
ATOM     23  C   UNL     1      -0.338   3.917  -0.793  0.00  0.00    +0.086 C 
BRANCH  16  20
ATOM      1  F   UNL     1      -4.682   1.342   0.417  0.00  0.00    -0.163 F 
ATOM      2  F   UNL     1      -3.415   0.922   2.126  0.00  0.00    -0.163 F 
ATOM      3  F   UNL     1      -3.823  -0.639   0.669  0.00  0.00    -0.163 F 
ATOM     20  C   UNL     1      -3.523   0.696   0.775  0.00  0.00    +0.451 C 
ENDBRANCH  16  20
ENDBRANCH  14  15
BRANCH   9   5
ATOM      5  O   UNL     1       2.177  -0.677   1.369  0.00  0.00    -0.485 OA
BRANCH   5  18
ATOM     18  C   UNL     1       2.842   0.344   0.750  0.00  0.00    +0.121 A 
ATOM     21  C   UNL     1       3.844   0.062  -0.179  0.00  0.00    +0.045 A 
ATOM     22  C   UNL     1       2.520   1.668   1.046  0.00  0.00    +0.045 A 
ATOM     24  C   UNL     1       4.523   1.103  -0.811  0.00  0.00    +0.004 A 
ATOM     25  C   UNL     1       3.199   2.710   0.414  0.00  0.00    +0.004 A 
ATOM     26  C   UNL     1       4.200   2.427  -0.515  0.00  0.00    +0.000 A 
ENDBRANCH   5  18
ENDBRANCH   9   5
TORSDOF 4
