REMARK  Name = 11885207
REMARK  5 active torsions:
REMARK  status: ('A' for Active; 'I' for Inactive)
REMARK    1  A    between atoms: S_1  and  C_30
REMARK    2  A    between atoms: S_1  and  C_32
REMARK    3  A    between atoms: C_16  and  C_19
REMARK    4  A    between atoms: C_17  and  C_20
REMARK    5  A    between atoms: C_29  and  C_31
REMARK                            x       y       z     vdW  Elec       q    Type
REMARK                         _______ _______ _______ _____ _____    ______ ____
ROOT
ATOM      2  O   UNL     1      -1.328  -2.548   1.210  0.00  0.00    -0.267 OA
ATOM      3  O   UNL     1       2.923  -0.111   2.640  0.00  0.00    -0.270 OA
ATOM      4  N   UNL     1       3.351  -1.017   0.526  0.00  0.00    -0.297 N 
ATOM      5  N   UNL     1       0.538  -2.278  -0.162  0.00  0.00    -0.311 N 
ATOM      7  C   UNL     1       2.778  -3.428   0.318  0.00  0.00    +0.027 C 
ATOM      8  C   UNL     1       2.554  -1.944  -1.635  0.00  0.00    +0.054 C 
ATOM      9  C   UNL     1       2.985  -3.341  -1.191  0.00  0.00    +0.018 C 
ATOM     10  C   UNL     1       3.623  -2.361   1.038  0.00  0.00    +0.113 C 
ATOM     11  C   UNL     1       1.281  -3.279   0.619  0.00  0.00    +0.130 C 
ATOM     12  C   UNL     1       3.433  -0.885  -0.937  0.00  0.00    +0.117 C 
ATOM     13  C   UNL     1       1.096  -1.691  -1.300  0.00  0.00    +0.027 A 
ATOM     14  C   UNL     1       0.358  -0.874  -2.068  0.00  0.00    +0.022 A 
ATOM     15  C   UNL     1      -0.789  -2.025   0.233  0.00  0.00    +0.259 A 
ATOM     16  C   UNL     1       2.993  -0.003   1.417  0.00  0.00    +0.247 C 
ATOM     17  C   UNL     1      -1.576  -1.067  -0.621  0.00  0.00    +0.047 A 
ATOM     18  C   UNL     1      -0.996  -0.555  -1.717  0.00  0.00    +0.015 A 
ENDROOT
BRANCH  16  19
ATOM     19  C   UNL     1       2.640   1.309   0.863  0.00  0.00    +0.037 A 
ATOM     21  C   UNL     1       1.318   1.586   0.525  0.00  0.00    +0.014 A 
ATOM     22  C   UNL     1       3.630   2.271   0.677  0.00  0.00    +0.014 A 
ATOM     25  C   UNL     1       0.983   2.834  -0.001  0.00  0.00    +0.019 A 
ATOM     26  C   UNL     1       3.295   3.519   0.151  0.00  0.00    +0.019 A 
ATOM     29  C   UNL     1       1.972   3.800  -0.188  0.00  0.00    +0.052 A 
BRANCH  29  31
ATOM      6  N   UNL     1       1.350   6.116  -1.169  0.00  0.00    -0.191 NA
ATOM     31  C   UNL     1       1.629   5.077  -0.729  0.00  0.00    +0.099 C 
ENDBRANCH  29  31
ENDBRANCH  16  19
BRANCH  17  20
ATOM     20  C   UNL     1      -2.950  -0.678  -0.262  0.00  0.00    -0.013 A 
ATOM     23  C   UNL     1      -4.033  -1.411  -0.749  0.00  0.00    +0.010 A 
ATOM     24  C   UNL     1      -3.171   0.424   0.564  0.00  0.00    +0.010 A 
ATOM     27  C   UNL     1      -5.335  -1.043  -0.409  0.00  0.00    +0.015 A 
ATOM     28  C   UNL     1      -4.473   0.793   0.903  0.00  0.00    +0.015 A 
ATOM     30  C   UNL     1      -5.554   0.059   0.417  0.00  0.00    +0.008 A 
BRANCH  30   1
ATOM      1  S   UNL     1      -7.217   0.531   0.849  0.00  0.00    -0.129 S 
ATOM     32  C   UNL     1      -7.307   2.219   0.185  0.00  0.00    +0.090 C 
ENDBRANCH  30   1
ENDBRANCH  17  20
TORSDOF 4
