REMARK  Name = 11942133
REMARK  8 active torsions:
REMARK  status: ('A' for Active; 'I' for Inactive)
REMARK    1  A    between atoms: O_2  and  C_20
REMARK    2  A    between atoms: N_4  and  C_15
REMARK    3  A    between atoms: N_5  and  C_19
REMARK    4  A    between atoms: C_9  and  C_15
REMARK    5  A    between atoms: C_10  and  C_16
REMARK    6  A    between atoms: C_18  and  C_20
REMARK    7  A    between atoms: C_20  and  C_23
REMARK    8  A    between atoms: C_20  and  C_24
REMARK                            x       y       z     vdW  Elec       q    Type
REMARK                         _______ _______ _______ _____ _____    ______ ____
ROOT
ATOM      3  N   UNL     1       0.003   2.693  -1.149  0.00  0.00    -0.297 NA
ATOM      8  C   UNL     1       0.682   2.330   1.337  0.00  0.00    +0.005 C 
ATOM      9  C   UNL     1      -0.988   1.811  -0.476  0.00  0.00    +0.078 C 
ATOM     10  C   UNL     1       1.852   2.010   0.387  0.00  0.00    +0.092 C 
ATOM     11  C   UNL     1      -0.529   1.455   0.955  0.00  0.00    +0.025 C 
ATOM     12  C   UNL     1       0.287   3.795   1.079  0.00  0.00    +0.020 C 
ATOM     13  C   UNL     1       1.360   2.098  -1.069  0.00  0.00    +0.097 C 
ATOM     14  C   UNL     1       0.023   3.990  -0.426  0.00  0.00    +0.085 C 
ENDROOT
BRANCH  10  16
ATOM      1  O   UNL     1       1.983  -0.036   1.582  0.00  0.00    -0.275 OA
ATOM      5  N   UNL     1       3.528   0.401  -0.138  0.00  0.00    -0.285 N 
ATOM     16  C   UNL     1       2.448   0.669   0.693  0.00  0.00    +0.222 C 
ATOM     28  H   UNL     1       3.789   1.111  -0.819  0.00  0.00    +0.155 HD
BRANCH   5  19
ATOM     19  C   UNL     1       4.339  -0.759  -0.148  0.00  0.00    +0.033 A 
ATOM     21  C   UNL     1       5.381  -0.849  -1.056  0.00  0.00    +0.023 A 
ATOM     22  C   UNL     1       4.074  -1.779   0.751  0.00  0.00    +0.023 A 
ATOM     25  C   UNL     1       6.181  -1.992  -1.065  0.00  0.00    +0.002 A 
ATOM     26  C   UNL     1       4.875  -2.922   0.742  0.00  0.00    +0.002 A 
ATOM     27  C   UNL     1       5.928  -3.028  -0.167  0.00  0.00    +0.000 A 
ENDBRANCH   5  19
ENDBRANCH  10  16
BRANCH   9  15
ATOM     15  C   UNL     1      -1.307   0.560  -1.298  0.00  0.00    +0.164 C 
BRANCH  15   4
ATOM      4  N   UNL     1      -2.380  -0.219  -0.702  0.00  0.00    -0.250 N 
ATOM      6  N   UNL     1      -2.099  -1.183   0.181  0.00  0.00    -0.065 NA
ATOM      7  N   UNL     1      -3.259  -1.718   0.546  0.00  0.00    -0.132 NA
ATOM     17  C   UNL     1      -3.707  -0.100  -0.935  0.00  0.00    +0.136 A 
ATOM     18  C   UNL     1      -4.254  -1.066  -0.128  0.00  0.00    +0.114 A 
BRANCH  18  20
ATOM     20  C   UNL     1      -5.665  -1.427   0.057  0.00  0.00    +0.105 C 
ATOM     23  C   UNL     1      -6.142  -1.261   1.529  0.00  0.00    +0.048 C 
ATOM     24  C   UNL     1      -6.013  -2.879  -0.391  0.00  0.00    +0.048 C 
BRANCH  20   2
ATOM      2  O   UNL     1      -6.600  -0.594  -0.694  0.00  0.00    -0.383 OA
ATOM     29  H   UNL     1      -6.484   0.323  -0.391  0.00  0.00    +0.211 HD
ENDBRANCH  20   2
ENDBRANCH  18  20
ENDBRANCH  15   4
ENDBRANCH   9  15
TORSDOF 6
