REMARK  Name = 28962585
REMARK  8 active torsions:
REMARK  status: ('A' for Active; 'I' for Inactive)
REMARK    1  A    between atoms: O_1  and  C_9
REMARK    2  A    between atoms: N_4  and  C_13
REMARK    3  A    between atoms: C_6  and  C_16
REMARK    4  A    between atoms: C_8  and  C_18
REMARK    5  A    between atoms: C_11  and  C_17
REMARK    6  A    between atoms: C_17  and  C_19
REMARK    7  A    between atoms: C_17  and  C_20
REMARK    8  A    between atoms: C_21  and  C_26
REMARK                            x       y       z     vdW  Elec       q    Type
REMARK                         _______ _______ _______ _____ _____    ______ ____
ROOT
ATOM      6  C   UNL     1       0.236  -1.522   1.022  0.00  0.00    -0.027 C 
ATOM      7  C   UNL     1       0.148  -0.298   0.051  0.00  0.00    +0.028 C 
ATOM      8  C   UNL     1      -1.302  -0.152  -0.536  0.00  0.00    +0.012 C 
ATOM      9  C   UNL     1       1.295  -0.328  -1.000  0.00  0.00    +0.122 C 
ATOM     10  C   UNL     1       1.641  -1.569   1.668  0.00  0.00    +0.007 C 
ATOM     11  C   UNL     1       2.691  -0.480  -0.352  0.00  0.00    +0.029 C 
ATOM     12  C   UNL     1      -0.798  -1.341   2.157  0.00  0.00    +0.009 C 
ATOM     13  C   UNL     1      -2.341  -0.046   0.616  0.00  0.00    +0.076 C 
ATOM     14  C   UNL     1       2.764  -1.639   0.642  0.00  0.00    +0.007 C 
ATOM     15  C   UNL     1      -2.222  -1.168   1.647  0.00  0.00    +0.023 C 
ATOM     16  C   UNL     1      -0.027  -2.870   0.303  0.00  0.00    +0.011 C 
ATOM     18  C   UNL     1      -1.466   1.052  -1.478  0.00  0.00    +0.010 C 
ENDROOT
BRANCH  13   4
ATOM      3  O   UNL     1      -4.580   1.326   1.776  0.00  0.00    -0.270 OA
ATOM      4  N   UNL     1      -3.698  -0.028   0.113  0.00  0.00    -0.308 N 
ATOM     21  C   UNL     1      -4.713   0.667   0.747  0.00  0.00    +0.244 C 
ATOM     33  H   UNL     1      -3.906  -0.643  -0.667  0.00  0.00    +0.149 HD
BRANCH  21  26
ATOM     26  C   UNL     1      -6.056   0.565   0.120  0.00  0.00    +0.037 A 
ATOM     28  C   UNL     1      -7.204   0.714   0.899  0.00  0.00    +0.013 A 
ATOM     29  C   UNL     1      -6.169   0.321  -1.249  0.00  0.00    +0.013 A 
ATOM     30  C   UNL     1      -8.464   0.619   0.309  0.00  0.00    +0.001 A 
ATOM     31  C   UNL     1      -7.430   0.226  -1.839  0.00  0.00    +0.001 A 
ATOM     32  C   UNL     1      -8.577   0.375  -1.060  0.00  0.00    +0.000 A 
ENDBRANCH  21  26
ENDBRANCH  13   4
BRANCH   9   1
ATOM      1  O   UNL     1       1.312   0.904  -1.722  0.00  0.00    -0.391 OA
ATOM     34  H   UNL     1       1.462   1.625  -1.087  0.00  0.00    +0.210 HD
ENDBRANCH   9   1
BRANCH  11  17
ATOM     17  C   UNL     1       3.793  -0.639  -1.407  0.00  0.00    +0.078 C 
ATOM     19  C   UNL     1       3.571  -1.883  -2.248  0.00  0.00    +0.017 C 
BRANCH  17  20
ATOM      2  O   UNL     1       5.578  -1.827  -0.397  0.00  0.00    -0.275 OA
ATOM      5  N   UNL     1       5.767   0.489  -0.441  0.00  0.00    -0.301 N 
ATOM     20  C   UNL     1       5.125  -0.721  -0.704  0.00  0.00    +0.219 C 
ATOM     22  C   UNL     1       7.063   0.492   0.241  0.00  0.00    +0.108 C 
ATOM     23  C   UNL     1       5.275   1.815  -0.832  0.00  0.00    +0.108 C 
ATOM     24  C   UNL     1       7.031   1.398   1.470  0.00  0.00    +0.019 C 
ATOM     25  C   UNL     1       5.209   2.747   0.376  0.00  0.00    +0.019 C 
ATOM     27  C   UNL     1       6.549   2.802   1.109  0.00  0.00    +0.003 C 
ENDBRANCH  17  20
ENDBRANCH  11  17
TORSDOF 5
