REMARK  Name = 86768988
REMARK  7 active torsions:
REMARK  status: ('A' for Active; 'I' for Inactive)
REMARK    1  A    between atoms: O_1  and  C_10
REMARK    2  A    between atoms: O_2  and  C_12
REMARK    3  A    between atoms: N_4  and  C_8
REMARK    4  A    between atoms: N_4  and  C_13
REMARK    5  A    between atoms: N_5  and  C_21
REMARK    6  A    between atoms: N_7  and  C_23
REMARK    7  A    between atoms: C_9  and  C_14
REMARK                            x       y       z     vdW  Elec       q    Type
REMARK                         _______ _______ _______ _____ _____    ______ ____
ROOT
ATOM      8  C   UNL     1      -2.310   1.190  -0.409  0.00  0.00    +0.092 C 
ATOM      9  C   UNL     1      -1.343   1.541   0.764  0.00  0.00    +0.042 C 
ATOM     10  C   UNL     1      -2.954   2.527  -0.811  0.00  0.00    +0.160 C 
ATOM     11  C   UNL     1      -1.490   3.058   0.991  0.00  0.00    +0.043 C 
ATOM     12  C   UNL     1      -2.882   3.368   0.460  0.00  0.00    +0.145 C 
ENDROOT
BRANCH   9  14
ATOM      6  N   UNL     1       1.997  -0.187   1.260  0.00  0.00    -0.240 NA
ATOM     14  C   UNL     1       0.089   1.109   0.533  0.00  0.00    -0.024 A 
ATOM     19  C   UNL     1       0.812   1.575  -0.559  0.00  0.00    +0.009 A 
ATOM     20  C   UNL     1       0.722   0.237   1.405  0.00  0.00    +0.116 A 
ATOM     22  C   UNL     1       2.127   1.161  -0.744  0.00  0.00    +0.044 A 
ATOM     23  C   UNL     1       2.668   0.287   0.186  0.00  0.00    +0.121 A 
BRANCH  23   7
ATOM      3  O   UNL     1       6.679  -0.933  -0.133  0.00  0.00    -0.377 OA
ATOM      7  N   UNL     1       3.992  -0.120  -0.012  0.00  0.00    -0.311 N 
ATOM     24  C   UNL     1       4.387  -1.452   0.466  0.00  0.00    +0.134 C 
ATOM     25  C   UNL     1       5.067   0.878  -0.042  0.00  0.00    +0.134 C 
ATOM     26  C   UNL     1       5.645  -1.908  -0.264  0.00  0.00    +0.178 C 
ATOM     27  C   UNL     1       6.290   0.297  -0.743  0.00  0.00    +0.178 C 
ENDBRANCH  23   7
ENDBRANCH   9  14
BRANCH  10   1
ATOM      1  O   UNL     1      -2.168   3.111  -1.849  0.00  0.00    -0.388 OA
ATOM     29  H   UNL     1      -2.240   2.534  -2.628  0.00  0.00    +0.210 HD
ENDBRANCH  10   1
BRANCH  12   2
ATOM      2  O   UNL     1      -3.043   4.749   0.208  0.00  0.00    -0.389 OA
ATOM     30  H   UNL     1      -2.893   5.218   1.046  0.00  0.00    +0.210 HD
ENDBRANCH  12   2
BRANCH   8   4
ATOM      4  N   UNL     1      -3.340   0.264   0.066  0.00  0.00    -0.307 NA
ATOM     28  H   UNL     1      -4.156   0.297  -0.544  0.00  0.00    +0.123 HD
BRANCH   4  13
ATOM      5  N   UNL     1      -3.235  -3.971  -0.286  0.00  0.00    -0.305 NA
ATOM     13  C   UNL     1      -2.824  -1.102   0.121  0.00  0.00    +0.056 C 
ATOM     15  C   UNL     1      -3.638  -1.957   1.096  0.00  0.00    +0.034 C 
ATOM     16  C   UNL     1      -2.848  -1.734  -1.273  0.00  0.00    +0.034 C 
ATOM     17  C   UNL     1      -3.168  -3.414   1.072  0.00  0.00    +0.085 C 
ATOM     18  C   UNL     1      -2.403  -3.198  -1.220  0.00  0.00    +0.085 C 
ATOM     21  C   UNL     1      -2.831  -5.376  -0.284  0.00  0.00    +0.104 C 
ENDBRANCH   4  13
ENDBRANCH   8   4
TORSDOF 6
