REMARK  Name = 75536080
REMARK  7 active torsions:
REMARK  status: ('A' for Active; 'I' for Inactive)
REMARK    1  A    between atoms: O_1  and  C_10
REMARK    2  A    between atoms: O_2  and  C_12
REMARK    3  A    between atoms: N_4  and  C_9
REMARK    4  A    between atoms: N_7  and  C_23
REMARK    5  A    between atoms: C_8  and  C_13
REMARK    6  A    between atoms: C_16  and  C_17
REMARK    7  A    between atoms: C_21  and  C_22
REMARK                            x       y       z     vdW  Elec       q    Type
REMARK                         _______ _______ _______ _____ _____    ______ ____
ROOT
ATOM      8  C   UNL     1       1.903   0.467   0.940  0.00  0.00    +0.046 C 
ATOM      9  C   UNL     1       1.054   1.201  -0.124  0.00  0.00    +0.112 C 
ATOM     10  C   UNL     1       1.426   2.669   0.075  0.00  0.00    +0.164 C 
ATOM     11  C   UNL     1       3.093   1.410   1.254  0.00  0.00    +0.044 C 
ATOM     12  C   UNL     1       2.928   2.615   0.330  0.00  0.00    +0.145 C 
ENDROOT
BRANCH   8  13
ATOM      5  N   UNL     1       2.262  -3.309   0.932  0.00  0.00    -0.263 NA
ATOM     13  C   UNL     1       2.308  -0.928   0.515  0.00  0.00    -0.024 A 
ATOM     14  C   UNL     1       3.067  -1.136  -0.631  0.00  0.00    +0.007 A 
ATOM     15  C   UNL     1       1.933  -2.038   1.255  0.00  0.00    +0.114 A 
ATOM     18  C   UNL     1       3.425  -2.430  -0.996  0.00  0.00    +0.020 A 
ATOM     19  C   UNL     1       3.001  -3.472  -0.188  0.00  0.00    +0.111 A 
ENDBRANCH   8  13
BRANCH   9   4
ATOM      3  O   UNL     1      -0.533  -0.835  -1.382  0.00  0.00    -0.268 OA
ATOM      4  N   UNL     1      -0.357   0.974   0.060  0.00  0.00    -0.304 N 
ATOM     16  C   UNL     1      -1.042  -0.041  -0.595  0.00  0.00    +0.264 C 
ATOM     24  H   UNL     1      -0.860   1.558   0.722  0.00  0.00    +0.149 HD
BRANCH  16  17
ATOM      6  N   UNL     1      -3.069   0.745   0.518  0.00  0.00    -0.167 NA
ATOM      7  N   UNL     1      -4.359   0.367   0.520  0.00  0.00    -0.271 N 
ATOM     17  C   UNL     1      -2.499  -0.127  -0.318  0.00  0.00    +0.147 A 
ATOM     20  C   UNL     1      -3.418  -1.053  -0.847  0.00  0.00    +0.057 A 
ATOM     21  C   UNL     1      -4.620  -0.706  -0.281  0.00  0.00    +0.037 A 
ATOM     22  C   UNL     1      -5.966  -1.289  -0.431  0.00  0.00    +0.065 C 
ATOM     23  C   UNL     1      -5.306   1.095   1.332  0.00  0.00    +0.172 C 
ENDBRANCH  16  17
ENDBRANCH   9   4
BRANCH  10   1
ATOM      1  O   UNL     1       1.129   3.457  -1.062  0.00  0.00    -0.387 OA
ATOM     25  H   UNL     1       1.477   4.350  -0.898  0.00  0.00    +0.210 HD
ENDBRANCH  10   1
BRANCH  12   2
ATOM      2  O   UNL     1       3.641   2.364  -0.878  0.00  0.00    -0.389 OA
ATOM     26  H   UNL     1       4.585   2.300  -0.652  0.00  0.00    +0.210 HD
ENDBRANCH  12   2
TORSDOF 5
