REMARK  Name = 11886487
REMARK  6 active torsions:
REMARK  status: ('A' for Active; 'I' for Inactive)
REMARK    1  A    between atoms: O_6  and  C_12
REMARK    2  A    between atoms: O_6  and  C_15
REMARK    3  A    between atoms: N_8  and  C_11
REMARK    4  A    between atoms: C_15  and  C_17
REMARK    5  A    between atoms: C_16  and  C_18
REMARK    6  A    between atoms: C_25  and  C_29
REMARK                            x       y       z     vdW  Elec       q    Type
REMARK                         _______ _______ _______ _____ _____    ______ ____
ROOT
ATOM      4  O   UNL     1       1.818   0.784   0.801  0.00  0.00    -0.369 OA
ATOM      5  O   UNL     1       1.826   3.344  -0.887  0.00  0.00    -0.369 OA
ATOM      9  C   UNL     1       0.944   2.202  -0.886  0.00  0.00    +0.172 C 
ATOM     10  C   UNL     1       1.803   0.983  -0.623  0.00  0.00    +0.180 C 
ATOM     11  C   UNL     1       0.021   2.260   0.309  0.00  0.00    +0.130 C 
ATOM     12  C   UNL     1       3.154   1.417  -1.140  0.00  0.00    +0.175 C 
ATOM     13  C   UNL     1       0.892   1.693   1.416  0.00  0.00    +0.185 C 
ATOM     14  C   UNL     1       3.180   2.883  -0.771  0.00  0.00    +0.194 C 
ENDROOT
BRANCH  11   8
ATOM      7  O   UNL     1      -2.542   2.611   1.555  0.00  0.00    -0.270 OA
ATOM      8  N   UNL     1      -1.156   1.453   0.101  0.00  0.00    -0.304 N 
ATOM     16  C   UNL     1      -2.356   1.701   0.752  0.00  0.00    +0.244 C 
ATOM     30  H   UNL     1      -1.044   0.615  -0.461  0.00  0.00    +0.149 HD
BRANCH  16  18
ATOM     18  C   UNL     1      -3.467   0.762   0.449  0.00  0.00    +0.037 A 
ATOM     19  C   UNL     1      -4.450   0.565   1.397  0.00  0.00    +0.013 A 
ATOM     20  C   UNL     1      -3.481   0.117  -0.770  0.00  0.00    +0.013 A 
ATOM     23  C   UNL     1      -5.493  -0.316   1.112  0.00  0.00    +0.013 A 
ATOM     24  C   UNL     1      -4.524  -0.764  -1.055  0.00  0.00    +0.013 A 
ATOM     25  C   UNL     1      -5.530  -0.981  -0.114  0.00  0.00    +0.055 A 
BRANCH  25  29
ATOM      1  F   UNL     1      -7.376  -1.570  -1.517  0.00  0.00    -0.166 F 
ATOM      2  F   UNL     1      -7.556  -2.038   0.594  0.00  0.00    -0.166 F 
ATOM      3  F   UNL     1      -6.207  -3.193  -0.662  0.00  0.00    -0.166 F 
ATOM     29  C   UNL     1      -6.645  -1.923  -0.418  0.00  0.00    +0.417 C 
ENDBRANCH  25  29
ENDBRANCH  16  18
ENDBRANCH  11   8
BRANCH  12   6
ATOM      6  O   UNL     1       4.230   0.707  -0.571  0.00  0.00    -0.367 OA
BRANCH   6  15
ATOM     15  C   UNL     1       4.202  -0.675  -0.920  0.00  0.00    +0.195 C 
BRANCH  15  17
ATOM     17  C   UNL     1       5.371  -1.365  -0.282  0.00  0.00    -0.022 A 
ATOM     21  C   UNL     1       6.579  -1.448  -0.966  0.00  0.00    +0.006 A 
ATOM     22  C   UNL     1       5.237  -1.916   0.988  0.00  0.00    +0.006 A 
ATOM     26  C   UNL     1       7.666  -2.090  -0.373  0.00  0.00    +0.000 A 
ATOM     27  C   UNL     1       6.324  -2.558   1.581  0.00  0.00    +0.000 A 
ATOM     28  C   UNL     1       7.539  -2.644   0.901  0.00  0.00    +0.000 A 
ENDBRANCH  15  17
ENDBRANCH   6  15
ENDBRANCH  12   6
TORSDOF 6
