REMARK  Name = 11886185
REMARK  6 active torsions:
REMARK  status: ('A' for Active; 'I' for Inactive)
REMARK    1  A    between atoms: O_6  and  C_20
REMARK    2  A    between atoms: O_6  and  C_23
REMARK    3  A    between atoms: N_8  and  C_16
REMARK    4  A    between atoms: N_9  and  C_17
REMARK    5  A    between atoms: N_12  and  C_22
REMARK    6  A    between atoms: C_28  and  C_33
REMARK                            x       y       z     vdW  Elec       q    Type
REMARK                         _______ _______ _______ _____ _____    ______ ____
ROOT
ATOM      4  O   UNL     1       1.270  -2.982   0.574  0.00  0.00    -0.370 OA
ATOM      5  O   UNL     1       1.252  -1.351  -2.115  0.00  0.00    -0.370 OA
ATOM     14  C   UNL     1       1.450  -0.997  -0.734  0.00  0.00    +0.176 C 
ATOM     15  C   UNL     1       0.514  -1.861   0.088  0.00  0.00    +0.172 C 
ATOM     16  C   UNL     1       2.841  -1.406  -0.291  0.00  0.00    +0.171 C 
ATOM     17  C   UNL     1      -0.533  -2.324  -0.900  0.00  0.00    +0.131 C 
ATOM     18  C   UNL     1       2.642  -2.842   0.182  0.00  0.00    +0.190 C 
ATOM     19  C   UNL     1       0.248  -2.372  -2.200  0.00  0.00    +0.185 C 
ENDROOT
BRANCH  17   9
ATOM      7  O   UNL     1      -3.003  -2.441   0.547  0.00  0.00    -0.252 OA
ATOM      9  N   UNL     1      -1.626  -1.385  -0.981  0.00  0.00    -0.292 N 
ATOM     12  N   UNL     1      -3.679  -0.463  -0.521  0.00  0.00    -0.269 N 
ATOM     21  C   UNL     1      -2.804  -1.515  -0.236  0.00  0.00    +0.304 C 
ATOM     35  H   UNL     1      -1.509  -0.556  -1.556  0.00  0.00    +0.151 HD
ATOM     36  H   UNL     1      -3.358   0.224  -1.200  0.00  0.00    +0.156 HD
BRANCH  12  22
ATOM     22  C   UNL     1      -4.965  -0.232   0.020  0.00  0.00    +0.035 A 
ATOM     24  C   UNL     1      -5.686   0.876  -0.393  0.00  0.00    +0.035 A 
ATOM     25  C   UNL     1      -5.478  -1.120   0.951  0.00  0.00    +0.023 A 
ATOM     28  C   UNL     1      -6.955   1.103   0.140  0.00  0.00    +0.057 A 
ATOM     29  C   UNL     1      -6.747  -0.894   1.484  0.00  0.00    +0.002 A 
ATOM     30  C   UNL     1      -7.486   0.218   1.078  0.00  0.00    +0.012 A 
BRANCH  28  33
ATOM      1  F   UNL     1      -7.128   3.482  -0.036  0.00  0.00    -0.166 F 
ATOM      2  F   UNL     1      -8.968   2.385   0.309  0.00  0.00    -0.166 F 
ATOM      3  F   UNL     1      -7.998   2.292  -1.635  0.00  0.00    -0.166 F 
ATOM     33  C   UNL     1      -7.745   2.291  -0.294  0.00  0.00    +0.417 C 
ENDBRANCH  28  33
ENDBRANCH  12  22
ENDBRANCH  17   9
BRANCH  16   8
ATOM      8  N   UNL     1       3.403  -0.495   0.710  0.00  0.00    -0.187 N 
ATOM     10  N   UNL     1       2.773  -0.275   1.867  0.00  0.00    -0.041 NA
ATOM     11  N   UNL     1       4.663   0.904   1.771  0.00  0.00    -0.071 NA
ATOM     13  N   UNL     1       3.550   0.584   2.515  0.00  0.00    -0.020 NA
ATOM     20  C   UNL     1       4.550   0.222   0.654  0.00  0.00    +0.342 A 
BRANCH  20   6
ATOM      6  O   UNL     1       5.396   0.222  -0.359  0.00  0.00    -0.423 OA
BRANCH   6  23
ATOM     23  C   UNL     1       6.559   0.980  -0.362  0.00  0.00    +0.132 A 
ATOM     26  C   UNL     1       7.721   0.426   0.138  0.00  0.00    +0.046 A 
ATOM     27  C   UNL     1       6.519   2.266  -0.866  0.00  0.00    +0.046 A 
ATOM     31  C   UNL     1       8.890   1.188   0.134  0.00  0.00    +0.004 A 
ATOM     32  C   UNL     1       7.687   3.028  -0.869  0.00  0.00    +0.004 A 
ATOM     34  C   UNL     1       8.873   2.489  -0.369  0.00  0.00    +0.000 A 
ENDBRANCH   6  23
ENDBRANCH  20   6
ENDBRANCH  16   8
TORSDOF 6
