REMARK  Name = 11883311
REMARK  6 active torsions:
REMARK  status: ('A' for Active; 'I' for Inactive)
REMARK    1  A    between atoms: S_1  and  N_7
REMARK    2  A    between atoms: S_1  and  C_15
REMARK    3  A    between atoms: O_4  and  C_12
REMARK    4  A    between atoms: O_4  and  C_16
REMARK    5  A    between atoms: N_7  and  C_11
REMARK    6  A    between atoms: C_17  and  C_22
REMARK                            x       y       z     vdW  Elec       q    Type
REMARK                         _______ _______ _______ _____ _____    ______ ____
ROOT
ATOM      7  N   UNL     1      -0.139  -1.511   0.049  0.00  0.00    -0.182 NA
ATOM     23  H   UNL     1       0.232  -1.790  -0.868  0.00  0.00    +0.148 HD
ENDROOT
BRANCH   7  11
ATOM      2  O   UNL     1       2.938  -1.196   0.518  0.00  0.00    -0.370 OA
ATOM      3  O   UNL     1       1.665   1.571   0.882  0.00  0.00    -0.370 OA
ATOM      9  C   UNL     1       1.303   0.455   0.041  0.00  0.00    +0.170 C 
ATOM     10  C   UNL     1       2.597  -0.174  -0.435  0.00  0.00    +0.179 C 
ATOM     11  C   UNL     1       0.655  -0.630   0.870  0.00  0.00    +0.133 C 
ATOM     12  C   UNL     1       3.563   0.985  -0.382  0.00  0.00    +0.175 C 
ATOM     13  C   UNL     1       1.858  -1.352   1.452  0.00  0.00    +0.183 C 
ATOM     14  C   UNL     1       3.090   1.738   0.841  0.00  0.00    +0.194 C 
BRANCH  12   4
ATOM      4  O   UNL     1       4.912   0.589  -0.272  0.00  0.00    -0.375 OA
ATOM     16  C   UNL     1       5.354  -0.121  -1.426  0.00  0.00    +0.194 C 
ENDBRANCH  12   4
ENDBRANCH   7  11
BRANCH   7   1
ATOM      1  S   UNL     1      -1.775  -1.768   0.422  0.00  0.00    +0.060 S 
ATOM      5  O   UNL     1      -1.893  -2.201   1.802  0.00  0.00    -0.153 OA
ATOM      6  O   UNL     1      -2.381  -2.546  -0.641  0.00  0.00    -0.153 OA
BRANCH   1  15
ATOM     15  C   UNL     1      -2.437  -0.133   0.306  0.00  0.00    +0.123 A 
ATOM     17  C   UNL     1      -2.559   0.510  -0.917  0.00  0.00    +0.078 A 
ATOM     18  C   UNL     1      -2.830   0.488   1.484  0.00  0.00    +0.030 A 
ATOM     19  C   UNL     1      -3.086   1.801  -0.964  0.00  0.00    +0.021 A 
ATOM     20  C   UNL     1      -3.357   1.779   1.437  0.00  0.00    +0.002 A 
ATOM     21  C   UNL     1      -3.485   2.435   0.213  0.00  0.00    +0.001 A 
BRANCH  17  22
ATOM      8  N   UNL     1      -1.835  -0.612  -3.137  0.00  0.00    -0.191 NA
ATOM     22  C   UNL     1      -2.159  -0.110  -2.144  0.00  0.00    +0.101 C 
ENDBRANCH  17  22
ENDBRANCH   1  15
ENDBRANCH   7   1
TORSDOF 5
