REMARK  Name = 7155616
REMARK  3 active torsions:
REMARK  status: ('A' for Active; 'I' for Inactive)
REMARK    1  A    between atoms: N_7  and  C_22
REMARK    2  A    between atoms: N_8  and  C_20
REMARK    3  A    between atoms: C_23  and  C_26
REMARK                            x       y       z     vdW  Elec       q    Type
REMARK                         _______ _______ _______ _____ _____    ______ ____
ROOT
ATOM      2  O   UNL     1       0.536   2.251   1.857  0.00  0.00    -0.266 OA
ATOM      3  O   UNL     1      -3.548  -1.009   1.840  0.00  0.00    -0.252 OA
ATOM      5  N   UNL     1      -3.865   0.555   0.164  0.00  0.00    -0.284 N 
ATOM      6  N   UNL     1      -1.207   2.315   0.302  0.00  0.00    -0.310 N 
ATOM      7  N   UNL     1      -3.069  -1.607  -0.348  0.00  0.00    -0.269 N 
ATOM     10  C   UNL     1      -3.611   2.918   0.939  0.00  0.00    +0.027 C 
ATOM     11  C   UNL     1      -3.077   2.336  -1.388  0.00  0.00    +0.054 C 
ATOM     12  C   UNL     1      -3.728   3.395  -0.503  0.00  0.00    +0.018 C 
ATOM     13  C   UNL     1      -4.328   1.569   1.115  0.00  0.00    +0.114 C 
ATOM     14  C   UNL     1      -2.128   2.837   1.319  0.00  0.00    +0.130 C 
ATOM     15  C   UNL     1      -3.830   0.997  -1.242  0.00  0.00    +0.119 C 
ATOM     16  C   UNL     1      -1.616   2.142  -1.024  0.00  0.00    +0.027 A 
ATOM     17  C   UNL     1      -0.727   1.774  -1.963  0.00  0.00    +0.024 A 
ATOM     18  C   UNL     1       0.126   2.096   0.706  0.00  0.00    +0.273 A 
ATOM     19  C   UNL     1      -3.488  -0.720   0.642  0.00  0.00    +0.306 C 
ATOM     20  C   UNL     1       1.078   1.662  -0.365  0.00  0.00    +0.099 A 
ATOM     21  C   UNL     1       0.646   1.529  -1.623  0.00  0.00    +0.030 A 
ATOM     34  H   UNL     1      -3.440  -1.492  -1.285  0.00  0.00    +0.156 HD
ENDROOT
BRANCH   7  22
ATOM      1  F   UNL     1       0.323  -5.946   0.260  0.00  0.00    -0.205 F 
ATOM     22  C   UNL     1      -2.201  -2.716  -0.193  0.00  0.00    +0.035 A 
ATOM     24  C   UNL     1      -1.960  -3.562  -1.272  0.00  0.00    +0.026 A 
ATOM     25  C   UNL     1      -1.596  -2.954   1.038  0.00  0.00    +0.026 A 
ATOM     27  C   UNL     1      -1.107  -4.655  -1.119  0.00  0.00    +0.040 A 
ATOM     28  C   UNL     1      -0.742  -4.046   1.191  0.00  0.00    +0.040 A 
ATOM     29  C   UNL     1      -0.498  -4.897   0.113  0.00  0.00    +0.124 A 
ENDBRANCH   7  22
BRANCH  20   8
ATOM      4  O   UNL     1       2.870  -0.152  -1.648  0.00  0.00    -0.270 OA
ATOM      8  N   UNL     1       2.374   1.425  -0.011  0.00  0.00    -0.277 N 
ATOM     23  C   UNL     1       3.197   0.527  -0.677  0.00  0.00    +0.248 C 
ATOM     35  H   UNL     1       2.663   1.835   0.870  0.00  0.00    +0.155 HD
BRANCH  23  26
ATOM      9  N   UNL     1       7.169   0.222   0.801  0.00  0.00    -0.263 NA
ATOM     26  C   UNL     1       4.586   0.420  -0.160  0.00  0.00    +0.040 A 
ATOM     30  C   UNL     1       5.589   0.038  -1.019  0.00  0.00    +0.033 A 
ATOM     31  C   UNL     1       4.828   0.708   1.162  0.00  0.00    +0.033 A 
ATOM     32  C   UNL     1       6.866  -0.046  -0.488  0.00  0.00    +0.111 A 
ATOM     33  C   UNL     1       6.139   0.593   1.595  0.00  0.00    +0.111 A 
ENDBRANCH  23  26
ENDBRANCH  20   8
TORSDOF 3
