REMARK  Name = 71693817
REMARK  10 active torsions:
REMARK  status: ('A' for Active; 'I' for Inactive)
REMARK    1  A    between atoms: O_1  and  C_7
REMARK    2  A    between atoms: O_2  and  C_9
REMARK    3  A    between atoms: O_3  and  C_12
REMARK    4  A    between atoms: N_4  and  C_5
REMARK    5  A    between atoms: N_4  and  C_11
REMARK    6  A    between atoms: C_6  and  C_10
REMARK    7  A    between atoms: C_11  and  C_12
REMARK    8  A    between atoms: C_12  and  C_16
REMARK    9  A    between atoms: C_12  and  C_17
REMARK   10  A    between atoms: C_13  and  C_18
REMARK                            x       y       z     vdW  Elec       q    Type
REMARK                         _______ _______ _______ _____ _____    ______ ____
ROOT
ATOM      5  C   UNL     1      -0.421  -0.843  -0.063  0.00  0.00    +0.092 C 
ATOM      6  C   UNL     1       0.906  -0.696  -0.842  0.00  0.00    +0.041 C 
ATOM      7  C   UNL     1      -0.889  -2.250  -0.436  0.00  0.00    +0.160 C 
ATOM      8  C   UNL     1       1.434  -2.143  -1.038  0.00  0.00    +0.043 C 
ATOM      9  C   UNL     1       0.403  -3.060  -0.376  0.00  0.00    +0.145 C 
ENDROOT
BRANCH   6  10
ATOM     10  C   UNL     1       1.891   0.236  -0.170  0.00  0.00    -0.040 A 
ATOM     13  C   UNL     1       2.367   1.371  -0.826  0.00  0.00    -0.047 A 
ATOM     14  C   UNL     1       2.323  -0.054   1.125  0.00  0.00    +0.004 A 
ATOM     15  C   UNL     1       3.274   2.217  -0.188  0.00  0.00    +0.003 A 
ATOM     18  C   UNL     1       1.919   1.702  -2.212  0.00  0.00    +0.044 C 
ATOM     19  C   UNL     1       3.231   0.792   1.763  0.00  0.00    +0.000 A 
ATOM     20  C   UNL     1       3.706   1.927   1.107  0.00  0.00    +0.000 A 
ENDBRANCH   6  10
BRANCH   7   1
ATOM      1  O   UNL     1      -1.863  -2.734   0.469  0.00  0.00    -0.388 OA
ATOM     22  H   UNL     1      -2.039  -3.662   0.238  0.00  0.00    +0.210 HD
ENDBRANCH   7   1
BRANCH   9   2
ATOM      2  O   UNL     1       0.774  -3.292   0.980  0.00  0.00    -0.389 OA
ATOM     23  H   UNL     1       1.624  -3.765   0.972  0.00  0.00    +0.210 HD
ENDBRANCH   9   2
BRANCH   5   4
ATOM      4  N   UNL     1      -1.397   0.171  -0.446  0.00  0.00    -0.308 NA
ATOM     21  H   UNL     1      -0.923   1.066  -0.565  0.00  0.00    +0.122 HD
BRANCH   4  11
ATOM     11  C   UNL     1      -2.424   0.315   0.576  0.00  0.00    +0.115 C 
BRANCH  11  12
ATOM     12  C   UNL     1      -3.525   1.331   0.220  0.00  0.00    +0.073 C 
ATOM     16  C   UNL     1      -4.319   0.913  -1.022  0.00  0.00    +0.042 C 
ATOM     17  C   UNL     1      -2.962   2.744   0.048  0.00  0.00    +0.042 C 
BRANCH  12   3
ATOM      3  O   UNL     1      -4.431   1.352   1.330  0.00  0.00    -0.388 OA
ATOM     24  H   UNL     1      -5.139   1.988   1.129  0.00  0.00    +0.210 HD
ENDBRANCH  12   3
ENDBRANCH  11  12
ENDBRANCH   4  11
ENDBRANCH   5   4
TORSDOF 7
