REMARK  Name = 51137960
REMARK  8 active torsions:
REMARK  status: ('A' for Active; 'I' for Inactive)
REMARK    1  A    between atoms: N_4  and  C_21
REMARK    2  A    between atoms: C_5  and  C_7
REMARK    3  A    between atoms: C_6  and  C_16
REMARK    4  A    between atoms: C_7  and  C_12
REMARK    5  A    between atoms: C_12  and  C_17
REMARK    6  A    between atoms: C_12  and  C_18
REMARK    7  A    between atoms: C_21  and  C_22
REMARK    8  A    between atoms: C_21  and  C_23
REMARK                            x       y       z     vdW  Elec       q    Type
REMARK                         _______ _______ _______ _____ _____    ______ ____
ROOT
ATOM      2  N   UNL     1      -0.542  -0.319  -0.599  0.00  0.00    -0.299 NA
ATOM      3  N   UNL     1       3.847   2.148  -0.203  0.00  0.00    -0.360 N 
ATOM      5  C   UNL     1       0.335  -1.192   0.193  0.00  0.00    +0.085 C 
ATOM      6  C   UNL     1      -0.720   1.019  -0.055  0.00  0.00    +0.145 C 
ATOM      8  C   UNL     1       1.798  -0.750   0.302  0.00  0.00    -0.021 A 
ATOM      9  C   UNL     1       2.284   0.557   0.006  0.00  0.00    +0.008 A 
ATOM     10  C   UNL     1       0.221   2.024  -0.717  0.00  0.00    +0.065 C 
ATOM     11  C   UNL     1       1.665   1.779  -0.431  0.00  0.00    -0.020 A 
ATOM     13  C   UNL     1       3.647   0.837   0.161  0.00  0.00    +0.047 A 
ATOM     14  C   UNL     1       2.750  -1.671   0.808  0.00  0.00    +0.006 A 
ATOM     15  C   UNL     1       2.663   2.725  -0.554  0.00  0.00    +0.087 A 
ATOM     19  C   UNL     1       4.577  -0.099   0.617  0.00  0.00    +0.026 A 
ATOM     20  C   UNL     1       4.100  -1.360   0.952  0.00  0.00    +0.002 A 
ATOM     24  H   UNL     1      -0.239  -0.284  -1.572  0.00  0.00    +0.123 HD
ATOM     25  H   UNL     1       4.741   2.619  -0.193  0.00  0.00    +0.165 HD
ENDROOT
BRANCH   6  16
ATOM      1  O   UNL     1      -2.435   1.968  -1.416  0.00  0.00    -0.274 OA
ATOM      4  N   UNL     1      -3.014   1.020   0.630  0.00  0.00    -0.312 N 
ATOM     16  C   UNL     1      -2.136   1.388  -0.375  0.00  0.00    +0.231 C 
ATOM     26  H   UNL     1      -2.663   0.485   1.420  0.00  0.00    +0.149 HD
BRANCH   4  21
ATOM     21  C   UNL     1      -4.434   1.283   0.576  0.00  0.00    +0.067 C 
ATOM     22  C   UNL     1      -5.162   0.143  -0.126  0.00  0.00    +0.027 C 
ATOM     23  C   UNL     1      -4.985   1.511   1.977  0.00  0.00    +0.027 C 
ENDBRANCH   4  21
ENDBRANCH   6  16
BRANCH   5   7
ATOM      7  C   UNL     1       0.186  -2.582  -0.452  0.00  0.00    +0.026 C 
BRANCH   7  12
ATOM     12  C   UNL     1      -1.125  -3.279  -0.076  0.00  0.00    -0.015 C 
ATOM     17  C   UNL     1      -1.159  -4.669  -0.715  0.00  0.00    +0.007 C 
ATOM     18  C   UNL     1      -2.359  -2.483  -0.504  0.00  0.00    +0.007 C 
ENDBRANCH   7  12
ENDBRANCH   5   7
TORSDOF 4
