REMARK  Name = 40777684
REMARK  7 active torsions:
REMARK  status: ('A' for Active; 'I' for Inactive)
REMARK    1  A    between atoms: N_5  and  C_11
REMARK    2  A    between atoms: N_6  and  C_19
REMARK    3  A    between atoms: C_9  and  C_12
REMARK    4  A    between atoms: C_15  and  C_17
REMARK    5  A    between atoms: C_16  and  C_18
REMARK    6  A    between atoms: C_20  and  C_23
REMARK    7  A    between atoms: C_26  and  C_29
REMARK                            x       y       z     vdW  Elec       q    Type
REMARK                         _______ _______ _______ _____ _____    ______ ____
ROOT
ATOM      6  N   UNL     1      -2.348   0.950   0.183  0.00  0.00    -0.236 N 
ATOM      7  N   UNL     1      -2.069   2.139   0.744  0.00  0.00    -0.171 NA
ATOM     12  C   UNL     1      -0.192   1.150  -0.102  0.00  0.00    +0.003 A 
ATOM     15  C   UNL     1      -1.258   0.317  -0.339  0.00  0.00    +0.046 A 
ATOM     16  C   UNL     1      -0.750   2.255   0.567  0.00  0.00    +0.064 A 
ATOM     17  C   UNL     1      -1.327  -1.001  -1.003  0.00  0.00    +0.066 C 
ATOM     18  C   UNL     1      -0.056   3.457   1.062  0.00  0.00    +0.068 C 
ENDROOT
BRANCH   6  19
ATOM     19  C   UNL     1      -3.662   0.479   0.176  0.00  0.00    +0.066 A 
ATOM     21  C   UNL     1      -4.664   1.215  -0.456  0.00  0.00    +0.028 A 
ATOM     22  C   UNL     1      -3.973  -0.726   0.806  0.00  0.00    +0.028 A 
ATOM     24  C   UNL     1      -5.977   0.745  -0.459  0.00  0.00    +0.014 A 
ATOM     25  C   UNL     1      -5.286  -1.195   0.804  0.00  0.00    +0.014 A 
ATOM     26  C   UNL     1      -6.289  -0.460   0.171  0.00  0.00    +0.055 A 
BRANCH  26  29
ATOM      1  F   UNL     1      -7.839  -2.180  -0.431  0.00  0.00    -0.166 F 
ATOM      2  F   UNL     1      -8.548  -0.125  -0.490  0.00  0.00    -0.166 F 
ATOM      3  F   UNL     1      -8.222  -1.114   1.419  0.00  0.00    -0.166 F 
ATOM     29  C   UNL     1      -7.693  -0.961   0.168  0.00  0.00    +0.417 C 
ENDBRANCH  26  29
ENDBRANCH   6  19
BRANCH  12   9
ATOM      9  C   UNL     1       1.255   0.926  -0.476  0.00  0.00    +0.047 C 
ATOM     10  C   UNL     1       1.849  -0.363   0.129  0.00  0.00    +0.039 C 
ATOM     11  C   UNL     1       2.838  -0.899  -0.914  0.00  0.00    +0.097 C 
ATOM     13  C   UNL     1       1.502   0.735  -1.945  0.00  0.00    -0.021 C 
ATOM     14  C   UNL     1       2.367  -0.257  -2.178  0.00  0.00    -0.009 C 
BRANCH  11   5
ATOM      4  O   UNL     1       4.820  -2.376   0.547  0.00  0.00    -0.270 OA
ATOM      5  N   UNL     1       4.194  -0.494  -0.655  0.00  0.00    -0.305 N 
ATOM     20  C   UNL     1       5.087  -1.278   0.066  0.00  0.00    +0.246 C 
ATOM     32  H   UNL     1       4.464   0.441  -0.945  0.00  0.00    +0.150 HD
BRANCH  20  23
ATOM      8  N   UNL     1       8.203   0.759  -0.505  0.00  0.00    -0.263 NA
ATOM     23  C   UNL     1       6.442  -0.706   0.269  0.00  0.00    +0.055 A 
ATOM     27  C   UNL     1       7.215  -1.065   1.368  0.00  0.00    +0.016 A 
ATOM     28  C   UNL     1       6.977   0.202  -0.631  0.00  0.00    +0.123 A 
ATOM     30  C   UNL     1       8.480  -0.513   1.531  0.00  0.00    +0.020 A 
ATOM     31  C   UNL     1       8.924   0.386   0.575  0.00  0.00    +0.111 A 
ENDBRANCH  20  23
ENDBRANCH  11   5
ENDBRANCH  12   9
TORSDOF 5
