REMARK  Name = 56774399
REMARK  5 active torsions:
REMARK  status: ('A' for Active; 'I' for Inactive)
REMARK    1  A    between atoms: N_2  and  C_8
REMARK    2  A    between atoms: C_4  and  C_10
REMARK    3  A    between atoms: C_8  and  C_9
REMARK    4  A    between atoms: C_9  and  C_11
REMARK    5  A    between atoms: C_9  and  C_12
REMARK                            x       y       z     vdW  Elec       q    Type
REMARK                         _______ _______ _______ _____ _____    ______ ____
ROOT
ATOM      2  N   UNL     1      -2.809   0.687  -0.136  0.00  0.00    -0.301 NA
ATOM      4  C   UNL     1      -0.566   0.975   0.486  0.00  0.00    +0.090 C 
ATOM      5  C   UNL     1      -1.634  -0.101   0.244  0.00  0.00    +0.097 C 
ATOM      6  C   UNL     1      -1.024   2.176  -0.359  0.00  0.00    +0.029 C 
ATOM      7  C   UNL     1      -2.299   1.709  -1.050  0.00  0.00    +0.085 C 
ENDROOT
BRANCH   4  10
ATOM      1  O   UNL     1       1.707   0.522   1.241  0.00  0.00    -0.439 OA
ATOM      3  N   UNL     1       1.324   0.041  -0.940  0.00  0.00    -0.213 NA
ATOM     10  C   UNL     1       0.835   0.490   0.195  0.00  0.00    +0.201 A 
ATOM     13  C   UNL     1       2.867   0.041   0.706  0.00  0.00    +0.155 A 
ATOM     14  C   UNL     1       2.629  -0.253  -0.628  0.00  0.00    +0.110 A 
ATOM     15  C   UNL     1       4.085  -0.137   1.351  0.00  0.00    +0.048 A 
ATOM     16  C   UNL     1       3.676  -0.767  -1.407  0.00  0.00    +0.031 A 
ATOM     17  C   UNL     1       5.119  -0.651   0.561  0.00  0.00    +0.004 A 
ATOM     18  C   UNL     1       4.921  -0.960  -0.791  0.00  0.00    +0.002 A 
ENDBRANCH   4  10
BRANCH   2   8
ATOM      8  C   UNL     1      -3.851  -0.128  -0.742  0.00  0.00    +0.087 C 
BRANCH   8   9
ATOM      9  C   UNL     1      -4.438  -1.157   0.239  0.00  0.00    -0.003 C 
ATOM     11  C   UNL     1      -5.049  -0.433   1.442  0.00  0.00    +0.008 C 
ATOM     12  C   UNL     1      -5.494  -2.054  -0.412  0.00  0.00    +0.008 C 
ENDBRANCH   8   9
ENDBRANCH   2   8
TORSDOF 3
