REMARK  Name = 25390943
REMARK  6 active torsions:
REMARK  status: ('A' for Active; 'I' for Inactive)
REMARK    1  A    between atoms: S_1  and  N_7
REMARK    2  A    between atoms: S_1  and  C_20
REMARK    3  A    between atoms: N_7  and  C_9
REMARK    4  A    between atoms: C_21  and  C_23
REMARK    5  A    between atoms: C_24  and  C_27
REMARK    6  A    between atoms: C_26  and  C_30
REMARK                            x       y       z     vdW  Elec       q    Type
REMARK                         _______ _______ _______ _____ _____    ______ ____
ROOT
ATOM      2  O   UNL     1       2.902   2.433   0.469  0.00  0.00    -0.273 OA
ATOM      3  O   UNL     1      -0.091  -0.771  -2.357  0.00  0.00    -0.270 OA
ATOM      6  N   UNL     1       1.546  -0.254  -0.794  0.00  0.00    -0.286 N 
ATOM      8  N   UNL     1       0.629   2.361   0.244  0.00  0.00    -0.283 N 
ATOM      9  C   UNL     1       4.288  -0.476   0.160  0.00  0.00    +0.080 C 
ATOM     10  C   UNL     1       1.863   0.257   0.535  0.00  0.00    +0.164 C 
ATOM     11  C   UNL     1       3.141  -0.321   1.154  0.00  0.00    +0.052 C 
ATOM     12  C   UNL     1       3.814  -1.260  -1.055  0.00  0.00    +0.039 C 
ATOM     13  C   UNL     1       2.647  -0.546  -1.717  0.00  0.00    +0.110 C 
ATOM     14  C   UNL     1       1.869   1.768   0.392  0.00  0.00    +0.238 C 
ATOM     15  C   UNL     1       0.241  -0.258  -1.288  0.00  0.00    +0.249 C 
ATOM     16  C   UNL     1      -0.813   0.461  -0.523  0.00  0.00    +0.059 A 
ATOM     17  C   UNL     1      -0.620   1.721   0.073  0.00  0.00    +0.046 A 
ATOM     18  C   UNL     1      -2.108  -0.082  -0.594  0.00  0.00    +0.023 A 
ATOM     19  C   UNL     1      -1.741   2.437   0.524  0.00  0.00    +0.024 A 
ATOM     21  C   UNL     1      -3.203   0.622  -0.095  0.00  0.00    -0.017 A 
ATOM     22  C   UNL     1      -3.021   1.887   0.452  0.00  0.00    +0.010 A 
ATOM     32  H   UNL     1       0.602   3.369   0.374  0.00  0.00    +0.155 HD
ENDROOT
BRANCH  21  23
ATOM     23  C   UNL     1      -4.529   0.048  -0.169  0.00  0.00    -0.015 A 
ATOM     24  C   UNL     1      -5.040  -0.726   0.872  0.00  0.00    -0.040 A 
ATOM     25  C   UNL     1      -5.299   0.281  -1.309  0.00  0.00    +0.009 A 
ATOM     26  C   UNL     1      -6.322  -1.268   0.774  0.00  0.00    -0.047 A 
ATOM     27  C   UNL     1      -4.224  -0.983   2.101  0.00  0.00    +0.044 C 
ATOM     28  C   UNL     1      -6.580  -0.261  -1.407  0.00  0.00    +0.001 A 
ATOM     29  C   UNL     1      -7.092  -1.035  -0.366  0.00  0.00    +0.003 A 
ATOM     30  C   UNL     1      -6.895  -2.100   1.873  0.00  0.00    +0.044 C 
ENDBRANCH  21  23
BRANCH   9   7
ATOM      7  N   UNL     1       5.408  -1.201   0.806  0.00  0.00    -0.192 NA
ATOM     31  H   UNL     1       5.250  -1.548   1.760  0.00  0.00    +0.148 HD
BRANCH   7   1
ATOM      1  S   UNL     1       7.001  -0.875   0.300  0.00  0.00    +0.027 S 
ATOM      4  O   UNL     1       7.010  -0.499  -1.100  0.00  0.00    -0.158 OA
ATOM      5  O   UNL     1       7.859  -1.938   0.788  0.00  0.00    -0.158 OA
ATOM     20  C   UNL     1       7.360   0.579   1.259  0.00  0.00    +0.214 C 
ENDBRANCH   7   1
ENDBRANCH   9   7
TORSDOF 3
