REMARK  Name = 25390800
REMARK  5 active torsions:
REMARK  status: ('A' for Active; 'I' for Inactive)
REMARK    1  A    between atoms: N_5  and  C_11
REMARK    2  A    between atoms: N_6  and  C_12
REMARK    3  A    between atoms: C_16  and  C_17
REMARK    4  A    between atoms: C_18  and  C_22
REMARK    5  A    between atoms: C_27  and  C_30
REMARK                            x       y       z     vdW  Elec       q    Type
REMARK                         _______ _______ _______ _____ _____    ______ ____
ROOT
ATOM      5  N   UNL     1       1.243  -3.379   0.158  0.00  0.00    -0.306 N 
ATOM      7  N   UNL     1      -0.796  -2.368  -0.305  0.00  0.00    -0.214 NA
ATOM      8  N   UNL     1       0.037  -4.181  -1.657  0.00  0.00    -0.223 NA
ATOM     15  C   UNL     1       0.111  -3.307  -0.635  0.00  0.00    +0.216 A 
ATOM     18  C   UNL     1      -1.884  -2.323  -1.101  0.00  0.00    +0.076 A 
ATOM     20  C   UNL     1      -1.077  -4.080  -2.412  0.00  0.00    +0.116 A 
ATOM     21  C   UNL     1      -2.080  -3.162  -2.179  0.00  0.00    +0.048 A 
ATOM     36  H   UNL     1       1.954  -4.047  -0.117  0.00  0.00    +0.149 HD
ENDROOT
BRANCH   5  11
ATOM      1  O   UNL     1       3.817  -2.639   1.709  0.00  0.00    -0.370 OA
ATOM      2  O   UNL     1       1.889  -0.187   1.808  0.00  0.00    -0.370 OA
ATOM      9  C   UNL     1       2.115  -1.223   0.838  0.00  0.00    +0.171 C 
ATOM     10  C   UNL     1       3.602  -1.520   0.834  0.00  0.00    +0.171 C 
ATOM     11  C   UNL     1       1.481  -2.516   1.294  0.00  0.00    +0.130 C 
ATOM     12  C   UNL     1       4.227  -0.271   1.412  0.00  0.00    +0.130 C 
ATOM     13  C   UNL     1       2.551  -3.112   2.192  0.00  0.00    +0.185 C 
ATOM     14  C   UNL     1       3.149   0.223   2.360  0.00  0.00    +0.185 C 
BRANCH  12   6
ATOM      3  O   UNL     1       6.222   1.793   1.491  0.00  0.00    -0.267 OA
ATOM      6  N   UNL     1       4.504   0.700   0.381  0.00  0.00    -0.301 N 
ATOM     16  C   UNL     1       5.493   1.664   0.511  0.00  0.00    +0.280 C 
ATOM     37  H   UNL     1       3.919   0.706  -0.450  0.00  0.00    +0.150 HD
BRANCH  16  17
ATOM      4  O   UNL     1       4.798   2.454  -1.688  0.00  0.00    -0.458 OA
ATOM     17  C   UNL     1       5.635   2.607  -0.628  0.00  0.00    +0.189 A 
ATOM     19  C   UNL     1       6.491   3.664  -0.836  0.00  0.00    +0.054 A 
ATOM     23  C   UNL     1       6.158   4.195  -2.105  0.00  0.00    +0.042 A 
ATOM     24  C   UNL     1       5.123   3.424  -2.582  0.00  0.00    +0.196 A 
ENDBRANCH  16  17
ENDBRANCH  12   6
ENDBRANCH   5  11
BRANCH  18  22
ATOM     22  C   UNL     1      -2.859  -1.318  -0.751  0.00  0.00    +0.001 A 
ATOM     25  C   UNL     1      -4.161  -1.695  -0.421  0.00  0.00    +0.010 A 
ATOM     26  C   UNL     1      -2.500   0.029  -0.744  0.00  0.00    +0.010 A 
ATOM     27  C   UNL     1      -4.745   0.625  -0.079  0.00  0.00    -0.018 A 
ATOM     28  C   UNL     1      -5.104  -0.723  -0.085  0.00  0.00    +0.009 A 
ATOM     29  C   UNL     1      -3.443   1.001  -0.408  0.00  0.00    +0.009 A 
BRANCH  27  30
ATOM     30  C   UNL     1      -5.723   1.633   0.269  0.00  0.00    -0.018 A 
ATOM     31  C   UNL     1      -6.514   2.209  -0.724  0.00  0.00    +0.008 A 
ATOM     32  C   UNL     1      -5.874   2.028   1.598  0.00  0.00    +0.008 A 
ATOM     33  C   UNL     1      -7.458   3.180  -0.389  0.00  0.00    +0.001 A 
ATOM     34  C   UNL     1      -6.818   2.999   1.934  0.00  0.00    +0.001 A 
ATOM     35  C   UNL     1      -7.610   3.575   0.941  0.00  0.00    +0.000 A 
ENDBRANCH  27  30
ENDBRANCH  18  22
TORSDOF 5
