REMARK  Name = 26742198
REMARK  11 active torsions:
REMARK  status: ('A' for Active; 'I' for Inactive)
REMARK    1  A    between atoms: O_1  and  C_11
REMARK    2  A    between atoms: O_4  and  C_26
REMARK    3  A    between atoms: O_4  and  C_30
REMARK    4  A    between atoms: O_5  and  C_27
REMARK    5  A    between atoms: O_5  and  C_32
REMARK    6  A    between atoms: O_6  and  C_31
REMARK    7  A    between atoms: O_6  and  C_33
REMARK    8  A    between atoms: N_8  and  C_10
REMARK    9  A    between atoms: N_9  and  C_19
REMARK   10  A    between atoms: C_17  and  C_18
REMARK   11  A    between atoms: C_30  and  C_31
REMARK                            x       y       z     vdW  Elec       q    Type
REMARK                         _______ _______ _______ _____ _____    ______ ____
ROOT
ATOM      2  O   UNL     1      -3.309   2.859   0.565  0.00  0.00    -0.252 OA
ATOM      7  N   UNL     1      -4.034   0.922  -0.469  0.00  0.00    -0.284 N 
ATOM      9  N   UNL     1      -1.751   1.531  -0.534  0.00  0.00    -0.269 N 
ATOM     10  C   UNL     1      -3.455  -1.520  -0.257  0.00  0.00    +0.119 C 
ATOM     11  C   UNL     1      -4.175  -1.572   1.103  0.00  0.00    +0.136 C 
ATOM     12  C   UNL     1      -5.637  -1.116   1.100  0.00  0.00    +0.035 C 
ATOM     13  C   UNL     1      -3.814  -0.346  -1.177  0.00  0.00    +0.134 C 
ATOM     14  C   UNL     1      -5.799   0.402   1.206  0.00  0.00    +0.022 C 
ATOM     15  C   UNL     1      -5.417   1.167  -0.055  0.00  0.00    +0.109 C 
ATOM     16  C   UNL     1      -3.035   1.854  -0.096  0.00  0.00    +0.307 C 
ATOM     36  H   UNL     1      -1.621   0.669  -1.051  0.00  0.00    +0.156 HD
ENDROOT
BRANCH   9  19
ATOM     19  C   UNL     1      -0.551   2.256  -0.324  0.00  0.00    +0.038 A 
ATOM     22  C   UNL     1       0.653   1.776  -0.840  0.00  0.00    +0.069 A 
ATOM     23  C   UNL     1      -0.574   3.449   0.399  0.00  0.00    +0.023 A 
ATOM     27  C   UNL     1       1.834   2.488  -0.633  0.00  0.00    +0.122 A 
ATOM     28  C   UNL     1       0.608   4.161   0.606  0.00  0.00    +0.005 A 
ATOM     29  C   UNL     1       1.811   3.681   0.090  0.00  0.00    +0.046 A 
BRANCH  27   5
ATOM      5  O   UNL     1       3.009   2.021  -1.137  0.00  0.00    -0.495 OA
ATOM     32  C   UNL     1       4.178   2.800  -0.888  0.00  0.00    +0.277 C 
ENDBRANCH  27   5
ENDBRANCH   9  19
BRANCH  10   8
ATOM      3  O   UNL     1      -1.507  -2.785  -1.944  0.00  0.00    -0.270 OA
ATOM      8  N   UNL     1      -2.023  -1.575  -0.035  0.00  0.00    -0.305 N 
ATOM     17  C   UNL     1      -1.166  -2.212  -0.912  0.00  0.00    +0.244 C 
ATOM     34  H   UNL     1      -1.653  -1.028   0.735  0.00  0.00    +0.149 HD
BRANCH  17  18
ATOM     18  C   UNL     1       0.270  -2.202  -0.528  0.00  0.00    +0.037 A 
ATOM     20  C   UNL     1       1.255  -2.283  -1.512  0.00  0.00    +0.016 A 
ATOM     21  C   UNL     1       0.631  -2.114   0.816  0.00  0.00    +0.016 A 
ATOM     24  C   UNL     1       2.603  -2.276  -1.152  0.00  0.00    +0.046 A 
ATOM     25  C   UNL     1       1.979  -2.107   1.176  0.00  0.00    +0.046 A 
ATOM     26  C   UNL     1       2.964  -2.188   0.192  0.00  0.00    +0.121 A 
BRANCH  26   4
ATOM      4  O   UNL     1       4.279  -2.180   0.544  0.00  0.00    -0.490 OA
BRANCH   4  30
ATOM     30  C   UNL     1       5.199  -1.619  -0.392  0.00  0.00    +0.257 C 
BRANCH  30  31
ATOM     31  C   UNL     1       6.359  -1.001   0.364  0.00  0.00    +0.200 C 
BRANCH  31   6
ATOM      6  O   UNL     1       5.865   0.031   1.209  0.00  0.00    -0.380 OA
ATOM     33  C   UNL     1       6.910   0.632   1.961  0.00  0.00    +0.194 C 
ENDBRANCH  31   6
ENDBRANCH  30  31
ENDBRANCH   4  30
ENDBRANCH  26   4
ENDBRANCH  17  18
ENDBRANCH  10   8
BRANCH  11   1
ATOM      1  O   UNL     1      -4.160  -2.934   1.553  0.00  0.00    -0.390 OA
ATOM     35  H   UNL     1      -4.496  -2.946   2.466  0.00  0.00    +0.210 HD
ENDBRANCH  11   1
TORSDOF 9
