REMARK  Name = 11942809
REMARK  8 active torsions:
REMARK  status: ('A' for Active; 'I' for Inactive)
REMARK    1  A    between atoms: S_1  and  N_10
REMARK    2  A    between atoms: S_1  and  C_21
REMARK    3  A    between atoms: O_7  and  C_30
REMARK    4  A    between atoms: O_7  and  C_36
REMARK    5  A    between atoms: O_8  and  C_35
REMARK    6  A    between atoms: O_8  and  C_37
REMARK    7  A    between atoms: N_10  and  C_12
REMARK    8  A    between atoms: C_23  and  C_27
REMARK                            x       y       z     vdW  Elec       q    Type
REMARK                         _______ _______ _______ _____ _____    ______ ____
ROOT
ATOM      3  O   UNL     1      -2.633   0.280   1.846  0.00  0.00    -0.273 OA
ATOM      4  O   UNL     1       1.006  -2.474  -0.892  0.00  0.00    -0.270 OA
ATOM      9  N   UNL     1      -0.830  -1.123  -0.589  0.00  0.00    -0.284 N 
ATOM     11  N   UNL     1      -0.363   0.272   1.970  0.00  0.00    -0.283 N 
ATOM     12  C   UNL     1      -3.113  -1.337  -1.173  0.00  0.00    +0.096 C 
ATOM     13  C   UNL     1      -1.438   0.145  -0.243  0.00  0.00    +0.164 C 
ATOM     14  C   UNL     1      -2.785   0.142  -0.976  0.00  0.00    +0.054 C 
ATOM     15  C   UNL     1      -1.745  -1.979  -1.336  0.00  0.00    +0.129 C 
ATOM     16  C   UNL     1      -1.547   0.192   1.269  0.00  0.00    +0.238 C 
ATOM     17  C   UNL     1       0.501  -1.448  -0.435  0.00  0.00    +0.249 C 
ATOM     18  C   UNL     1       1.368  -0.523   0.340  0.00  0.00    +0.059 A 
ATOM     19  C   UNL     1       0.959   0.175   1.487  0.00  0.00    +0.046 A 
ATOM     20  C   UNL     1       2.725  -0.503  -0.034  0.00  0.00    +0.023 A 
ATOM     22  C   UNL     1       1.933   0.821   2.269  0.00  0.00    +0.024 A 
ATOM     23  C   UNL     1       3.668   0.183   0.729  0.00  0.00    -0.014 A 
ATOM     24  C   UNL     1       3.275   0.835   1.889  0.00  0.00    +0.010 A 
ATOM     39  H   UNL     1      -0.458   0.529   2.950  0.00  0.00    +0.155 HD
ENDROOT
BRANCH  23  27
ATOM     27  C   UNL     1       5.058   0.196   0.325  0.00  0.00    +0.024 A 
ATOM     30  C   UNL     1       5.556   1.204  -0.502  0.00  0.00    +0.131 A 
ATOM     31  C   UNL     1       5.907  -0.817   0.774  0.00  0.00    +0.016 A 
ATOM     33  C   UNL     1       6.899   1.199  -0.879  0.00  0.00    +0.091 A 
ATOM     34  C   UNL     1       7.250  -0.822   0.397  0.00  0.00    +0.046 A 
ATOM     35  C   UNL     1       7.746   0.186  -0.429  0.00  0.00    +0.124 A 
BRANCH  30   7
ATOM      7  O   UNL     1       4.751   2.206  -0.957  0.00  0.00    -0.494 OA
ATOM     36  C   UNL     1       4.080   1.985  -2.195  0.00  0.00    +0.277 C 
ENDBRANCH  30   7
BRANCH  35   8
ATOM      8  O   UNL     1       9.056   0.180  -0.798  0.00  0.00    -0.495 OA
ATOM     37  C   UNL     1       9.865  -0.886  -0.303  0.00  0.00    +0.277 C 
ENDBRANCH  35   8
ENDBRANCH  23  27
BRANCH  12  10
ATOM     10  N   UNL     1      -3.788  -1.882   0.030  0.00  0.00    -0.185 NA
ATOM     38  H   UNL     1      -3.273  -1.848   0.917  0.00  0.00    +0.148 HD
BRANCH  10   1
ATOM      1  S   UNL     1      -5.499  -1.887   0.052  0.00  0.00    +0.059 S 
ATOM      5  O   UNL     1      -5.962  -2.319   1.357  0.00  0.00    -0.153 OA
ATOM      6  O   UNL     1      -5.981  -2.511  -1.164  0.00  0.00    -0.153 OA
BRANCH   1  21
ATOM      2  F   UNL     1      -7.262   3.693  -0.469  0.00  0.00    -0.205 F 
ATOM     21  C   UNL     1      -6.036  -0.184  -0.106  0.00  0.00    +0.105 A 
ATOM     25  C   UNL     1      -6.246   0.317  -1.366  0.00  0.00    +0.031 A 
ATOM     26  C   UNL     1      -6.216   0.551   1.038  0.00  0.00    +0.031 A 
ATOM     28  C   UNL     1      -6.665   1.641  -1.490  0.00  0.00    +0.040 A 
ATOM     29  C   UNL     1      -6.635   1.875   0.914  0.00  0.00    +0.040 A 
ATOM     32  C   UNL     1      -6.859   2.421  -0.350  0.00  0.00    +0.124 A 
ENDBRANCH   1  21
ENDBRANCH  10   1
ENDBRANCH  12  10
TORSDOF 6
