REMARK  Name = 11913153
REMARK  7 active torsions:
REMARK  status: ('A' for Active; 'I' for Inactive)
REMARK    1  A    between atoms: O_3  and  C_13
REMARK    2  A    between atoms: O_3  and  C_17
REMARK    3  A    between atoms: O_5  and  C_27
REMARK    4  A    between atoms: O_5  and  C_28
REMARK    5  A    between atoms: N_6  and  C_12
REMARK    6  A    between atoms: C_17  and  C_18
REMARK    7  A    between atoms: C_19  and  C_22
REMARK                            x       y       z     vdW  Elec       q    Type
REMARK                         _______ _______ _______ _____ _____    ______ ____
ROOT
ATOM      6  N   UNL     1      -0.603  -1.944  -0.683  0.00  0.00    -0.306 N 
ATOM      7  N   UNL     1       1.587  -1.229  -0.238  0.00  0.00    -0.214 NA
ATOM      8  N   UNL     1       0.895  -3.483   0.260  0.00  0.00    -0.223 NA
ATOM     16  C   UNL     1       0.664  -2.227  -0.206  0.00  0.00    +0.216 A 
ATOM     19  C   UNL     1       2.812  -1.540   0.235  0.00  0.00    +0.076 A 
ATOM     20  C   UNL     1       2.141  -3.725   0.718  0.00  0.00    +0.116 A 
ATOM     21  C   UNL     1       3.150  -2.783   0.731  0.00  0.00    +0.048 A 
ATOM     29  H   UNL     1      -1.297  -2.679  -0.607  0.00  0.00    +0.149 HD
ENDROOT
BRANCH   6  12
ATOM      1  O   UNL     1      -3.369  -0.596  -1.135  0.00  0.00    -0.369 OA
ATOM      2  O   UNL     1      -1.360   1.638  -0.512  0.00  0.00    -0.369 OA
ATOM     10  C   UNL     1      -1.424   0.261  -0.083  0.00  0.00    +0.172 C 
ATOM     11  C   UNL     1      -2.890  -0.070   0.113  0.00  0.00    +0.180 C 
ATOM     12  C   UNL     1      -0.991  -0.651  -1.207  0.00  0.00    +0.130 C 
ATOM     13  C   UNL     1      -3.492   1.281   0.418  0.00  0.00    +0.176 C 
ATOM     14  C   UNL     1      -2.261  -0.776  -2.031  0.00  0.00    +0.185 C 
ATOM     15  C   UNL     1      -2.680   2.199  -0.468  0.00  0.00    +0.194 C 
BRANCH  13   3
ATOM      3  O   UNL     1      -4.872   1.358   0.139  0.00  0.00    -0.362 OA
BRANCH   3  17
ATOM     17  C   UNL     1      -5.634   0.492   0.975  0.00  0.00    +0.255 C 
BRANCH  17  18
ATOM      4  O   UNL     1      -7.530   1.367  -0.242  0.00  0.00    -0.274 OA
ATOM      9  N   UNL     1      -7.893  -0.201   1.403  0.00  0.00    -0.327 N 
ATOM     18  C   UNL     1      -7.099   0.618   0.630  0.00  0.00    +0.236 C 
ATOM     30  H   UNL     1      -7.509  -0.811   2.118  0.00  0.00    +0.145 HD
ATOM     31  H   UNL     1      -8.900  -0.220   1.279  0.00  0.00    +0.145 HD
ENDBRANCH  17  18
ENDBRANCH   3  17
ENDBRANCH  13   3
ENDBRANCH   6  12
BRANCH  19  22
ATOM     22  C   UNL     1       3.776  -0.467   0.194  0.00  0.00    +0.001 A 
ATOM     23  C   UNL     1       5.134  -0.751   0.041  0.00  0.00    +0.013 A 
ATOM     24  C   UNL     1       3.353   0.859   0.306  0.00  0.00    +0.013 A 
ATOM     25  C   UNL     1       6.066   0.286   0.000  0.00  0.00    +0.046 A 
ATOM     26  C   UNL     1       4.284   1.897   0.265  0.00  0.00    +0.046 A 
ATOM     27  C   UNL     1       5.641   1.610   0.112  0.00  0.00    +0.120 A 
BRANCH  27   5
ATOM      5  O   UNL     1       6.550   2.623   0.072  0.00  0.00    -0.495 OA
ATOM     28  C   UNL     1       6.047   3.952   0.193  0.00  0.00    +0.277 C 
ENDBRANCH  27   5
ENDBRANCH  19  22
TORSDOF 6
