REMARK  Name = 45784343
REMARK  4 active torsions:
REMARK  status: ('A' for Active; 'I' for Inactive)
REMARK    1  A    between atoms: N_3  and  C_9
REMARK    2  A    between atoms: C_5  and  C_10
REMARK    3  A    between atoms: C_9  and  C_11
REMARK    4  A    between atoms: C_12  and  C_17
REMARK                            x       y       z     vdW  Elec       q    Type
REMARK                         _______ _______ _______ _____ _____    ______ ____
ROOT
ATOM      3  N   UNL     1      -1.824  -0.147  -0.015  0.00  0.00    -0.297 NA
ATOM      5  C   UNL     1       0.359  -0.700   0.638  0.00  0.00    +0.090 C 
ATOM      6  C   UNL     1      -0.530  -0.509  -0.598  0.00  0.00    +0.097 C 
ATOM      7  C   UNL     1      -0.304   0.155   1.732  0.00  0.00    +0.029 C 
ATOM      8  C   UNL     1      -1.505   0.801   1.053  0.00  0.00    +0.085 C 
ENDROOT
BRANCH   5  10
ATOM      1  F   UNL     1       7.119   1.427  -0.774  0.00  0.00    -0.205 F 
ATOM      2  O   UNL     1       2.693  -1.400   0.568  0.00  0.00    -0.439 OA
ATOM      4  N   UNL     1       2.339   0.761  -0.019  0.00  0.00    -0.213 NA
ATOM     10  C   UNL     1       1.812  -0.378   0.374  0.00  0.00    +0.201 A 
ATOM     13  C   UNL     1       3.681   0.479  -0.095  0.00  0.00    +0.112 A 
ATOM     14  C   UNL     1       3.902  -0.843   0.264  0.00  0.00    +0.156 A 
ATOM     18  C   UNL     1       4.778   1.275  -0.455  0.00  0.00    +0.070 A 
ATOM     19  C   UNL     1       5.148  -1.457   0.296  0.00  0.00    +0.051 A 
ATOM     22  C   UNL     1       6.052   0.691  -0.434  0.00  0.00    +0.126 A 
ATOM     23  C   UNL     1       6.231  -0.649  -0.066  0.00  0.00    +0.042 A 
ENDBRANCH   5  10
BRANCH   3   9
ATOM      9  C   UNL     1      -2.739   0.413  -0.998  0.00  0.00    +0.119 C 
BRANCH   9  11
ATOM     11  C   UNL     1      -4.167   0.374  -0.522  0.00  0.00    -0.030 A 
ATOM     12  C   UNL     1      -4.894  -0.816  -0.531  0.00  0.00    -0.046 A 
ATOM     15  C   UNL     1      -4.761   1.551  -0.067  0.00  0.00    +0.005 A 
ATOM     16  C   UNL     1      -6.216  -0.829  -0.086  0.00  0.00    +0.003 A 
ATOM     17  C   UNL     1      -4.279  -2.088  -1.014  0.00  0.00    +0.044 C 
ATOM     20  C   UNL     1      -6.083   1.538   0.379  0.00  0.00    +0.000 A 
ATOM     21  C   UNL     1      -6.810   0.348   0.369  0.00  0.00    +0.000 A 
ENDBRANCH   9  11
ENDBRANCH   3   9
TORSDOF 3
