REMARK  Name = 51137129
REMARK  8 active torsions:
REMARK  status: ('A' for Active; 'I' for Inactive)
REMARK    1  A    between atoms: S_1  and  C_20
REMARK    2  A    between atoms: S_1  and  C_25
REMARK    3  A    between atoms: O_5  and  C_26
REMARK    4  A    between atoms: O_5  and  C_28
REMARK    5  A    between atoms: N_6  and  C_13
REMARK    6  A    between atoms: C_8  and  C_12
REMARK    7  A    between atoms: C_13  and  C_14
REMARK    8  A    between atoms: C_25  and  C_27
REMARK                            x       y       z     vdW  Elec       q    Type
REMARK                         _______ _______ _______ _____ _____    ______ ____
ROOT
ATOM      6  N   UNL     1      -2.582  -0.458  -0.199  0.00  0.00    -0.297 NA
ATOM      8  C   UNL     1      -0.465  -1.180   0.506  0.00  0.00    +0.090 C 
ATOM      9  C   UNL     1      -1.129  -0.361   1.627  0.00  0.00    +0.029 C 
ATOM     10  C   UNL     1      -1.284  -0.856  -0.750  0.00  0.00    +0.097 C 
ATOM     11  C   UNL     1      -2.260   0.397   0.943  0.00  0.00    +0.085 C 
ENDROOT
BRANCH   8  12
ATOM      2  O   UNL     1       1.827  -2.009   0.487  0.00  0.00    -0.439 OA
ATOM      7  N   UNL     1       1.621   0.202   0.035  0.00  0.00    -0.213 NA
ATOM     12  C   UNL     1       1.014  -0.927   0.326  0.00  0.00    +0.201 A 
ATOM     15  C   UNL     1       2.948  -0.152  -0.002  0.00  0.00    +0.111 A 
ATOM     16  C   UNL     1       3.078  -1.505   0.274  0.00  0.00    +0.155 A 
ATOM     17  C   UNL     1       4.103   0.601  -0.260  0.00  0.00    +0.058 A 
ATOM     20  C   UNL     1       5.340  -0.058  -0.226  0.00  0.00    +0.090 A 
ATOM     21  C   UNL     1       4.285  -2.192   0.318  0.00  0.00    +0.050 A 
ATOM     22  C   UNL     1       5.427  -1.427   0.058  0.00  0.00    +0.030 A 
BRANCH  20   1
ATOM      1  S   UNL     1       6.802   0.848  -0.544  0.00  0.00    -0.003 S 
ATOM      3  O   UNL     1       7.830  -0.070  -1.011  0.00  0.00    -0.169 OA
ATOM      4  O   UNL     1       6.441   2.004  -1.351  0.00  0.00    -0.169 OA
BRANCH   1  25
ATOM     25  C   UNL     1       7.314   1.433   1.055  0.00  0.00    +0.168 C 
ATOM     27  C   UNL     1       8.583   2.249   0.967  0.00  0.00    +0.028 C 
ENDBRANCH   1  25
ENDBRANCH  20   1
ENDBRANCH   8  12
BRANCH   6  13
ATOM     13  C   UNL     1      -3.417   0.219  -1.180  0.00  0.00    +0.119 C 
BRANCH  13  14
ATOM     14  C   UNL     1      -4.866   0.233  -0.769  0.00  0.00    -0.033 A 
ATOM     18  C   UNL     1      -5.639  -0.921  -0.899  0.00  0.00    +0.008 A 
ATOM     19  C   UNL     1      -5.434   1.399  -0.257  0.00  0.00    +0.008 A 
ATOM     23  C   UNL     1      -6.980  -0.908  -0.517  0.00  0.00    +0.046 A 
ATOM     24  C   UNL     1      -6.775   1.412   0.125  0.00  0.00    +0.046 A 
ATOM     26  C   UNL     1      -7.549   0.259  -0.005  0.00  0.00    +0.120 A 
BRANCH  26   5
ATOM      5  O   UNL     1      -8.857   0.271   0.368  0.00  0.00    -0.495 OA
ATOM     28  C   UNL     1      -9.374   1.497   0.883  0.00  0.00    +0.277 C 
ENDBRANCH  26   5
ENDBRANCH  13  14
ENDBRANCH   6  13
TORSDOF 6
