REMARK  Name = 45360648
REMARK  7 active torsions:
REMARK  status: ('A' for Active; 'I' for Inactive)
REMARK    1  A    between atoms: N_5  and  C_9
REMARK    2  A    between atoms: N_5  and  C_17
REMARK    3  A    between atoms: N_7  and  C_31
REMARK    4  A    between atoms: C_10  and  C_14
REMARK    5  A    between atoms: C_14  and  C_16
REMARK    6  A    between atoms: C_16  and  C_18
REMARK    7  A    between atoms: C_17  and  C_19
REMARK                            x       y       z     vdW  Elec       q    Type
REMARK                         _______ _______ _______ _____ _____    ______ ____
ROOT
ATOM      1  O   UNL     1      -5.846  -2.941   0.005  0.00  0.00    -0.274 OA
ATOM      3  N   UNL     1      -2.419  -1.714   0.270  0.00  0.00    -0.286 NA
ATOM      4  N   UNL     1      -4.235  -2.768  -1.591  0.00  0.00    -0.313 N 
ATOM      8  C   UNL     1      -3.677  -2.271   0.783  0.00  0.00    +0.145 C 
ATOM      9  C   UNL     1      -3.254  -0.009   1.559  0.00  0.00    +0.070 C 
ATOM     10  C   UNL     1      -1.907  -2.384  -0.920  0.00  0.00    +0.075 C 
ATOM     11  C   UNL     1      -4.250  -1.163   1.681  0.00  0.00    +0.048 C 
ATOM     12  C   UNL     1      -2.579  -0.263   0.219  0.00  0.00    +0.104 C 
ATOM     13  C   UNL     1      -2.930  -2.346  -2.045  0.00  0.00    +0.123 C 
ATOM     15  C   UNL     1      -4.681  -2.664  -0.296  0.00  0.00    +0.230 C 
ATOM     36  H   UNL     1      -4.908  -3.051  -2.297  0.00  0.00    +0.149 HD
ENDROOT
BRANCH   9   5
ATOM      5  N   UNL     1      -3.882   1.299   1.654  0.00  0.00    -0.308 NA
ATOM     37  H   UNL     1      -4.581   1.270   2.397  0.00  0.00    +0.123 HD
BRANCH   5  17
ATOM     17  C   UNL     1      -2.905   2.326   1.993  0.00  0.00    +0.118 C 
BRANCH  17  19
ATOM      7  N   UNL     1      -1.568   3.543  -1.212  0.00  0.00    -0.349 N 
ATOM     19  C   UNL     1      -2.103   2.755   0.793  0.00  0.00    -0.008 A 
ATOM     21  C   UNL     1      -0.689   2.687   0.651  0.00  0.00    +0.004 A 
ATOM     23  C   UNL     1      -2.615   3.285  -0.369  0.00  0.00    +0.091 A 
ATOM     26  C   UNL     1      -0.379   3.187  -0.615  0.00  0.00    +0.049 A 
ATOM     27  C   UNL     1       0.361   2.246   1.481  0.00  0.00    +0.010 A 
ATOM     30  C   UNL     1       0.933   3.269  -1.095  0.00  0.00    +0.026 A 
ATOM     31  C   UNL     1      -1.708   4.106  -2.538  0.00  0.00    +0.149 C 
ATOM     33  C   UNL     1       1.678   2.322   1.015  0.00  0.00    +0.001 A 
ATOM     35  C   UNL     1       1.958   2.826  -0.254  0.00  0.00    +0.002 A 
ENDBRANCH  17  19
ENDBRANCH   5  17
ENDBRANCH   9   5
BRANCH  10  14
ATOM     14  C   UNL     1      -0.561  -1.825  -1.384  0.00  0.00    +0.029 C 
BRANCH  14  16
ATOM     16  C   UNL     1       0.507  -1.913  -0.304  0.00  0.00    +0.098 C 
BRANCH  16  18
ATOM      2  O   UNL     1       1.917  -0.979  -1.965  0.00  0.00    -0.275 OA
ATOM      6  N   UNL     1       2.867  -1.439   0.117  0.00  0.00    -0.271 N 
ATOM     18  C   UNL     1       1.833  -1.395  -0.809  0.00  0.00    +0.220 C 
ATOM     20  C   UNL     1       2.764  -1.938   1.504  0.00  0.00    +0.118 C 
ATOM     22  C   UNL     1       4.194  -1.017  -0.105  0.00  0.00    +0.039 A 
ATOM     24  C   UNL     1       4.142  -1.792   2.157  0.00  0.00    +0.056 C 
ATOM     25  C   UNL     1       4.956  -1.208   1.050  0.00  0.00    -0.024 A 
ATOM     28  C   UNL     1       4.768  -0.481  -1.249  0.00  0.00    +0.024 A 
ATOM     29  C   UNL     1       6.300  -0.870   1.091  0.00  0.00    +0.005 A 
ATOM     32  C   UNL     1       6.124  -0.138  -1.216  0.00  0.00    +0.002 A 
ATOM     34  C   UNL     1       6.885  -0.331  -0.055  0.00  0.00    +0.000 A 
ENDBRANCH  16  18
ENDBRANCH  14  16
ENDBRANCH  10  14
TORSDOF 6
