REMARK  Name = 56774103
REMARK  8 active torsions:
REMARK  status: ('A' for Active; 'I' for Inactive)
REMARK    1  A    between atoms: S_1  and  N_5
REMARK    2  A    between atoms: S_1  and  C_16
REMARK    3  A    between atoms: N_5  and  C_9
REMARK    4  A    between atoms: C_7  and  C_12
REMARK    5  A    between atoms: C_7  and  C_13
REMARK    6  A    between atoms: C_8  and  C_11
REMARK    7  A    between atoms: C_11  and  C_14
REMARK    8  A    between atoms: C_17  and  C_18
REMARK                            x       y       z     vdW  Elec       q    Type
REMARK                         _______ _______ _______ _____ _____    ______ ____
ROOT
ATOM      7  C   UNL     1      -3.060   1.716  -0.117  0.00  0.00    -0.015 C 
ATOM      8  C   UNL     1      -1.576   1.576   0.281  0.00  0.00    +0.004 C 
ATOM      9  C   UNL     1      -3.270   0.301   0.462  0.00  0.00    +0.082 C 
ATOM     10  C   UNL     1      -1.774   0.049   0.183  0.00  0.00    +0.025 C 
ATOM     12  C   UNL     1      -3.342   1.794  -1.607  0.00  0.00    +0.013 C 
ATOM     13  C   UNL     1      -3.775   2.836   0.606  0.00  0.00    +0.013 C 
ENDROOT
BRANCH   9   5
ATOM      5  N   UNL     1      -4.225  -0.605  -0.251  0.00  0.00    -0.191 NA
ATOM     24  H   UNL     1      -5.106  -0.135  -0.502  0.00  0.00    +0.148 HD
BRANCH   5   1
ATOM      1  S   UNL     1      -4.396  -2.283   0.054  0.00  0.00    +0.027 S 
ATOM      2  O   UNL     1      -3.099  -2.925  -0.040  0.00  0.00    -0.158 OA
ATOM      3  O   UNL     1      -5.533  -2.779  -0.696  0.00  0.00    -0.158 OA
ATOM     16  C   UNL     1      -4.860  -2.237   1.768  0.00  0.00    +0.214 C 
ENDBRANCH   5   1
ENDBRANCH   9   5
BRANCH   8  11
ATOM     11  C   UNL     1      -0.547   2.144  -0.668  0.00  0.00    +0.063 C 
BRANCH  11  14
ATOM      4  O   UNL     1       2.762   1.685   0.697  0.00  0.00    -0.354 OA
ATOM      6  N   UNL     1       1.571   2.389   0.570  0.00  0.00    -0.083 NA
ATOM     14  C   UNL     1       0.836   1.674  -0.286  0.00  0.00    +0.084 A 
ATOM     15  C   UNL     1       1.505   0.519  -0.729  0.00  0.00    +0.076 A 
ATOM     17  C   UNL     1       2.711   0.574  -0.081  0.00  0.00    +0.167 A 
BRANCH  17  18
ATOM     18  C   UNL     1       3.877  -0.260  -0.052  0.00  0.00    +0.020 A 
ATOM     19  C   UNL     1       3.920  -1.426  -0.816  0.00  0.00    +0.011 A 
ATOM     20  C   UNL     1       4.969   0.095   0.740  0.00  0.00    +0.011 A 
ATOM     21  C   UNL     1       5.054  -2.238  -0.788  0.00  0.00    +0.001 A 
ATOM     22  C   UNL     1       6.104  -0.716   0.768  0.00  0.00    +0.001 A 
ATOM     23  C   UNL     1       6.146  -1.883   0.004  0.00  0.00    +0.000 A 
ENDBRANCH  17  18
ENDBRANCH  11  14
ENDBRANCH   8  11
TORSDOF 5
