REMARK  Name = 75536893
REMARK  3 active torsions:
REMARK  status: ('A' for Active; 'I' for Inactive)
REMARK    1  A    between atoms: O_3  and  C_12
REMARK    2  A    between atoms: O_3  and  C_15
REMARK    3  A    between atoms: C_6  and  C_9
REMARK                            x       y       z     vdW  Elec       q    Type
REMARK                         _______ _______ _______ _____ _____    ______ ____
ROOT
ATOM      1  O   UNL     1       1.018  -2.720   1.086  0.00  0.00    -0.375 OA
ATOM      2  O   UNL     1       1.619   1.856  -1.185  0.00  0.00    -0.275 OA
ATOM      4  N   UNL     1       1.926  -0.389  -0.615  0.00  0.00    -0.295 N 
ATOM      9  C   UNL     1       2.279   0.971  -0.648  0.00  0.00    +0.219 C 
ATOM     10  C   UNL     1       0.669  -0.806  -1.239  0.00  0.00    +0.154 C 
ATOM     11  C   UNL     1       2.764  -1.397   0.046  0.00  0.00    +0.136 C 
ATOM     12  C   UNL     1      -0.395  -1.165  -0.201  0.00  0.00    +0.216 C 
ATOM     13  C   UNL     1       2.151  -2.779   0.225  0.00  0.00    +0.179 C 
ATOM     14  C   UNL     1      -0.213  -2.559   0.393  0.00  0.00    +0.206 C 
ENDROOT
BRANCH   9   6
ATOM      6  C   UNL     1       3.547   1.365   0.044  0.00  0.00    +0.075 C 
ATOM      7  C   UNL     1       3.500   1.624   1.511  0.00  0.00    +0.013 C 
ATOM      8  C   UNL     1       3.673   2.761   0.549  0.00  0.00    +0.013 C 
ENDBRANCH   9   6
BRANCH  12   3
ATOM      3  O   UNL     1      -1.668  -1.106  -0.841  0.00  0.00    -0.483 OA
BRANCH   3  15
ATOM      5  N   UNL     1      -4.708   0.275   0.650  0.00  0.00    -0.260 NA
ATOM     15  C   UNL     1      -2.557  -0.187  -0.354  0.00  0.00    +0.139 A 
ATOM     16  C   UNL     1      -2.258   1.170  -0.355  0.00  0.00    +0.049 A 
ATOM     17  C   UNL     1      -3.785  -0.580   0.155  0.00  0.00    +0.156 A 
ATOM     18  C   UNL     1      -3.181   2.081   0.146  0.00  0.00    +0.023 A 
ATOM     19  C   UNL     1      -4.381   1.587   0.632  0.00  0.00    +0.111 A 
ENDBRANCH   3  15
ENDBRANCH  12   3
TORSDOF 3
