REMARK  Name = 45360996
REMARK  8 active torsions:
REMARK  status: ('A' for Active; 'I' for Inactive)
REMARK    1  A    between atoms: N_4  and  C_16
REMARK    2  A    between atoms: N_5  and  C_18
REMARK    3  A    between atoms: N_7  and  C_27
REMARK    4  A    between atoms: C_13  and  C_17
REMARK    5  A    between atoms: C_16  and  C_20
REMARK    6  A    between atoms: C_17  and  C_19
REMARK    7  A    between atoms: C_19  and  C_21
REMARK    8  A    between atoms: C_27  and  C_28
REMARK                            x       y       z     vdW  Elec       q    Type
REMARK                         _______ _______ _______ _____ _____    ______ ____
ROOT
ATOM      2  O   UNL     1       2.670  -1.752  -0.677  0.00  0.00    -0.274 OA
ATOM      4  N   UNL     1       3.751   0.472   0.409  0.00  0.00    -0.286 NA
ATOM      5  N   UNL     1       0.169   1.118   0.029  0.00  0.00    -0.296 NA
ATOM      6  N   UNL     1       0.742  -1.661   0.553  0.00  0.00    -0.312 N 
ATOM      9  C   UNL     1       1.494   1.330   0.654  0.00  0.00    +0.084 C 
ATOM     10  C   UNL     1       2.409   0.093   0.889  0.00  0.00    +0.161 C 
ATOM     11  C   UNL     1       2.419   2.266  -0.146  0.00  0.00    +0.036 C 
ATOM     12  C   UNL     1       3.799   1.929   0.379  0.00  0.00    +0.087 C 
ATOM     13  C   UNL     1      -0.766   0.284   0.835  0.00  0.00    +0.074 C 
ATOM     14  C   UNL     1       1.977  -1.178   0.162  0.00  0.00    +0.232 C 
ATOM     15  C   UNL     1      -0.132  -0.966   1.477  0.00  0.00    +0.123 C 
ATOM     18  C   UNL     1      -0.461   2.405  -0.312  0.00  0.00    +0.105 C 
ATOM     33  H   UNL     1       0.406  -2.517   0.124  0.00  0.00    +0.149 HD
ENDROOT
BRANCH   4  16
ATOM     16  C   UNL     1       4.831  -0.096   1.205  0.00  0.00    +0.120 C 
BRANCH  16  20
ATOM      1  F   UNL     1       9.682  -0.265  -1.656  0.00  0.00    -0.205 F 
ATOM     20  C   UNL     1       6.127  -0.141   0.441  0.00  0.00    -0.033 A 
ATOM     22  C   UNL     1       6.449  -1.264  -0.321  0.00  0.00    +0.008 A 
ATOM     23  C   UNL     1       7.007   0.940   0.495  0.00  0.00    +0.008 A 
ATOM     24  C   UNL     1       7.650  -1.307  -1.029  0.00  0.00    +0.038 A 
ATOM     25  C   UNL     1       8.208   0.898  -0.213  0.00  0.00    +0.038 A 
ATOM     26  C   UNL     1       8.529  -0.225  -0.975  0.00  0.00    +0.123 A 
ENDBRANCH  16  20
ENDBRANCH   4  16
BRANCH  13  17
ATOM     17  C   UNL     1      -1.950  -0.191  -0.033  0.00  0.00    +0.029 C 
BRANCH  17  19
ATOM     19  C   UNL     1      -3.159  -0.501   0.832  0.00  0.00    +0.097 C 
BRANCH  19  21
ATOM      3  O   UNL     1      -4.298  -1.080  -1.224  0.00  0.00    -0.276 OA
ATOM      7  N   UNL     1      -5.441  -1.255   0.789  0.00  0.00    -0.311 N 
ATOM     21  C   UNL     1      -4.337  -0.971  -0.002  0.00  0.00    +0.213 C 
ATOM     34  H   UNL     1      -5.387  -1.117   1.794  0.00  0.00    +0.149 HD
BRANCH   7  27
ATOM     27  C   UNL     1      -6.690  -1.719   0.231  0.00  0.00    +0.141 C 
BRANCH  27  28
ATOM      8  N   UNL     1      -8.584   0.844  -1.811  0.00  0.00    -0.263 NA
ATOM     28  C   UNL     1      -7.607  -0.578  -0.117  0.00  0.00    -0.012 A 
ATOM     29  C   UNL     1      -8.309   0.105   0.871  0.00  0.00    +0.008 A 
ATOM     30  C   UNL     1      -7.778  -0.173  -1.431  0.00  0.00    +0.115 A 
ATOM     31  C   UNL     1      -9.149   1.156   0.519  0.00  0.00    +0.020 A 
ATOM     32  C   UNL     1      -9.250   1.484  -0.824  0.00  0.00    +0.111 A 
ENDBRANCH  27  28
ENDBRANCH   7  27
ENDBRANCH  19  21
ENDBRANCH  17  19
ENDBRANCH  13  17
TORSDOF 7
