REMARK  Name = 11884040
REMARK  8 active torsions:
REMARK  status: ('A' for Active; 'I' for Inactive)
REMARK    1  A    between atoms: O_3  and  C_13
REMARK    2  A    between atoms: O_3  and  C_17
REMARK    3  A    between atoms: O_6  and  C_27
REMARK    4  A    between atoms: O_6  and  C_31
REMARK    5  A    between atoms: N_7  and  C_12
REMARK    6  A    between atoms: N_8  and  C_18
REMARK    7  A    between atoms: N_9  and  C_19
REMARK    8  A    between atoms: C_18  and  C_20
REMARK                            x       y       z     vdW  Elec       q    Type
REMARK                         _______ _______ _______ _____ _____    ______ ____
ROOT
ATOM      1  O   UNL     1      -1.421  -2.482  -0.966  0.00  0.00    -0.368 OA
ATOM      2  O   UNL     1      -3.068  -3.287   1.492  0.00  0.00    -0.368 OA
ATOM     10  C   UNL     1      -3.059  -2.081   0.701  0.00  0.00    +0.173 C 
ATOM     11  C   UNL     1      -1.620  -1.829   0.299  0.00  0.00    +0.192 C 
ATOM     12  C   UNL     1      -3.766  -2.318  -0.614  0.00  0.00    +0.131 C 
ATOM     13  C   UNL     1      -0.849  -2.508   1.407  0.00  0.00    +0.235 C 
ATOM     14  C   UNL     1      -2.680  -2.973  -1.450  0.00  0.00    +0.185 C 
ATOM     15  C   UNL     1      -1.714  -3.711   1.707  0.00  0.00    +0.207 C 
ENDROOT
BRANCH  12   7
ATOM      4  O   UNL     1      -6.370  -1.098  -0.366  0.00  0.00    -0.253 OA
ATOM      7  N   UNL     1      -4.204  -1.076  -1.203  0.00  0.00    -0.292 N 
ATOM      8  N   UNL     1      -5.641   0.649  -1.707  0.00  0.00    -0.295 N 
ATOM     16  C   UNL     1      -5.487  -0.558  -1.031  0.00  0.00    +0.300 C 
ATOM     37  H   UNL     1      -3.528  -0.519  -1.717  0.00  0.00    +0.151 HD
ATOM     38  H   UNL     1      -4.848   1.031  -2.213  0.00  0.00    +0.151 HD
BRANCH   8  18
ATOM     18  C   UNL     1      -6.875   1.400  -1.696  0.00  0.00    +0.141 C 
BRANCH  18  20
ATOM     20  C   UNL     1      -6.925   2.381  -0.560  0.00  0.00    -0.030 A 
ATOM     23  C   UNL     1      -7.453   1.989   0.664  0.00  0.00    +0.005 A 
ATOM     24  C   UNL     1      -6.442   3.671  -0.744  0.00  0.00    +0.005 A 
ATOM     28  C   UNL     1      -7.500   2.900   1.720  0.00  0.00    +0.000 A 
ATOM     29  C   UNL     1      -6.489   4.582   0.311  0.00  0.00    +0.000 A 
ATOM     30  C   UNL     1      -7.018   4.196   1.543  0.00  0.00    +0.000 A 
ENDBRANCH  18  20
ENDBRANCH   8  18
ENDBRANCH  12   7
BRANCH  13   3
ATOM      3  O   UNL     1       0.461  -2.874   1.038  0.00  0.00    -0.442 OA
BRANCH   3  17
ATOM      5  O   UNL     1       0.992  -0.673   0.719  0.00  0.00    -0.226 OA
ATOM      9  N   UNL     1       2.557  -2.378   0.370  0.00  0.00    -0.251 N 
ATOM     17  C   UNL     1       1.324  -1.852   0.703  0.00  0.00    +0.405 C 
ATOM     39  H   UNL     1       2.641  -3.391   0.417  0.00  0.00    +0.158 HD
BRANCH   9  19
ATOM     19  C   UNL     1       3.721  -1.683  -0.031  0.00  0.00    +0.037 A 
ATOM     21  C   UNL     1       3.688  -0.300  -0.120  0.00  0.00    +0.027 A 
ATOM     22  C   UNL     1       4.871  -2.397  -0.326  0.00  0.00    +0.027 A 
ATOM     25  C   UNL     1       4.837   0.386  -0.515  0.00  0.00    +0.048 A 
ATOM     26  C   UNL     1       6.020  -1.710  -0.720  0.00  0.00    +0.048 A 
ATOM     27  C   UNL     1       6.002  -0.319  -0.815  0.00  0.00    +0.129 A 
BRANCH  27   6
ATOM      6  O   UNL     1       7.122   0.351  -1.202  0.00  0.00    -0.456 OA
BRANCH   6  31
ATOM     31  C   UNL     1       7.478   1.480  -0.482  0.00  0.00    +0.128 A 
ATOM     32  C   UNL     1       7.443   1.437   0.900  0.00  0.00    +0.046 A 
ATOM     33  C   UNL     1       7.859   2.621  -1.165  0.00  0.00    +0.046 A 
ATOM     34  C   UNL     1       7.801   2.573   1.624  0.00  0.00    +0.004 A 
ATOM     35  C   UNL     1       8.217   3.758  -0.440  0.00  0.00    +0.004 A 
ATOM     36  C   UNL     1       8.188   3.734   0.954  0.00  0.00    +0.000 A 
ENDBRANCH   6  31
ENDBRANCH  27   6
ENDBRANCH   9  19
ENDBRANCH   3  17
ENDBRANCH  13   3
TORSDOF 8
