REMARK  Name = 45783479
REMARK  11 active torsions:
REMARK  status: ('A' for Active; 'I' for Inactive)
REMARK    1  A    between atoms: O_3  and  C_22
REMARK    2  A    between atoms: O_4  and  C_28
REMARK    3  A    between atoms: O_4  and  C_29
REMARK    4  A    between atoms: N_5  and  C_14
REMARK    5  A    between atoms: N_9  and  C_26
REMARK    6  A    between atoms: N_9  and  C_27
REMARK    7  A    between atoms: C_10  and  C_15
REMARK    8  A    between atoms: C_14  and  C_16
REMARK    9  A    between atoms: C_18  and  C_21
REMARK   10  A    between atoms: C_19  and  C_22
REMARK   11  A    between atoms: C_27  and  C_28
REMARK                            x       y       z     vdW  Elec       q    Type
REMARK                         _______ _______ _______ _____ _____    ______ ____
ROOT
ATOM      1  O   UNL     1      -2.328   1.049  -1.967  0.00  0.00    -0.336 OA
ATOM      6  N   UNL     1      -1.311   1.211   0.022  0.00  0.00    -0.190 NA
ATOM      7  N   UNL     1      -0.960   0.879  -2.214  0.00  0.00    -0.056 NA
ATOM     15  C   UNL     1      -2.448   1.239  -0.627  0.00  0.00    +0.245 A 
ATOM     18  C   UNL     1      -0.427   0.988  -0.993  0.00  0.00    +0.204 A 
ENDROOT
BRANCH  18  21
ATOM      8  N   UNL     1       3.208   0.541  -1.637  0.00  0.00    -0.240 NA
ATOM     21  C   UNL     1       0.983   0.880  -0.754  0.00  0.00    +0.041 A 
ATOM     23  C   UNL     1       1.503   1.000   0.530  0.00  0.00    +0.016 A 
ATOM     24  C   UNL     1       1.869   0.653  -1.794  0.00  0.00    +0.124 A 
ATOM     25  C   UNL     1       2.875   0.891   0.731  0.00  0.00    +0.044 A 
ATOM     26  C   UNL     1       3.677   0.664  -0.375  0.00  0.00    +0.119 A 
BRANCH  26   9
ATOM      9  N   UNL     1       5.072   0.556  -0.154  0.00  0.00    -0.327 N 
ATOM     31  H   UNL     1       5.647   0.386  -0.972  0.00  0.00    +0.148 HD
BRANCH   9  27
ATOM     27  C   UNL     1       5.658   0.672   1.141  0.00  0.00    +0.131 C 
BRANCH  27  28
ATOM     28  C   UNL     1       7.169   0.545   1.042  0.00  0.00    +0.178 C 
BRANCH  28   4
ATOM      4  O   UNL     1       7.503  -0.735   0.522  0.00  0.00    -0.381 OA
ATOM     29  C   UNL     1       8.910  -0.903   0.417  0.00  0.00    +0.194 C 
ENDBRANCH  28   4
ENDBRANCH  27  28
ENDBRANCH   9  27
ENDBRANCH  26   9
ENDBRANCH  18  21
BRANCH  15  10
ATOM      5  N   UNL     1      -4.223   0.459   0.933  0.00  0.00    -0.284 NA
ATOM     10  C   UNL     1      -3.851   1.448  -0.097  0.00  0.00    +0.146 C 
ATOM     11  C   UNL     1      -4.030   2.815   0.590  0.00  0.00    +0.030 C 
ATOM     12  C   UNL     1      -4.561   2.494   1.980  0.00  0.00    +0.017 C 
ATOM     13  C   UNL     1      -5.182   1.122   1.817  0.00  0.00    +0.085 C 
BRANCH   5  14
ATOM     14  C   UNL     1      -4.754  -0.779   0.377  0.00  0.00    +0.159 C 
BRANCH  14  16
ATOM      2  O   UNL     1      -2.735  -2.069   0.803  0.00  0.00    -0.461 OA
ATOM     16  C   UNL     1      -3.660  -1.688  -0.116  0.00  0.00    +0.119 A 
ATOM     17  C   UNL     1      -3.377  -2.240  -1.344  0.00  0.00    +0.046 A 
ATOM     19  C   UNL     1      -1.852  -2.874   0.156  0.00  0.00    +0.131 A 
ATOM     20  C   UNL     1      -2.203  -3.010  -1.167  0.00  0.00    +0.047 A 
BRANCH  19  22
ATOM     22  C   UNL     1      -0.749  -3.413   0.964  0.00  0.00    +0.230 C 
BRANCH  22   3
ATOM      3  O   UNL     1       0.224  -2.396   1.214  0.00  0.00    -0.387 OA
ATOM     30  H   UNL     1       0.927  -2.802   1.748  0.00  0.00    +0.210 HD
ENDBRANCH  22   3
ENDBRANCH  19  22
ENDBRANCH  14  16
ENDBRANCH   5  14
ENDBRANCH  15  10
TORSDOF 10
