REMARK  Name = 75536772
REMARK  9 active torsions:
REMARK  status: ('A' for Active; 'I' for Inactive)
REMARK    1  A    between atoms: O_2  and  C_9
REMARK    2  A    between atoms: O_4  and  C_20
REMARK    3  A    between atoms: O_4  and  C_26
REMARK    4  A    between atoms: N_5  and  C_8
REMARK    5  A    between atoms: N_5  and  C_13
REMARK    6  A    between atoms: N_6  and  C_12
REMARK    7  A    between atoms: N_7  and  C_21
REMARK    8  A    between atoms: C_10  and  C_12
REMARK    9  A    between atoms: C_13  and  C_14
REMARK                            x       y       z     vdW  Elec       q    Type
REMARK                         _______ _______ _______ _____ _____    ______ ____
ROOT
ATOM      1  O   UNL     1      -3.817  -1.010   0.658  0.00  0.00    -0.371 OA
ATOM      8  C   UNL     1      -2.995   1.161   1.123  0.00  0.00    +0.111 C 
ATOM      9  C   UNL     1      -3.859   1.247  -0.122  0.00  0.00    +0.164 C 
ATOM     10  C   UNL     1      -4.168  -0.206  -0.484  0.00  0.00    +0.165 C 
ATOM     11  C   UNL     1      -3.471  -0.142   1.744  0.00  0.00    +0.181 C 
ENDROOT
BRANCH   9   2
ATOM      2  O   UNL     1      -5.075   1.907   0.236  0.00  0.00    -0.388 OA
ATOM     29  H   UNL     1      -5.638   1.929  -0.557  0.00  0.00    +0.210 HD
ENDBRANCH   9   2
BRANCH   8   5
ATOM      5  N   UNL     1      -1.574   1.087   0.789  0.00  0.00    -0.305 NA
ATOM     28  H   UNL     1      -1.077   0.604   1.538  0.00  0.00    +0.123 HD
BRANCH   5  13
ATOM     13  C   UNL     1      -1.001   2.418   0.635  0.00  0.00    +0.116 C 
BRANCH  13  14
ATOM     14  C   UNL     1       0.460   2.362   0.275  0.00  0.00    -0.033 A 
ATOM     16  C   UNL     1       1.409   2.062   1.252  0.00  0.00    +0.008 A 
ATOM     17  C   UNL     1       0.864   2.609  -1.037  0.00  0.00    +0.008 A 
ATOM     18  C   UNL     1       2.762   2.009   0.918  0.00  0.00    +0.046 A 
ATOM     19  C   UNL     1       2.217   2.556  -1.371  0.00  0.00    +0.046 A 
ATOM     20  C   UNL     1       3.166   2.256  -0.394  0.00  0.00    +0.120 A 
BRANCH  20   4
ATOM      4  O   UNL     1       4.486   2.204  -0.720  0.00  0.00    -0.495 OA
ATOM     26  C   UNL     1       5.402   1.891   0.328  0.00  0.00    +0.277 C 
ENDBRANCH  20   4
ENDBRANCH  13  14
ENDBRANCH   5  13
ENDBRANCH   8   5
BRANCH  10  12
ATOM     12  C   UNL     1      -3.384  -0.713  -1.685  0.00  0.00    +0.140 C 
BRANCH  12   6
ATOM      3  O   UNL     1      -1.736  -2.754  -0.535  0.00  0.00    -0.253 OA
ATOM      6  N   UNL     1      -1.970  -0.643  -1.452  0.00  0.00    -0.297 N 
ATOM      7  N   UNL     1       0.121  -1.337  -0.778  0.00  0.00    -0.269 N 
ATOM     15  C   UNL     1      -1.228  -1.690  -0.881  0.00  0.00    +0.304 C 
ATOM     30  H   UNL     1      -1.484   0.211  -1.705  0.00  0.00    +0.150 HD
ATOM     31  H   UNL     1       0.377  -0.413  -1.114  0.00  0.00    +0.156 HD
BRANCH   7  21
ATOM     21  C   UNL     1       1.183  -2.114  -0.260  0.00  0.00    +0.035 A 
ATOM     22  C   UNL     1       0.938  -3.398   0.225  0.00  0.00    +0.023 A 
ATOM     23  C   UNL     1       2.478  -1.595  -0.235  0.00  0.00    +0.023 A 
ATOM     24  C   UNL     1       1.986  -4.163   0.736  0.00  0.00    +0.002 A 
ATOM     25  C   UNL     1       3.526  -2.359   0.276  0.00  0.00    +0.002 A 
ATOM     27  C   UNL     1       3.281  -3.644   0.761  0.00  0.00    +0.000 A 
ENDBRANCH   7  21
ENDBRANCH  12   6
ENDBRANCH  10  12
TORSDOF 8
