REMARK  Name = 7144116
REMARK  5 active torsions:
REMARK  status: ('A' for Active; 'I' for Inactive)
REMARK    1  A    between atoms: S_2  and  N_7
REMARK    2  A    between atoms: S_2  and  C_20
REMARK    3  A    between atoms: O_6  and  C_30
REMARK    4  A    between atoms: O_6  and  C_32
REMARK    5  A    between atoms: C_16  and  C_21
REMARK                            x       y       z     vdW  Elec       q    Type
REMARK                         _______ _______ _______ _____ _____    ______ ____
ROOT
ATOM      5  O   UNL     1      -1.859  -4.900   0.269  0.00  0.00    -0.268 OA
ATOM      7  N   UNL     1       1.420  -1.190   0.183  0.00  0.00    -0.176 NA
ATOM      8  N   UNL     1      -1.236  -2.760  -0.449  0.00  0.00    -0.311 N 
ATOM      9  C   UNL     1       0.831  -2.385  -1.920  0.00  0.00    +0.025 C 
ATOM     10  C   UNL     1      -0.521  -0.468  -1.197  0.00  0.00    +0.053 C 
ATOM     11  C   UNL     1       0.075  -1.165  -2.418  0.00  0.00    +0.017 C 
ATOM     12  C   UNL     1       1.959  -1.977  -0.961  0.00  0.00    +0.114 C 
ATOM     13  C   UNL     1       0.616  -0.014  -0.261  0.00  0.00    +0.119 C 
ATOM     14  C   UNL     1      -0.166  -3.345  -1.269  0.00  0.00    +0.130 C 
ATOM     15  C   UNL     1      -1.505  -1.377  -0.454  0.00  0.00    +0.034 A 
ATOM     16  C   UNL     1      -2.594  -0.897   0.203  0.00  0.00    +0.002 A 
ATOM     17  C   UNL     1      -2.040  -3.682   0.243  0.00  0.00    +0.252 A 
ATOM     18  C   UNL     1      -3.444  -1.819   0.932  0.00  0.00    +0.015 A 
ATOM     19  C   UNL     1      -3.199  -3.128   0.979  0.00  0.00    +0.071 A 
ENDROOT
BRANCH  16  21
ATOM     21  C   UNL     1      -2.928   0.544   0.209  0.00  0.00    -0.016 A 
ATOM     24  C   UNL     1      -2.405   1.370   1.198  0.00  0.00    +0.012 A 
ATOM     25  C   UNL     1      -3.765   1.062  -0.775  0.00  0.00    +0.012 A 
ATOM     26  C   UNL     1      -2.722   2.729   1.204  0.00  0.00    +0.046 A 
ATOM     27  C   UNL     1      -4.082   2.421  -0.769  0.00  0.00    +0.046 A 
ATOM     30  C   UNL     1      -3.560   3.254   0.221  0.00  0.00    +0.120 A 
BRANCH  30   6
ATOM      6  O   UNL     1      -3.869   4.579   0.227  0.00  0.00    -0.495 OA
ATOM     32  C   UNL     1      -4.731   5.050  -0.808  0.00  0.00    +0.277 C 
ENDBRANCH  30   6
ENDBRANCH  16  21
BRANCH   7   2
ATOM      2  S   UNL     1       2.516  -0.897   1.464  0.00  0.00    +0.061 S 
ATOM      3  O   UNL     1       3.332  -2.075   1.668  0.00  0.00    -0.153 OA
ATOM      4  O   UNL     1       1.801  -0.286   2.566  0.00  0.00    -0.153 OA
BRANCH   2  20
ATOM      1 CL   UNL     1       6.119   3.494  -1.159  0.00  0.00    -0.084 Cl
ATOM     20  C   UNL     1       3.533   0.343   0.724  0.00  0.00    +0.106 A 
ATOM     22  C   UNL     1       3.190   1.677   0.870  0.00  0.00    +0.030 A 
ATOM     23  C   UNL     1       4.655  -0.040   0.009  0.00  0.00    +0.030 A 
ATOM     28  C   UNL     1       3.993   2.655   0.285  0.00  0.00    +0.022 A 
ATOM     29  C   UNL     1       5.459   0.939  -0.576  0.00  0.00    +0.022 A 
ATOM     31  C   UNL     1       5.128   2.287  -0.438  0.00  0.00    +0.041 A 
ENDBRANCH   2  20
ENDBRANCH   7   2
TORSDOF 4
