REMARK  Name = 45361375
REMARK  18 active torsions:
REMARK  status: ('A' for Active; 'I' for Inactive)
REMARK    1  A    between atoms: O_1  and  C_12
REMARK    2  A    between atoms: O_4  and  C_28
REMARK    3  A    between atoms: O_4  and  C_35
REMARK    4  A    between atoms: O_5  and  C_29
REMARK    5  A    between atoms: O_5  and  C_36
REMARK    6  A    between atoms: O_6  and  C_34
REMARK    7  A    between atoms: O_6  and  C_37
REMARK    8  A    between atoms: N_7  and  C_16
REMARK    9  A    between atoms: N_8  and  C_26
REMARK   10  A    between atoms: N_8  and  C_27
REMARK   11  A    between atoms: C_9  and  C_19
REMARK   12  A    between atoms: C_11  and  C_21
REMARK   13  A    between atoms: C_14  and  C_20
REMARK   14  A    between atoms: C_20  and  C_22
REMARK   15  A    between atoms: C_20  and  C_23
REMARK   16  A    between atoms: C_24  and  C_25
REMARK   17  A    between atoms: C_26  and  C_28
REMARK   18  A    between atoms: C_27  and  C_29
REMARK                            x       y       z     vdW  Elec       q    Type
REMARK                         _______ _______ _______ _____ _____    ______ ____
ROOT
ATOM      9  C   UNL     1       0.302  -1.933  -0.529  0.00  0.00    -0.027 C 
ATOM     10  C   UNL     1       0.220  -0.418  -0.146  0.00  0.00    +0.028 C 
ATOM     11  C   UNL     1      -1.228   0.141  -0.386  0.00  0.00    +0.012 C 
ATOM     12  C   UNL     1       1.369   0.394  -0.809  0.00  0.00    +0.122 C 
ATOM     13  C   UNL     1       1.705  -2.480  -0.175  0.00  0.00    +0.007 C 
ATOM     14  C   UNL     1       2.763  -0.218  -0.537  0.00  0.00    +0.029 C 
ATOM     15  C   UNL     1      -0.734  -2.721   0.305  0.00  0.00    +0.009 C 
ATOM     16  C   UNL     1      -2.270  -0.705   0.398  0.00  0.00    +0.076 C 
ATOM     17  C   UNL     1       2.831  -1.712  -0.854  0.00  0.00    +0.007 C 
ATOM     18  C   UNL     1      -2.156  -2.206   0.134  0.00  0.00    +0.023 C 
ATOM     19  C   UNL     1       0.037  -2.180  -2.036  0.00  0.00    +0.011 C 
ATOM     21  C   UNL     1      -1.388   1.622  -0.002  0.00  0.00    +0.010 C 
ENDROOT
BRANCH  16   7
ATOM      3  O   UNL     1      -4.508  -0.785   2.194  0.00  0.00    -0.270 OA
ATOM      7  N   UNL     1      -3.626  -0.289   0.108  0.00  0.00    -0.308 N 
ATOM     24  C   UNL     1      -4.641  -0.367   1.047  0.00  0.00    +0.244 C 
ATOM     38  H   UNL     1      -3.834  -0.043  -0.854  0.00  0.00    +0.149 HD
BRANCH  24  25
ATOM     25  C   UNL     1      -5.982   0.073   0.585  0.00  0.00    +0.037 A 
ATOM     30  C   UNL     1      -7.131  -0.454   1.175  0.00  0.00    +0.016 A 
ATOM     31  C   UNL     1      -6.093   1.013  -0.440  0.00  0.00    +0.016 A 
ATOM     32  C   UNL     1      -8.391  -0.042   0.740  0.00  0.00    +0.046 A 
ATOM     33  C   UNL     1      -7.353   1.425  -0.875  0.00  0.00    +0.046 A 
ATOM     34  C   UNL     1      -8.502   0.897  -0.285  0.00  0.00    +0.120 A 
BRANCH  34   6
ATOM      6  O   UNL     1      -9.731   1.300  -0.710  0.00  0.00    -0.495 OA
ATOM     37  C   UNL     1     -10.863   0.721  -0.062  0.00  0.00    +0.277 C 
ENDBRANCH  34   6
ENDBRANCH  24  25
ENDBRANCH  16   7
BRANCH  12   1
ATOM      1  O   UNL     1       1.391   1.716  -0.270  0.00  0.00    -0.391 OA
ATOM     39  H   UNL     1       1.542   1.649   0.688  0.00  0.00    +0.210 HD
ENDBRANCH  12   1
BRANCH  14  20
ATOM     20  C   UNL     1       3.868   0.519  -1.305  0.00  0.00    +0.078 C 
ATOM     22  C   UNL     1       3.593   0.426  -2.807  0.00  0.00    +0.017 C 
BRANCH  20  23
ATOM      2  O   UNL     1       5.663  -1.033  -1.618  0.00  0.00    -0.275 OA
ATOM      8  N   UNL     1       5.929   0.466   0.124  0.00  0.00    -0.297 N 
ATOM     23  C   UNL     1       5.231  -0.082  -0.957  0.00  0.00    +0.219 C 
BRANCH   8  26
ATOM     26  C   UNL     1       5.507   1.608   0.933  0.00  0.00    +0.136 C 
BRANCH  26  28
ATOM     28  C   UNL     1       6.022   2.917   0.362  0.00  0.00    +0.178 C 
BRANCH  28   4
ATOM      4  O   UNL     1       5.557   3.996   1.161  0.00  0.00    -0.381 OA
ATOM     35  C   UNL     1       6.011   5.247   0.662  0.00  0.00    +0.194 C 
ENDBRANCH  28   4
ENDBRANCH  26  28
ENDBRANCH   8  26
BRANCH   8  27
ATOM     27  C   UNL     1       7.222  -0.099   0.496  0.00  0.00    +0.136 C 
BRANCH  27  29
ATOM     29  C   UNL     1       7.071  -1.216   1.513  0.00  0.00    +0.178 C 
BRANCH  29   5
ATOM      5  O   UNL     1       6.240  -2.236   0.973  0.00  0.00    -0.381 OA
ATOM     36  C   UNL     1       6.064  -3.305   1.892  0.00  0.00    +0.194 C 
ENDBRANCH  29   5
ENDBRANCH  27  29
ENDBRANCH   8  27
ENDBRANCH  20  23
ENDBRANCH  14  20
TORSDOF 12
