REMARK  Name = 71693012
REMARK  8 active torsions:
REMARK  status: ('A' for Active; 'I' for Inactive)
REMARK    1  A    between atoms: N_1  and  C_13
REMARK    2  A    between atoms: C_5  and  C_9
REMARK    3  A    between atoms: C_7  and  C_13
REMARK    4  A    between atoms: C_8  and  C_12
REMARK    5  A    between atoms: C_9  and  C_14
REMARK    6  A    between atoms: C_9  and  C_15
REMARK    7  A    between atoms: C_10  and  C_16
REMARK    8  A    between atoms: C_12  and  C_17
REMARK                            x       y       z     vdW  Elec       q    Type
REMARK                         _______ _______ _______ _____ _____    ______ ____
ROOT
ATOM      5  C   UNL     1      -2.424   0.868  -0.063  0.00  0.00    +0.000 C 
ATOM      6  C   UNL     1      -1.266   0.338  -0.921  0.00  0.00    +0.012 C 
ATOM      7  C   UNL     1      -3.683  -0.017  -0.247  0.00  0.00    +0.029 C 
ATOM      8  C   UNL     1      -0.896  -1.115  -0.568  0.00  0.00    +0.022 C 
ATOM     10  C   UNL     1      -2.123  -1.999  -0.466  0.00  0.00    -0.073 C 
ATOM     11  C   UNL     1      -3.361  -1.490  -0.337  0.00  0.00    -0.023 C 
ATOM     16  C   UNL     1      -1.898  -3.482  -0.563  0.00  0.00    +0.039 C 
ENDROOT
BRANCH   5   9
ATOM      9  C   UNL     1      -2.703   2.333  -0.415  0.00  0.00    -0.013 C 
ATOM     14  C   UNL     1      -1.721   3.250   0.308  0.00  0.00    +0.007 C 
ATOM     15  C   UNL     1      -2.627   2.541  -1.924  0.00  0.00    +0.007 C 
ENDBRANCH   5   9
BRANCH   8  12
ATOM     12  C   UNL     1      -0.068  -1.177   0.720  0.00  0.00    +0.082 C 
BRANCH  12  17
ATOM      2  N   UNL     1       1.805   0.476   0.863  0.00  0.00    -0.341 N 
ATOM      3  N   UNL     1       2.297  -1.473  -0.097  0.00  0.00    -0.213 NA
ATOM      4  N   UNL     1       4.626  -0.987  -0.578  0.00  0.00    -0.234 NA
ATOM     17  C   UNL     1       1.354  -0.758   0.478  0.00  0.00    +0.110 A 
ATOM     18  C   UNL     1       3.125   0.561   0.511  0.00  0.00    +0.085 A 
ATOM     19  C   UNL     1       3.405  -0.664  -0.084  0.00  0.00    +0.178 A 
ATOM     20  C   UNL     1       4.090   1.553   0.643  0.00  0.00    +0.031 A 
ATOM     21  C   UNL     1       5.350   1.236   0.141  0.00  0.00    +0.022 A 
ATOM     22  C   UNL     1       5.554  -0.010  -0.441  0.00  0.00    +0.113 A 
ATOM     25  H   UNL     1       1.262   1.196   1.320  0.00  0.00    +0.167 HD
ENDBRANCH  12  17
ENDBRANCH   8  12
BRANCH   7  13
ATOM     13  C   UNL     1      -4.694   0.217   0.881  0.00  0.00    +0.085 C 
BRANCH  13   1
ATOM      1  N   UNL     1      -4.143  -0.202   2.159  0.00  0.00    -0.329 NA
ATOM     23  H   UNL     1      -3.982  -1.208   2.164  0.00  0.00    +0.118 HD
ATOM     24  H   UNL     1      -4.825  -0.024   2.895  0.00  0.00    +0.118 HD
ENDBRANCH  13   1
ENDBRANCH   7  13
TORSDOF 5
