REMARK  Name = 11885944
REMARK  6 active torsions:
REMARK  status: ('A' for Active; 'I' for Inactive)
REMARK    1  A    between atoms: O_3  and  C_12
REMARK    2  A    between atoms: O_3  and  C_16
REMARK    3  A    between atoms: N_6  and  C_11
REMARK    4  A    between atoms: N_7  and  C_18
REMARK    5  A    between atoms: C_15  and  C_17
REMARK    6  A    between atoms: C_18  and  C_21
REMARK                            x       y       z     vdW  Elec       q    Type
REMARK                         _______ _______ _______ _____ _____    ______ ____
ROOT
ATOM      1  O   UNL     1       1.268  -0.541  -1.042  0.00  0.00    -0.368 OA
ATOM      2  O   UNL     1       1.172  -2.876   0.943  0.00  0.00    -0.368 OA
ATOM      9  C   UNL     1       0.446  -1.630   0.897  0.00  0.00    +0.173 C 
ATOM     10  C   UNL     1       1.410  -0.578   0.388  0.00  0.00    +0.192 C 
ATOM     11  C   UNL     1      -0.622  -1.691  -0.170  0.00  0.00    +0.130 C 
ATOM     12  C   UNL     1       2.751  -1.136   0.801  0.00  0.00    +0.235 C 
ATOM     13  C   UNL     1       0.165  -1.375  -1.431  0.00  0.00    +0.185 C 
ATOM     14  C   UNL     1       2.547  -2.623   0.619  0.00  0.00    +0.207 C 
ENDROOT
BRANCH  11   6
ATOM      4  O   UNL     1      -3.346  -1.817  -1.069  0.00  0.00    -0.269 OA
ATOM      6  N   UNL     1      -1.653  -0.710   0.065  0.00  0.00    -0.302 N 
ATOM     15  C   UNL     1      -2.948  -0.859  -0.412  0.00  0.00    +0.263 C 
ATOM     24  H   UNL     1      -1.406   0.144   0.558  0.00  0.00    +0.150 HD
BRANCH  15  17
ATOM      8  N   UNL     1      -3.345   1.256   0.595  0.00  0.00    -0.250 NA
ATOM     17  C   UNL     1      -3.885   0.253  -0.107  0.00  0.00    +0.125 A 
ATOM     19  C   UNL     1      -5.179   0.171  -0.548  0.00  0.00    +0.033 A 
ATOM     20  C   UNL     1      -6.015   1.237  -0.234  0.00  0.00    +0.004 A 
ATOM     22  C   UNL     1      -4.187   2.274   0.880  0.00  0.00    +0.111 A 
ATOM     23  C   UNL     1      -5.517   2.313   0.493  0.00  0.00    +0.020 A 
ENDBRANCH  15  17
ENDBRANCH  11   6
BRANCH  12   3
ATOM      3  O   UNL     1       3.826  -0.649   0.030  0.00  0.00    -0.442 OA
BRANCH   3  16
ATOM      5  O   UNL     1       3.411   1.483   0.775  0.00  0.00    -0.226 OA
ATOM      7  N   UNL     1       5.142   1.040  -0.704  0.00  0.00    -0.281 N 
ATOM     16  C   UNL     1       4.070   0.704   0.095  0.00  0.00    +0.401 C 
ATOM     25  H   UNL     1       5.606   0.299  -1.220  0.00  0.00    +0.152 HD
BRANCH   7  18
ATOM     18  C   UNL     1       5.644   2.387  -0.848  0.00  0.00    +0.104 C 
ATOM     21  C   UNL     1       4.845   3.369  -0.016  0.00  0.00    +0.024 C 
ENDBRANCH   7  18
ENDBRANCH   3  16
ENDBRANCH  12   3
TORSDOF 5
