REMARK  Name = 11884556
REMARK  5 active torsions:
REMARK  status: ('A' for Active; 'I' for Inactive)
REMARK    1  A    between atoms: O_4  and  C_30
REMARK    2  A    between atoms: O_4  and  C_35
REMARK    3  A    between atoms: N_7  and  C_18
REMARK    4  A    between atoms: N_8  and  C_25
REMARK    5  A    between atoms: N_9  and  C_29
REMARK                            x       y       z     vdW  Elec       q    Type
REMARK                         _______ _______ _______ _____ _____    ______ ____
ROOT
ATOM      1  O   UNL     1      -3.552  -0.579  -2.445  0.00  0.00    -0.253 OA
ATOM      2  O   UNL     1      -0.098   0.806   2.320  0.00  0.00    -0.266 OA
ATOM      5  N   UNL     1      -4.137   0.861  -0.720  0.00  0.00    -0.285 N 
ATOM      6  N   UNL     1      -1.538   1.930   0.863  0.00  0.00    -0.310 N 
ATOM      7  N   UNL     1      -4.266  -1.487  -0.463  0.00  0.00    -0.296 N 
ATOM     10  C   UNL     1      -4.024   2.268   1.359  0.00  0.00    +0.027 C 
ATOM     11  C   UNL     1      -3.075   3.121  -0.737  0.00  0.00    +0.054 C 
ATOM     12  C   UNL     1      -3.892   3.511   0.491  0.00  0.00    +0.018 C 
ATOM     13  C   UNL     1      -4.733   1.132   0.598  0.00  0.00    +0.114 C 
ATOM     14  C   UNL     1      -3.836   2.047  -1.532  0.00  0.00    +0.119 C 
ATOM     15  C   UNL     1      -2.630   1.851   1.841  0.00  0.00    +0.130 C 
ATOM     16  C   UNL     1      -1.703   2.604  -0.350  0.00  0.00    +0.027 A 
ATOM     17  C   UNL     1      -3.955  -0.413  -1.289  0.00  0.00    +0.302 C 
ATOM     19  C   UNL     1      -0.659   2.767  -1.180  0.00  0.00    +0.024 A 
ATOM     20  C   UNL     1      -0.296   1.390   1.254  0.00  0.00    +0.273 A 
ATOM     25  C   UNL     1       0.836   1.571   0.291  0.00  0.00    +0.100 A 
ATOM     27  C   UNL     1       0.635   2.238  -0.851  0.00  0.00    +0.030 A 
ATOM     36  H   UNL     1      -4.466  -1.348   0.516  0.00  0.00    +0.151 HD
ENDROOT
BRANCH  25   8
ATOM      3  O   UNL     1       2.818   0.641  -1.524  0.00  0.00    -0.252 OA
ATOM      8  N   UNL     1       2.051   1.050   0.625  0.00  0.00    -0.265 N 
ATOM      9  N   UNL     1       4.135   0.128   0.350  0.00  0.00    -0.266 N 
ATOM     28  C   UNL     1       2.996   0.605  -0.309  0.00  0.00    +0.308 C 
ATOM     37  H   UNL     1       2.173   0.748   1.588  0.00  0.00    +0.157 HD
ATOM     38  H   UNL     1       4.124   0.166   1.366  0.00  0.00    +0.156 HD
BRANCH   9  29
ATOM     29  C   UNL     1       5.311  -0.407  -0.226  0.00  0.00    +0.077 A 
ATOM     30  C   UNL     1       6.364  -0.841   0.580  0.00  0.00    +0.141 A 
ATOM     31  C   UNL     1       5.412  -0.499  -1.614  0.00  0.00    +0.027 A 
ATOM     32  C   UNL     1       7.517  -1.366  -0.002  0.00  0.00    +0.047 A 
ATOM     33  C   UNL     1       6.566  -1.024  -2.196  0.00  0.00    +0.002 A 
ATOM     34  C   UNL     1       7.618  -1.458  -1.390  0.00  0.00    +0.004 A 
BRANCH  30   4
ATOM      4  O   UNL     1       6.285  -0.760   1.939  0.00  0.00    -0.493 OA
ATOM     35  C   UNL     1       6.757   0.441   2.544  0.00  0.00    +0.277 C 
ENDBRANCH  30   4
ENDBRANCH   9  29
ENDBRANCH  25   8
BRANCH   7  18
ATOM     18  C   UNL     1      -4.138  -2.859  -0.901  0.00  0.00    +0.074 C 
ATOM     21  C   UNL     1      -5.193  -3.750  -0.236  0.00  0.00    +0.022 C 
ATOM     22  C   UNL     1      -2.723  -3.389  -0.648  0.00  0.00    +0.022 C 
ATOM     23  C   UNL     1      -4.909  -3.985   1.247  0.00  0.00    +0.002 C 
ATOM     24  C   UNL     1      -2.443  -3.624   0.836  0.00  0.00    +0.002 C 
ATOM     26  C   UNL     1      -3.499  -4.522   1.473  0.00  0.00    +0.000 C 
ENDBRANCH   7  18
TORSDOF 4
