REMARK  Name = 45783625
REMARK  10 active torsions:
REMARK  status: ('A' for Active; 'I' for Inactive)
REMARK    1  A    between atoms: O_2  and  C_27
REMARK    2  A    between atoms: O_4  and  C_31
REMARK    3  A    between atoms: O_4  and  C_32
REMARK    4  A    between atoms: N_6  and  C_15
REMARK    5  A    between atoms: N_10  and  C_29
REMARK    6  A    between atoms: C_11  and  C_16
REMARK    7  A    between atoms: C_15  and  C_17
REMARK    8  A    between atoms: C_20  and  C_24
REMARK    9  A    between atoms: C_23  and  C_27
REMARK   10  A    between atoms: C_30  and  C_31
REMARK                            x       y       z     vdW  Elec       q    Type
REMARK                         _______ _______ _______ _____ _____    ______ ____
ROOT
ATOM      1  O   UNL     1      -2.820  -1.509   2.004  0.00  0.00    -0.336 OA
ATOM      7  N   UNL     1      -1.721  -1.234   0.072  0.00  0.00    -0.190 NA
ATOM      8  N   UNL     1      -1.460  -1.441   2.335  0.00  0.00    -0.056 NA
ATOM     16  C   UNL     1      -2.885  -1.379   0.653  0.00  0.00    +0.245 A 
ATOM     20  C   UNL     1      -0.878  -1.278   1.143  0.00  0.00    +0.204 A 
ENDROOT
BRANCH  20  24
ATOM      9  N   UNL     1       2.734  -1.097   2.011  0.00  0.00    -0.239 NA
ATOM     24  C   UNL     1       0.543  -1.158   0.989  0.00  0.00    +0.041 A 
ATOM     25  C   UNL     1       1.116  -0.991  -0.267  0.00  0.00    +0.016 A 
ATOM     26  C   UNL     1       1.388  -1.204   2.087  0.00  0.00    +0.124 A 
ATOM     28  C   UNL     1       2.497  -0.877  -0.385  0.00  0.00    +0.044 A 
ATOM     29  C   UNL     1       3.255  -0.936   0.774  0.00  0.00    +0.125 A 
BRANCH  29  10
ATOM      5  O   UNL     1       4.961  -0.566  -1.677  0.00  0.00    -0.273 OA
ATOM     10  N   UNL     1       4.643  -0.820   0.643  0.00  0.00    -0.268 N 
ATOM     30  C   UNL     1       5.387  -0.648  -0.529  0.00  0.00    +0.244 C 
ATOM     33  H   UNL     1       5.154  -0.869   1.522  0.00  0.00    +0.156 HD
BRANCH  30  31
ATOM     31  C   UNL     1       6.873  -0.574  -0.254  0.00  0.00    +0.255 C 
BRANCH  31   4
ATOM      4  O   UNL     1       7.555  -0.407  -1.479  0.00  0.00    -0.374 OA
ATOM     32  C   UNL     1       8.965  -0.328  -1.295  0.00  0.00    +0.194 C 
ENDBRANCH  31   4
ENDBRANCH  30  31
ENDBRANCH  29  10
ENDBRANCH  20  24
BRANCH  16  11
ATOM      6  N   UNL     1      -4.347  -0.667  -1.231  0.00  0.00    -0.287 NA
ATOM     11  C   UNL     1      -4.268  -1.420   0.037  0.00  0.00    +0.146 C 
ATOM     12  C   UNL     1      -4.715  -2.848  -0.326  0.00  0.00    +0.030 C 
ATOM     13  C   UNL     1      -5.082  -2.786  -1.802  0.00  0.00    +0.017 C 
ATOM     14  C   UNL     1      -5.382  -1.318  -2.034  0.00  0.00    +0.085 C 
BRANCH   6  15
ATOM     15  C   UNL     1      -4.612   0.753  -1.041  0.00  0.00    +0.120 C 
BRANCH  15  17
ATOM     17  C   UNL     1      -3.368   1.509  -0.657  0.00  0.00    -0.033 A 
ATOM     18  C   UNL     1      -3.327   2.221   0.541  0.00  0.00    +0.006 A 
ATOM     19  C   UNL     1      -2.257   1.498  -1.500  0.00  0.00    +0.006 A 
ATOM     21  C   UNL     1      -2.175   2.922   0.897  0.00  0.00    +0.015 A 
ATOM     22  C   UNL     1      -1.105   2.199  -1.144  0.00  0.00    +0.015 A 
ATOM     23  C   UNL     1      -1.064   2.911   0.054  0.00  0.00    +0.059 A 
BRANCH  23  27
ATOM      3  O   UNL     1       0.284   4.302   1.459  0.00  0.00    -0.245 OA
ATOM     27  C   UNL     1       0.138   3.641   0.425  0.00  0.00    +0.337 C 
BRANCH  27   2
ATOM      2  O   UNL     1       1.125   3.526  -0.505  0.00  0.00    -0.477 OA
ATOM     34  H   UNL     1       1.932   4.020  -0.245  0.00  0.00    +0.295 HD
ENDBRANCH  27   2
ENDBRANCH  23  27
ENDBRANCH  15  17
ENDBRANCH   6  15
ENDBRANCH  16  11
TORSDOF 9
