REMARK  Name = 40777875
REMARK  13 active torsions:
REMARK  status: ('A' for Active; 'I' for Inactive)
REMARK    1  A    between atoms: O_3  and  C_10
REMARK    2  A    between atoms: O_4  and  C_11
REMARK    3  A    between atoms: N_7  and  C_13
REMARK    4  A    between atoms: N_8  and  C_20
REMARK    5  A    between atoms: C_9  and  C_13
REMARK    6  A    between atoms: C_12  and  C_14
REMARK    7  A    between atoms: C_14  and  C_15
REMARK    8  A    between atoms: C_16  and  C_17
REMARK    9  A    between atoms: C_16  and  C_18
REMARK   10  A    between atoms: C_16  and  C_19
REMARK   11  A    between atoms: C_18  and  C_21
REMARK   12  A    between atoms: C_19  and  C_22
REMARK   13  A    between atoms: C_20  and  C_23
REMARK                            x       y       z     vdW  Elec       q    Type
REMARK                         _______ _______ _______ _____ _____    ______ ____
ROOT
ATOM      2  O   UNL     1      -2.288  -0.250  -0.536  0.00  0.00    -0.366 OA
ATOM      9  C   UNL     1      -3.356   0.704  -0.334  0.00  0.00    +0.167 C 
ATOM     10  C   UNL     1      -4.557  -0.094   0.162  0.00  0.00    +0.176 C 
ATOM     11  C   UNL     1      -3.892  -1.258   0.868  0.00  0.00    +0.175 C 
ATOM     12  C   UNL     1      -2.712  -1.535  -0.047  0.00  0.00    +0.158 C 
ENDROOT
BRANCH  10   3
ATOM      3  O   UNL     1      -5.283  -0.555  -0.976  0.00  0.00    -0.387 OA
ATOM     30  H   UNL     1      -5.659   0.226  -1.417  0.00  0.00    +0.210 HD
ENDBRANCH  10   3
BRANCH  11   4
ATOM      4  O   UNL     1      -4.733  -2.383   1.004  0.00  0.00    -0.387 OA
ATOM     31  H   UNL     1      -5.519  -2.101   1.501  0.00  0.00    +0.210 HD
ENDBRANCH  11   4
BRANCH   9  13
ATOM     13  C   UNL     1      -2.872   1.740   0.671  0.00  0.00    +0.138 C 
BRANCH  13   7
ATOM      6  O   UNL     1      -0.102   1.050   1.001  0.00  0.00    -0.276 OA
ATOM      7  N   UNL     1      -1.732   2.472   0.169  0.00  0.00    -0.313 N 
ATOM     17  C   UNL     1      -0.425   2.060   0.379  0.00  0.00    +0.216 C 
ATOM     29  H   UNL     1      -1.919   3.315  -0.364  0.00  0.00    +0.149 HD
BRANCH  17  16
ATOM     16  C   UNL     1       0.599   3.017  -0.240  0.00  0.00    +0.074 C 
BRANCH  16  18
ATOM     18  C   UNL     1       0.508   4.431   0.358  0.00  0.00    +0.009 C 
ATOM     21  C   UNL     1       0.709   4.438   1.869  0.00  0.00    +0.004 C 
ENDBRANCH  16  18
BRANCH  16  19
ATOM     19  C   UNL     1       0.453   3.029  -1.776  0.00  0.00    +0.009 C 
ATOM     22  C   UNL     1       0.580   1.663  -2.439  0.00  0.00    +0.004 C 
ENDBRANCH  16  19
ENDBRANCH  17  16
ENDBRANCH  13   7
ENDBRANCH   9  13
BRANCH  12  14
ATOM     14  C   UNL     1      -1.554  -2.222   0.654  0.00  0.00    +0.130 C 
BRANCH  14  15
ATOM      5  O   UNL     1      -0.332  -2.051  -1.427  0.00  0.00    -0.276 OA
ATOM      8  N   UNL     1       0.707  -3.002   0.422  0.00  0.00    -0.311 N 
ATOM     15  C   UNL     1      -0.348  -2.401  -0.250  0.00  0.00    +0.216 C 
ATOM     32  H   UNL     1       0.598  -3.239   1.404  0.00  0.00    +0.149 HD
BRANCH   8  20
ATOM     20  C   UNL     1       1.977  -3.292  -0.203  0.00  0.00    +0.139 C 
BRANCH  20  23
ATOM      1  F   UNL     1       5.602   0.987   0.308  0.00  0.00    -0.205 F 
ATOM     23  C   UNL     1       2.944  -2.151  -0.066  0.00  0.00    -0.030 A 
ATOM     24  C   UNL     1       2.988  -1.155  -1.042  0.00  0.00    +0.008 A 
ATOM     25  C   UNL     1       3.797  -2.087   1.035  0.00  0.00    +0.008 A 
ATOM     26  C   UNL     1       3.886  -0.095  -0.915  0.00  0.00    +0.038 A 
ATOM     27  C   UNL     1       4.695  -1.028   1.162  0.00  0.00    +0.038 A 
ATOM     28  C   UNL     1       4.740  -0.032   0.186  0.00  0.00    +0.123 A 
ENDBRANCH  20  23
ENDBRANCH   8  20
ENDBRANCH  14  15
ENDBRANCH  12  14
TORSDOF 11
