REMARK  Name = 56776145
REMARK  10 active torsions:
REMARK  status: ('A' for Active; 'I' for Inactive)
REMARK    1  A    between atoms: O_3  and  C_19
REMARK    2  A    between atoms: N_7  and  C_26
REMARK    3  A    between atoms: N_7  and  C_28
REMARK    4  A    between atoms: N_7  and  C_30
REMARK    5  A    between atoms: N_8  and  C_29
REMARK    6  A    between atoms: N_8  and  C_31
REMARK    7  A    between atoms: N_8  and  C_32
REMARK    8  A    between atoms: C_10  and  C_15
REMARK    9  A    between atoms: C_15  and  C_19
REMARK   10  A    between atoms: C_28  and  C_29
REMARK                            x       y       z     vdW  Elec       q    Type
REMARK                         _______ _______ _______ _____ _____    ______ ____
ROOT
ATOM      1  O   UNL     1       0.107  -2.372   0.090  0.00  0.00    -0.492 OA
ATOM      2  O   UNL     1       1.702  -1.704  -3.100  0.00  0.00    -0.274 OA
ATOM      5  N   UNL     1       2.825  -0.004  -1.998  0.00  0.00    -0.300 N 
ATOM      6  N   UNL     1      -0.311   0.295  -1.792  0.00  0.00    -0.304 NA
ATOM      9  C   UNL     1       4.060  -0.801  -0.009  0.00  0.00    +0.010 C 
ATOM     10  C   UNL     1       4.467   0.668   0.298  0.00  0.00    +0.006 C 
ATOM     11  C   UNL     1       3.407   1.654  -0.225  0.00  0.00    +0.023 C 
ATOM     12  C   UNL     1       3.880  -0.913  -1.537  0.00  0.00    +0.111 C 
ATOM     13  C   UNL     1       2.791  -1.234   0.763  0.00  0.00    +0.008 C 
ATOM     14  C   UNL     1       3.070   1.414  -1.698  0.00  0.00    +0.108 C 
ATOM     16  C   UNL     1       2.407  -2.715   0.615  0.00  0.00    +0.041 C 
ATOM     17  C   UNL     1       1.748  -0.529  -2.715  0.00  0.00    +0.229 C 
ATOM     18  C   UNL     1       0.966  -2.933   1.087  0.00  0.00    +0.229 C 
ATOM     20  C   UNL     1       0.550   0.365  -2.974  0.00  0.00    +0.178 C 
ATOM     21  C   UNL     1      -1.224  -0.853  -1.849  0.00  0.00    +0.120 C 
ATOM     22  C   UNL     1      -1.143  -1.951   0.455  0.00  0.00    +0.125 A 
ATOM     23  C   UNL     1      -1.831  -1.168  -0.498  0.00  0.00    +0.010 A 
ATOM     24  C   UNL     1      -3.105  -0.670  -0.186  0.00  0.00    +0.031 A 
ATOM     25  C   UNL     1      -1.760  -2.262   1.671  0.00  0.00    +0.048 A 
ATOM     26  C   UNL     1      -3.701  -0.967   1.038  0.00  0.00    +0.030 A 
ATOM     27  C   UNL     1      -3.033  -1.768   1.960  0.00  0.00    +0.027 A 
ATOM     33  H   UNL     1      -0.869   1.147  -1.732  0.00  0.00    +0.123 HD
ENDROOT
BRANCH  26   7
ATOM      7  N   UNL     1      -4.976  -0.451   1.346  0.00  0.00    -0.332 N 
ATOM     30  C   UNL     1      -5.600  -0.748   2.620  0.00  0.00    +0.129 C 
BRANCH   7  28
ATOM     28  C   UNL     1      -5.677   0.390   0.396  0.00  0.00    +0.120 C 
BRANCH  28  29
ATOM     29  C   UNL     1      -5.155   1.817   0.493  0.00  0.00    +0.102 C 
BRANCH  29   8
ATOM      8  N   UNL     1      -5.830   2.671  -0.476  0.00  0.00    -0.307 NA
ATOM     31  C   UNL     1      -5.725   4.079  -0.086  0.00  0.00    +0.104 C 
ATOM     32  C   UNL     1      -5.271   2.474  -1.815  0.00  0.00    +0.104 C 
ENDBRANCH  29   8
ENDBRANCH  28  29
ENDBRANCH   7  28
ENDBRANCH  26   7
BRANCH  10  15
ATOM     15  C   UNL     1       4.760   0.923   1.776  0.00  0.00    +0.124 C 
BRANCH  15  19
ATOM      4  O   UNL     1       6.085   2.850   1.090  0.00  0.00    -0.251 OA
ATOM     19  C   UNL     1       5.639   2.128   1.968  0.00  0.00    +0.305 C 
BRANCH  19   3
ATOM      3  O   UNL     1       5.878   2.314   3.292  0.00  0.00    -0.481 OA
ATOM     34  H   UNL     1       6.449   3.094   3.454  0.00  0.00    +0.295 HD
ENDBRANCH  19   3
ENDBRANCH  15  19
ENDBRANCH  10  15
TORSDOF 7
