REMARK  Name = 45360433
REMARK  16 active torsions:
REMARK  status: ('A' for Active; 'I' for Inactive)
REMARK    1  A    between atoms: O_2  and  C_34
REMARK    2  A    between atoms: O_2  and  C_39
REMARK    3  A    between atoms: O_3  and  C_35
REMARK    4  A    between atoms: O_3  and  C_40
REMARK    5  A    between atoms: O_4  and  C_38
REMARK    6  A    between atoms: O_4  and  C_41
REMARK    7  A    between atoms: N_6  and  C_17
REMARK    8  A    between atoms: C_11  and  C_18
REMARK    9  A    between atoms: C_12  and  C_17
REMARK   10  A    between atoms: C_20  and  C_22
REMARK   11  A    between atoms: C_21  and  C_26
REMARK   12  A    between atoms: C_22  and  C_24
REMARK   13  A    between atoms: C_22  and  C_25
REMARK   14  A    between atoms: C_23  and  C_27
REMARK   15  A    between atoms: C_24  and  C_28
REMARK   16  A    between atoms: C_25  and  C_29
REMARK                            x       y       z     vdW  Elec       q    Type
REMARK                         _______ _______ _______ _____ _____    ______ ____
ROOT
ATOM      5  N   UNL     1       0.623   3.464  -1.521  0.00  0.00    -0.297 NA
ATOM     10  C   UNL     1       1.354   2.918   0.918  0.00  0.00    +0.002 C 
ATOM     11  C   UNL     1       2.501   2.596  -0.078  0.00  0.00    +0.055 C 
ATOM     12  C   UNL     1      -0.414   2.634  -0.853  0.00  0.00    +0.074 C 
ATOM     13  C   UNL     1       0.091   2.128   0.515  0.00  0.00    +0.024 C 
ATOM     14  C   UNL     1       1.025   4.417   0.748  0.00  0.00    +0.019 C 
ATOM     15  C   UNL     1       1.925   2.753  -1.515  0.00  0.00    +0.094 C 
ATOM     16  C   UNL     1       0.775   4.715  -0.740  0.00  0.00    +0.085 C 
ENDROOT
BRANCH  11  18
ATOM      7  N   UNL     1       2.786   0.216  -0.568  0.00  0.00    -0.232 NA
ATOM      8  N   UNL     1       4.583  -1.083   0.375  0.00  0.00    -0.232 NA
ATOM     18  C   UNL     1       3.261   1.289   0.099  0.00  0.00    +0.050 A 
ATOM     19  C   UNL     1       4.376   1.254   0.912  0.00  0.00    +0.047 A 
ATOM     20  C   UNL     1       5.003   0.029   1.013  0.00  0.00    +0.048 A 
ATOM     21  C   UNL     1       3.485  -0.920  -0.387  0.00  0.00    +0.160 A 
BRANCH  21  26
ATOM      9  N   UNL     1       2.076  -4.352  -2.430  0.00  0.00    -0.263 NA
ATOM     26  C   UNL     1       3.006  -2.087  -1.082  0.00  0.00    +0.022 A 
ATOM     30  C   UNL     1       1.650  -2.230  -1.354  0.00  0.00    +0.031 A 
ATOM     31  C   UNL     1       3.898  -3.075  -1.483  0.00  0.00    +0.031 A 
ATOM     36  C   UNL     1       1.240  -3.371  -2.024  0.00  0.00    +0.111 A 
ATOM     37  C   UNL     1       3.387  -4.178  -2.148  0.00  0.00    +0.111 A 
ENDBRANCH  21  26
BRANCH  20  22
ATOM     22  C   UNL     1       6.218  -0.105   1.869  0.00  0.00    +0.037 C 
BRANCH  22  24
ATOM     24  C   UNL     1       7.486  -0.521   1.067  0.00  0.00    +0.006 C 
ATOM     28  C   UNL     1       7.861   0.489  -0.011  0.00  0.00    +0.004 C 
ENDBRANCH  22  24
BRANCH  22  25
ATOM     25  C   UNL     1       6.026  -1.104   3.048  0.00  0.00    +0.006 C 
ATOM     29  C   UNL     1       4.906  -0.692   3.996  0.00  0.00    +0.004 C 
ENDBRANCH  22  25
ENDBRANCH  20  22
ENDBRANCH  11  18
BRANCH  12  17
ATOM     17  C   UNL     1      -0.902   1.486  -1.740  0.00  0.00    +0.123 C 
BRANCH  17   6
ATOM      1  O   UNL     1      -3.704   2.058  -1.994  0.00  0.00    -0.270 OA
ATOM      6  N   UNL     1      -1.978   0.780  -1.116  0.00  0.00    -0.310 N 
ATOM     23  C   UNL     1      -3.316   1.126  -1.294  0.00  0.00    +0.244 C 
ATOM     42  H   UNL     1      -1.720   0.044  -0.467  0.00  0.00    +0.149 HD
BRANCH  23  27
ATOM     27  C   UNL     1      -4.313   0.310  -0.554  0.00  0.00    +0.044 A 
ATOM     32  C   UNL     1      -5.544   0.862  -0.201  0.00  0.00    +0.062 A 
ATOM     33  C   UNL     1      -4.017  -1.010  -0.214  0.00  0.00    +0.062 A 
ATOM     34  C   UNL     1      -4.952  -1.778   0.480  0.00  0.00    +0.166 A 
ATOM     35  C   UNL     1      -6.479   0.094   0.492  0.00  0.00    +0.166 A 
ATOM     38  C   UNL     1      -6.183  -1.226   0.833  0.00  0.00    +0.204 A 
BRANCH  34   2
ATOM      2  O   UNL     1      -4.650  -3.065   0.809  0.00  0.00    -0.491 OA
ATOM     39  C   UNL     1      -3.370  -3.552   0.410  0.00  0.00    +0.277 C 
ENDBRANCH  34   2
BRANCH  35   3
ATOM      3  O   UNL     1      -7.678   0.645   0.832  0.00  0.00    -0.491 OA
ATOM     40  C   UNL     1      -7.901   2.000   0.446  0.00  0.00    +0.277 C 
ENDBRANCH  35   3
BRANCH  38   4
ATOM      4  O   UNL     1      -7.098  -1.977   1.511  0.00  0.00    -0.488 OA
ATOM     41  C   UNL     1      -7.040  -1.937   2.935  0.00  0.00    +0.277 C 
ENDBRANCH  38   4
ENDBRANCH  23  27
ENDBRANCH  17   6
ENDBRANCH  12  17
TORSDOF 11
