REMARK  Name = 45784225
REMARK  4 active torsions:
REMARK  status: ('A' for Active; 'I' for Inactive)
REMARK    1  A    between atoms: N_2  and  C_6
REMARK    2  A    between atoms: C_7  and  C_15
REMARK    3  A    between atoms: C_16  and  C_19
REMARK    4  A    between atoms: C_22  and  C_24
REMARK                            x       y       z     vdW  Elec       q    Type
REMARK                         _______ _______ _______ _____ _____    ______ ____
ROOT
ATOM      2  N   UNL     1       1.478   0.917  -0.406  0.00  0.00    -0.299 NA
ATOM      7  C   UNL     1      -0.804   0.992  -0.944  0.00  0.00    +0.070 C 
ATOM      8  C   UNL     1       0.319   0.030  -0.533  0.00  0.00    +0.096 C 
ATOM      9  C   UNL     1       0.972   2.101   0.289  0.00  0.00    +0.085 C 
ATOM     10  C   UNL     1      -0.354   2.365  -0.412  0.00  0.00    +0.028 C 
ENDROOT
BRANCH   7  15
ATOM      4  N   UNL     1      -3.176   0.283  -1.355  0.00  0.00    -0.342 N 
ATOM      5  N   UNL     1      -2.543   0.354   0.774  0.00  0.00    -0.232 NA
ATOM     15  C   UNL     1      -2.167   0.543  -0.470  0.00  0.00    +0.113 A 
ATOM     17  C   UNL     1      -4.277  -0.100  -0.633  0.00  0.00    +0.066 A 
ATOM     18  C   UNL     1      -3.857  -0.048   0.693  0.00  0.00    +0.089 A 
ATOM     20  C   UNL     1      -5.565  -0.476  -1.015  0.00  0.00    +0.031 A 
ATOM     21  C   UNL     1      -4.762  -0.388   1.712  0.00  0.00    +0.030 A 
ATOM     22  C   UNL     1      -6.453  -0.812   0.013  0.00  0.00    -0.048 A 
ATOM     23  C   UNL     1      -6.061  -0.769   1.353  0.00  0.00    +0.005 A 
ATOM     24  C   UNL     1      -7.847  -1.223  -0.332  0.00  0.00    +0.044 C 
ATOM     25  H   UNL     1      -3.124   0.358  -2.362  0.00  0.00    +0.167 HD
ENDBRANCH   7  15
BRANCH   2   6
ATOM      1  O   UNL     1       7.545   0.063   0.105  0.00  0.00    -0.276 OA
ATOM      3  N   UNL     1       5.339  -0.610   0.382  0.00  0.00    -0.302 N 
ATOM      6  C   UNL     1       2.587   0.286   0.305  0.00  0.00    +0.060 C 
ATOM     11  C   UNL     1       3.043  -0.974  -0.442  0.00  0.00    +0.038 C 
ATOM     12  C   UNL     1       3.751   1.275   0.448  0.00  0.00    +0.038 C 
ATOM     13  C   UNL     1       4.264  -1.599   0.232  0.00  0.00    +0.109 C 
ATOM     14  C   UNL     1       4.958   0.606   1.104  0.00  0.00    +0.109 C 
ATOM     16  C   UNL     1       6.650  -0.769  -0.066  0.00  0.00    +0.212 C 
ATOM     19  C   UNL     1       6.962  -2.047  -0.803  0.00  0.00    +0.109 C 
ENDBRANCH   2   6
TORSDOF 2
