REMARK  Name = 45783587
REMARK  6 active torsions:
REMARK  status: ('A' for Active; 'I' for Inactive)
REMARK    1  A    between atoms: O_1  and  C_12
REMARK    2  A    between atoms: O_1  and  C_22
REMARK    3  A    between atoms: N_3  and  C_15
REMARK    4  A    between atoms: C_8  and  C_19
REMARK    5  A    between atoms: C_15  and  C_20
REMARK    6  A    between atoms: C_21  and  C_25
REMARK                            x       y       z     vdW  Elec       q    Type
REMARK                         _______ _______ _______ _____ _____    ______ ____
ROOT
ATOM      2  O   UNL     1       2.415  -0.358  -2.019  0.00  0.00    -0.336 OA
ATOM      4  N   UNL     1       1.784  -1.202  -0.043  0.00  0.00    -0.190 NA
ATOM      5  N   UNL     1       1.023  -0.210  -1.959  0.00  0.00    -0.056 NA
ATOM     19  C   UNL     1       2.781  -0.950  -0.853  0.00  0.00    +0.245 A 
ATOM     21  C   UNL     1       0.726  -0.731  -0.765  0.00  0.00    +0.204 A 
ENDROOT
BRANCH  21  25
ATOM      6  N   UNL     1      -2.967  -0.344  -0.593  0.00  0.00    -0.221 NA
ATOM     22  C   UNL     1      -3.194  -0.887   0.624  0.00  0.00    +0.215 A 
ATOM     25  C   UNL     1      -0.615  -0.797  -0.265  0.00  0.00    +0.041 A 
ATOM     26  C   UNL     1      -2.199  -1.397   1.443  0.00  0.00    +0.068 A 
ATOM     27  C   UNL     1      -0.888  -1.348   0.983  0.00  0.00    +0.018 A 
ATOM     28  C   UNL     1      -1.681  -0.313  -1.007  0.00  0.00    +0.126 A 
BRANCH  22   1
ATOM      1  O   UNL     1      -4.493  -0.924   1.055  0.00  0.00    -0.473 OA
BRANCH   1  12
ATOM     12  C   UNL     1      -5.475  -0.386   0.175  0.00  0.00    +0.175 C 
ATOM     13  C   UNL     1      -5.641   1.108   0.444  0.00  0.00    +0.044 C 
ATOM     14  C   UNL     1      -6.792  -1.140   0.354  0.00  0.00    +0.044 C 
ATOM     16  C   UNL     1      -6.753   1.712  -0.408  0.00  0.00    +0.004 C 
ATOM     17  C   UNL     1      -7.904  -0.537  -0.498  0.00  0.00    +0.004 C 
ATOM     18  C   UNL     1      -8.069   0.957  -0.232  0.00  0.00    +0.000 C 
ENDBRANCH   1  12
ENDBRANCH  22   1
ENDBRANCH  21  25
BRANCH  19   8
ATOM      3  N   UNL     1       4.808  -0.583   0.544  0.00  0.00    -0.287 NA
ATOM      8  C   UNL     1       4.260  -1.222  -0.669  0.00  0.00    +0.146 C 
ATOM      9  C   UNL     1       4.572  -2.720  -0.498  0.00  0.00    +0.030 C 
ATOM     10  C   UNL     1       5.349  -2.818   0.808  0.00  0.00    +0.017 C 
ATOM     11  C   UNL     1       5.919  -1.425   0.989  0.00  0.00    +0.085 C 
BRANCH   3  15
ATOM     15  C   UNL     1       5.219   0.798   0.331  0.00  0.00    +0.121 C 
BRANCH  15  20
ATOM      7  N   UNL     1       2.717   3.411  -0.787  0.00  0.00    -0.263 NA
ATOM     20  C   UNL     1       4.045   1.742   0.351  0.00  0.00    -0.015 A 
ATOM     23  C   UNL     1       3.220   1.834   1.466  0.00  0.00    +0.008 A 
ATOM     24  C   UNL     1       3.754   2.544  -0.740  0.00  0.00    +0.115 A 
ATOM     29  C   UNL     1       2.143   2.715   1.456  0.00  0.00    +0.020 A 
ATOM     30  C   UNL     1       1.937   3.474   0.315  0.00  0.00    +0.111 A 
ENDBRANCH  15  20
ENDBRANCH   3  15
ENDBRANCH  19   8
TORSDOF 6
