REMARK  Name = 40586240
REMARK  7 active torsions:
REMARK  status: ('A' for Active; 'I' for Inactive)
REMARK    1  A    between atoms: S_1  and  N_8
REMARK    2  A    between atoms: S_1  and  C_23
REMARK    3  A    between atoms: O_4  and  C_13
REMARK    4  A    between atoms: O_4  and  C_22
REMARK    5  A    between atoms: N_8  and  C_12
REMARK    6  A    between atoms: N_9  and  C_16
REMARK    7  A    between atoms: C_28  and  C_29
REMARK                            x       y       z     vdW  Elec       q    Type
REMARK                         _______ _______ _______ _____ _____    ______ ____
ROOT
ATOM      2  O   UNL     1       0.675  -1.185   0.798  0.00  0.00    -0.369 OA
ATOM      3  O   UNL     1      -0.987   1.351   1.258  0.00  0.00    -0.368 OA
ATOM     10  C   UNL     1      -1.054   0.338   0.233  0.00  0.00    +0.171 C 
ATOM     11  C   UNL     1       0.373  -0.077  -0.068  0.00  0.00    +0.191 C 
ATOM     12  C   UNL     1      -1.687  -0.918   0.786  0.00  0.00    +0.133 C 
ATOM     13  C   UNL     1       1.157   1.157   0.308  0.00  0.00    +0.235 C 
ATOM     14  C   UNL     1      -0.518  -1.587   1.488  0.00  0.00    +0.183 C 
ATOM     15  C   UNL     1       0.390   1.671   1.505  0.00  0.00    +0.207 C 
ENDROOT
BRANCH  12   8
ATOM      8  N   UNL     1      -2.210  -1.749  -0.272  0.00  0.00    -0.182 NA
ATOM     30  H   UNL     1      -1.658  -1.847  -1.132  0.00  0.00    +0.148 HD
BRANCH   8   1
ATOM      1  S   UNL     1      -3.839  -2.228  -0.245  0.00  0.00    +0.059 S 
ATOM      5  O   UNL     1      -4.135  -2.866   1.023  0.00  0.00    -0.153 OA
ATOM      6  O   UNL     1      -4.149  -2.903  -1.491  0.00  0.00    -0.153 OA
BRANCH   1  23
ATOM     23  C   UNL     1      -4.676  -0.671  -0.280  0.00  0.00    +0.105 A 
ATOM     24  C   UNL     1      -5.016  -0.089  -1.501  0.00  0.00    +0.029 A 
ATOM     25  C   UNL     1      -4.994  -0.024   0.914  0.00  0.00    +0.029 A 
ATOM     26  C   UNL     1      -5.675   1.140  -1.529  0.00  0.00    +0.005 A 
ATOM     27  C   UNL     1      -5.652   1.206   0.886  0.00  0.00    +0.005 A 
ATOM     28  C   UNL     1      -5.993   1.788  -0.335  0.00  0.00    -0.050 A 
ATOM     29  C   UNL     1      -6.697   3.102  -0.365  0.00  0.00    +0.044 C 
ENDBRANCH   1  23
ENDBRANCH   8   1
ENDBRANCH  12   8
BRANCH  13   4
ATOM      4  O   UNL     1       2.507   0.893   0.616  0.00  0.00    -0.442 OA
BRANCH   4  22
ATOM      7  O   UNL     1       3.103   1.328  -1.559  0.00  0.00    -0.226 OA
ATOM      9  N   UNL     1       4.687   0.726   0.026  0.00  0.00    -0.278 N 
ATOM     22  C   UNL     1       3.412   1.011  -0.415  0.00  0.00    +0.401 C 
ATOM     31  H   UNL     1       4.793   0.433   0.992  0.00  0.00    +0.152 HD
BRANCH   9  16
ATOM     16  C   UNL     1       5.857   0.764  -0.823  0.00  0.00    +0.076 C 
ATOM     17  C   UNL     1       7.098   1.191  -0.032  0.00  0.00    +0.022 C 
ATOM     18  C   UNL     1       6.077  -0.584  -1.518  0.00  0.00    +0.022 C 
ATOM     19  C   UNL     1       7.580   0.105   0.930  0.00  0.00    +0.002 C 
ATOM     20  C   UNL     1       6.561  -1.667  -0.553  0.00  0.00    +0.002 C 
ATOM     21  C   UNL     1       7.803  -1.223   0.214  0.00  0.00    +0.000 C 
ENDBRANCH   9  16
ENDBRANCH   4  22
ENDBRANCH  13   4
TORSDOF 6
