REMARK  Name = 25314482
REMARK  7 active torsions:
REMARK  status: ('A' for Active; 'I' for Inactive)
REMARK    1  A    between atoms: O_3  and  C_9
REMARK    2  A    between atoms: N_5  and  C_8
REMARK    3  A    between atoms: N_6  and  C_10
REMARK    4  A    between atoms: N_7  and  C_24
REMARK    5  A    between atoms: C_15  and  C_19
REMARK    6  A    between atoms: C_19  and  C_20
REMARK    7  A    between atoms: C_24  and  C_28
REMARK                            x       y       z     vdW  Elec       q    Type
REMARK                         _______ _______ _______ _____ _____    ______ ____
ROOT
ATOM      1  O   UNL     1       2.759  -1.824  -1.334  0.00  0.00    -0.342 OA
ATOM      2  O   UNL     1       3.342  -3.239   0.409  0.00  0.00    -0.347 OA
ATOM      8  C   UNL     1       1.528  -1.673   0.734  0.00  0.00    +0.143 C 
ATOM      9  C   UNL     1       2.513  -0.608   1.266  0.00  0.00    +0.159 C 
ATOM     10  C   UNL     1       3.570  -0.175   0.226  0.00  0.00    +0.136 C 
ATOM     11  C   UNL     1       2.233  -2.615  -0.259  0.00  0.00    +0.270 C 
ATOM     12  C   UNL     1       3.957  -1.303  -0.752  0.00  0.00    +0.170 C 
ATOM     16  C   UNL     1       4.502  -2.548  -0.079  0.00  0.00    +0.196 C 
ENDROOT
BRANCH  10   6
ATOM      4  O   UNL     1       3.902   2.603   0.933  0.00  0.00    -0.253 OA
ATOM      6  N   UNL     1       3.098   0.976  -0.515  0.00  0.00    -0.291 N 
ATOM      7  N   UNL     1       2.749   3.194  -0.992  0.00  0.00    -0.300 N 
ATOM     21  C   UNL     1       3.305   2.285  -0.095  0.00  0.00    +0.300 C 
ATOM     29  H   UNL     1       2.525   0.817  -1.338  0.00  0.00    +0.151 HD
ATOM     31  H   UNL     1       2.265   2.838  -1.811  0.00  0.00    +0.150 HD
BRANCH   7  24
ATOM     24  C   UNL     1       2.817   4.624  -0.801  0.00  0.00    +0.102 C 
ATOM     28  C   UNL     1       1.772   5.102   0.185  0.00  0.00    +0.024 C 
ENDBRANCH   7  24
ENDBRANCH  10   6
BRANCH   8   5
ATOM      5  N   UNL     1       0.390  -1.025   0.079  0.00  0.00    -0.293 NA
ATOM     13  C   UNL     1      -0.571  -0.540   1.079  0.00  0.00    +0.085 C 
ATOM     14  C   UNL     1      -0.250  -1.946  -0.869  0.00  0.00    +0.085 C 
ATOM     15  C   UNL     1      -2.440  -0.707  -0.617  0.00  0.00    -0.004 C 
ATOM     17  C   UNL     1      -1.741   0.187   0.412  0.00  0.00    +0.019 C 
ATOM     18  C   UNL     1      -1.409  -1.266  -1.603  0.00  0.00    +0.019 C 
BRANCH  15  19
ATOM     19  C   UNL     1      -3.541   0.056  -1.349  0.00  0.00    +0.038 C 
BRANCH  19  20
ATOM     20  C   UNL     1      -4.788   0.166  -0.516  0.00  0.00    -0.047 A 
ATOM     22  C   UNL     1      -5.772  -0.819  -0.600  0.00  0.00    +0.003 A 
ATOM     23  C   UNL     1      -4.962   1.253   0.341  0.00  0.00    +0.003 A 
ATOM     25  C   UNL     1      -6.929  -0.718   0.172  0.00  0.00    +0.000 A 
ATOM     26  C   UNL     1      -6.119   1.354   1.113  0.00  0.00    +0.000 A 
ATOM     27  C   UNL     1      -7.103   0.369   1.029  0.00  0.00    +0.000 A 
ENDBRANCH  19  20
ENDBRANCH  15  19
ENDBRANCH   8   5
BRANCH   9   3
ATOM      3  O   UNL     1       3.187  -1.164   2.403  0.00  0.00    -0.388 OA
ATOM     30  H   UNL     1       3.760  -0.471   2.772  0.00  0.00    +0.210 HD
ENDBRANCH   9   3
TORSDOF 6
