REMARK  Name = 45784384
REMARK  11 active torsions:
REMARK  status: ('A' for Active; 'I' for Inactive)
REMARK    1  A    between atoms: O_1  and  C_11
REMARK    2  A    between atoms: N_4  and  C_15
REMARK    3  A    between atoms: N_5  and  C_25
REMARK    4  A    between atoms: N_5  and  C_26
REMARK    5  A    between atoms: C_8  and  C_18
REMARK    6  A    between atoms: C_10  and  C_20
REMARK    7  A    between atoms: C_13  and  C_19
REMARK    8  A    between atoms: C_19  and  C_21
REMARK    9  A    between atoms: C_19  and  C_22
REMARK   10  A    between atoms: C_23  and  C_24
REMARK   11  A    between atoms: C_25  and  C_27
REMARK                            x       y       z     vdW  Elec       q    Type
REMARK                         _______ _______ _______ _____ _____    ______ ____
ROOT
ATOM      8  C   UNL     1      -0.918  -2.292   0.185  0.00  0.00    -0.027 C 
ATOM      9  C   UNL     1      -0.730  -0.741   0.106  0.00  0.00    +0.028 C 
ATOM     10  C   UNL     1      -2.051  -0.042  -0.378  0.00  0.00    +0.012 C 
ATOM     11  C   UNL     1       0.553  -0.368  -0.691  0.00  0.00    +0.122 C 
ATOM     12  C   UNL     1       0.361  -2.937   0.771  0.00  0.00    +0.007 C 
ATOM     13  C   UNL     1       1.812  -1.097  -0.165  0.00  0.00    +0.029 C 
ATOM     14  C   UNL     1      -2.087  -2.610   1.145  0.00  0.00    +0.009 C 
ATOM     15  C   UNL     1      -3.236  -0.429   0.551  0.00  0.00    +0.076 C 
ATOM     16  C   UNL     1       1.613  -2.606  -0.029  0.00  0.00    +0.007 C 
ATOM     17  C   UNL     1      -3.391  -1.937   0.742  0.00  0.00    +0.023 C 
ATOM     18  C   UNL     1      -1.206  -2.928  -1.198  0.00  0.00    +0.011 C 
ATOM     20  C   UNL     1      -1.946   1.491  -0.452  0.00  0.00    +0.010 C 
ENDROOT
BRANCH  15   4
ATOM      3  O   UNL     1      -5.471   0.407   2.147  0.00  0.00    -0.268 OA
ATOM      4  N   UNL     1      -4.493   0.104   0.068  0.00  0.00    -0.307 N 
ATOM     23  C   UNL     1      -5.515   0.481   0.922  0.00  0.00    +0.264 C 
ATOM     36  H   UNL     1      -4.644   0.147  -0.936  0.00  0.00    +0.149 HD
BRANCH  23  24
ATOM      6  N   UNL     1      -6.747   1.023  -1.079  0.00  0.00    -0.247 NA
ATOM      7  N   UNL     1      -8.965   1.850   0.426  0.00  0.00    -0.259 NA
ATOM     24  C   UNL     1      -6.750   0.984   0.268  0.00  0.00    +0.143 A 
ATOM     28  C   UNL     1      -7.840   1.390   1.007  0.00  0.00    +0.143 A 
ATOM     31  C   UNL     1      -7.872   1.483  -1.661  0.00  0.00    +0.131 A 
ATOM     32  C   UNL     1      -8.962   1.890  -0.922  0.00  0.00    +0.130 A 
ENDBRANCH  23  24
ENDBRANCH  15   4
BRANCH  11   1
ATOM      1  O   UNL     1       0.807   1.032  -0.559  0.00  0.00    -0.391 OA
ATOM     37  H   UNL     1       0.933   1.228   0.385  0.00  0.00    +0.210 HD
ENDBRANCH  11   1
BRANCH  13  19
ATOM     19  C   UNL     1       3.039  -0.819  -1.043  0.00  0.00    +0.078 C 
ATOM     21  C   UNL     1       2.768  -1.307  -2.467  0.00  0.00    +0.017 C 
BRANCH  19  22
ATOM      2  O   UNL     1       4.529  -2.673  -0.777  0.00  0.00    -0.275 OA
ATOM      5  N   UNL     1       5.042  -0.791   0.468  0.00  0.00    -0.300 N 
ATOM     22  C   UNL     1       4.268  -1.510  -0.449  0.00  0.00    +0.219 C 
ATOM     26  C   UNL     1       6.208  -1.429   1.069  0.00  0.00    +0.132 C 
BRANCH   5  25
ATOM     25  C   UNL     1       4.824   0.594   0.881  0.00  0.00    +0.142 C 
BRANCH  25  27
ATOM     27  C   UNL     1       5.983   1.477   0.521  0.00  0.00    -0.030 A 
ATOM     29  C   UNL     1       7.034   1.650   1.421  0.00  0.00    +0.005 A 
ATOM     30  C   UNL     1       6.008   2.125  -0.714  0.00  0.00    +0.005 A 
ATOM     33  C   UNL     1       8.111   2.471   1.085  0.00  0.00    +0.000 A 
ATOM     34  C   UNL     1       7.084   2.946  -1.049  0.00  0.00    +0.000 A 
ATOM     35  C   UNL     1       8.136   3.119  -0.149  0.00  0.00    +0.000 A 
ENDBRANCH  25  27
ENDBRANCH   5  25
ENDBRANCH  19  22
ENDBRANCH  13  19
TORSDOF 7
