REMARK  Name = 11882511
REMARK  7 active torsions:
REMARK  status: ('A' for Active; 'I' for Inactive)
REMARK    1  A    between atoms: N_7  and  C_13
REMARK    2  A    between atoms: CA_17  and  CB_20
REMARK    3  A    between atoms: CB_20  and  CG_21
REMARK    4  A    between atoms: CG_21  and  CD1_23
REMARK    5  A    between atoms: CG_21  and  CD2_24
REMARK    6  A    between atoms: C_22  and  C_26
REMARK    7  A    between atoms: C_25  and  C_27
REMARK                            x       y       z     vdW  Elec       q    Type
REMARK                         _______ _______ _______ _____ _____    ______ ____
ROOT
ATOM      1  O   LEU A   2       3.709  -2.515   1.206  0.00  0.00    -0.274 OA
ATOM      2  O   UNK A   1       1.445   2.094  -0.204  0.00  0.00    -0.274 OA
ATOM      5  N   UNK A   1       1.942  -1.359   0.224  0.00  0.00    -0.288 N 
ATOM      6  N   LEU A   2       3.262   0.927   0.578  0.00  0.00    -0.302 N 
ATOM     12  C   UNK A   1       1.586  -0.277  -0.698  0.00  0.00    +0.164 C 
ATOM     13  C   UNK A   1      -0.799  -0.553   0.153  0.00  0.00    +0.113 C 
ATOM     14  C   UNK A   1       0.097  -0.280  -1.070  0.00  0.00    +0.059 C 
ATOM     15  C   UNK A   1      -0.358  -1.798   0.955  0.00  0.00    +0.046 C 
ATOM     16  C   UNK A   1       0.948  -2.403   0.447  0.00  0.00    +0.110 C 
ATOM     17  CA  LEU A   2       4.107  -0.254   0.515  0.00  0.00    +0.159 C 
ATOM     18  C   LEU A   2       3.241  -1.489   0.714  0.00  0.00    +0.237 C 
ATOM     19  C   UNK A   1       2.040   1.028  -0.063  0.00  0.00    +0.234 C 
ATOM     28  H   LEU A   2       3.593   1.731   1.100  0.00  0.00    +0.150 HD
ENDROOT
BRANCH  13   7
ATOM      7  N   UNK A   1      -2.222  -0.591  -0.209  0.00  0.00    -0.236 N 
ATOM      8  N   UNK A   1      -2.675  -1.544  -1.032  0.00  0.00    -0.064 NA
ATOM      9  N   UNK A   1      -3.979  -1.339  -1.182  0.00  0.00    -0.124 NA
ATOM     22  C   UNK A   1      -3.206   0.250   0.193  0.00  0.00    +0.156 A 
ATOM     25  C   UNK A   1      -4.320  -0.243  -0.438  0.00  0.00    +0.179 A 
BRANCH  22  26
ATOM      3  O   UNK A   1      -3.157   1.292   2.315  0.00  0.00    -0.269 OA
ATOM     10  N   UNK A   1      -2.764   2.612   0.499  0.00  0.00    -0.324 N 
ATOM     26  C   UNK A   1      -3.058   1.368   1.068  0.00  0.00    +0.262 C 
ATOM     29  H   UNK A   1      -2.662   2.734  -0.504  0.00  0.00    +0.145 HD
ATOM     30  H   UNK A   1      -2.642   3.435   1.079  0.00  0.00    +0.145 HD
ENDBRANCH  22  26
BRANCH  25  27
ATOM      4  O   UNK A   1      -5.978   1.276   0.291  0.00  0.00    -0.269 OA
ATOM     11  N   UNK A   1      -6.644  -0.402  -1.100  0.00  0.00    -0.324 N 
ATOM     27  C   UNK A   1      -5.656   0.263  -0.369  0.00  0.00    +0.264 C 
ATOM     31  H   UNK A   1      -6.439  -1.223  -1.660  0.00  0.00    +0.145 HD
ATOM     32  H   UNK A   1      -7.606  -0.079  -1.091  0.00  0.00    +0.145 HD
ENDBRANCH  25  27
ENDBRANCH  13   7
BRANCH  17  20
ATOM     20  CB  LEU A   2       4.944  -0.326  -0.752  0.00  0.00    +0.034 C 
BRANCH  20  21
ATOM     21  CG  LEU A   2       5.771   0.945  -1.018  0.00  0.00    -0.015 C 
ATOM     23  CD1 LEU A   2       4.901   2.199  -1.103  0.00  0.00    +0.007 C 
ATOM     24  CD2 LEU A   2       6.824   1.120   0.080  0.00  0.00    +0.007 C 
ENDBRANCH  20  21
ENDBRANCH  17  20
TORSDOF 5
