REMARK  Name = 11941759
REMARK  10 active torsions:
REMARK  status: ('A' for Active; 'I' for Inactive)
REMARK    1  A    between atoms: N_4  and  C_16
REMARK    2  A    between atoms: N_5  and  C_19
REMARK    3  A    between atoms: N_8  and  C_22
REMARK    4  A    between atoms: N_8  and  C_24
REMARK    5  A    between atoms: N_8  and  C_25
REMARK    6  A    between atoms: C_10  and  C_16
REMARK    7  A    between atoms: C_11  and  C_17
REMARK    8  A    between atoms: C_19  and  C_21
REMARK    9  A    between atoms: C_20  and  C_22
REMARK   10  A    between atoms: C_24  and  C_28
REMARK                            x       y       z     vdW  Elec       q    Type
REMARK                         _______ _______ _______ _____ _____    ______ ____
ROOT
ATOM      3  N   UNL     1      -4.113   1.392  -0.744  0.00  0.00    -0.297 NA
ATOM      9  C   UNL     1      -2.623  -0.610  -1.481  0.00  0.00    +0.005 C 
ATOM     10  C   UNL     1      -2.676   1.755  -0.617  0.00  0.00    +0.078 C 
ATOM     11  C   UNL     1      -3.661  -1.046  -0.429  0.00  0.00    +0.092 C 
ATOM     12  C   UNL     1      -1.771   0.536  -0.901  0.00  0.00    +0.025 C 
ATOM     13  C   UNL     1      -3.411  -0.038  -2.673  0.00  0.00    +0.020 C 
ATOM     14  C   UNL     1      -4.417   0.195   0.080  0.00  0.00    +0.097 C 
ATOM     15  C   UNL     1      -4.373   1.052  -2.166  0.00  0.00    +0.085 C 
ENDROOT
BRANCH  11  17
ATOM      1  O   UNL     1      -3.095  -1.426   1.858  0.00  0.00    -0.275 OA
ATOM      5  N   UNL     1      -2.325  -2.916   0.243  0.00  0.00    -0.308 N 
ATOM     17  C   UNL     1      -3.014  -1.801   0.692  0.00  0.00    +0.218 C 
ATOM     34  H   UNL     1      -2.358  -3.166  -0.740  0.00  0.00    +0.149 HD
BRANCH   5  19
ATOM     19  C   UNL     1      -1.595  -3.800   1.122  0.00  0.00    +0.178 C 
BRANCH  19  21
ATOM      2  O   UNL     1      -0.006  -2.100   1.837  0.00  0.00    -0.466 OA
ATOM     21  C   UNL     1      -0.174  -3.346   1.321  0.00  0.00    +0.122 A 
ATOM     23  C   UNL     1       1.045  -3.939   1.085  0.00  0.00    +0.046 A 
ATOM     26  C   UNL     1       2.024  -2.997   1.481  0.00  0.00    +0.041 A 
ATOM     27  C   UNL     1       1.334  -1.895   1.931  0.00  0.00    +0.195 A 
ENDBRANCH  19  21
ENDBRANCH   5  19
ENDBRANCH  11  17
BRANCH  10  16
ATOM     16  C   UNL     1      -2.356   2.399   0.734  0.00  0.00    +0.164 C 
BRANCH  16   4
ATOM      4  N   UNL     1      -0.985   2.880   0.791  0.00  0.00    -0.250 N 
ATOM      6  N   UNL     1      -0.644   4.111   0.426  0.00  0.00    -0.065 NA
ATOM      7  N   UNL     1       0.682   4.226   0.602  0.00  0.00    -0.133 NA
ATOM     18  C   UNL     1       0.149   2.233   1.198  0.00  0.00    +0.135 A 
ATOM     20  C   UNL     1       1.226   3.076   1.085  0.00  0.00    +0.097 A 
BRANCH  20  22
ATOM     22  C   UNL     1       2.647   2.902   1.375  0.00  0.00    +0.143 C 
BRANCH  22   8
ATOM      8  N   UNL     1       3.197   1.626   0.878  0.00  0.00    -0.295 NA
ATOM     25  C   UNL     1       4.432   1.307   1.585  0.00  0.00    +0.105 C 
BRANCH   8  24
ATOM     24  C   UNL     1       3.426   1.709  -0.559  0.00  0.00    +0.119 C 
BRANCH  24  28
ATOM     28  C   UNL     1       3.471   0.347  -1.200  0.00  0.00    -0.033 A 
ATOM     29  C   UNL     1       4.684  -0.332  -1.309  0.00  0.00    +0.005 A 
ATOM     30  C   UNL     1       2.300  -0.235  -1.683  0.00  0.00    +0.005 A 
ATOM     31  C   UNL     1       4.726  -1.594  -1.902  0.00  0.00    +0.000 A 
ATOM     32  C   UNL     1       2.341  -1.497  -2.276  0.00  0.00    +0.000 A 
ATOM     33  C   UNL     1       3.555  -2.176  -2.385  0.00  0.00    +0.000 A 
ENDBRANCH  24  28
ENDBRANCH   8  24
ENDBRANCH  22   8
ENDBRANCH  20  22
ENDBRANCH  16   4
ENDBRANCH  10  16
TORSDOF 9
