REMARK  Name = 25313223
REMARK  10 active torsions:
REMARK  status: ('A' for Active; 'I' for Inactive)
REMARK    1  A    between atoms: O_2  and  C_24
REMARK    2  A    between atoms: O_4  and  C_26
REMARK    3  A    between atoms: O_4  and  C_31
REMARK    4  A    between atoms: N_6  and  C_19
REMARK    5  A    between atoms: N_7  and  C_25
REMARK    6  A    between atoms: C_8  and  C_16
REMARK    7  A    between atoms: C_9  and  C_18
REMARK    8  A    between atoms: C_10  and  C_17
REMARK    9  A    between atoms: C_16  and  C_19
REMARK   10  A    between atoms: C_18  and  C_24
REMARK                            x       y       z     vdW  Elec       q    Type
REMARK                         _______ _______ _______ _____ _____    ______ ____
ROOT
ATOM      1  O   UNL     1      -2.885  -3.415   1.695  0.00  0.00    -0.275 OA
ATOM      5  N   UNL     1      -3.473  -1.798   0.126  0.00  0.00    -0.301 N 
ATOM      8  C   UNL     1      -3.137   0.412  -0.956  0.00  0.00    +0.011 C 
ATOM      9  C   UNL     1      -4.374   0.936  -0.183  0.00  0.00    +0.006 C 
ATOM     11  C   UNL     1      -3.249  -1.110  -1.151  0.00  0.00    +0.111 C 
ATOM     12  C   UNL     1      -4.598   0.155   1.123  0.00  0.00    +0.023 C 
ATOM     15  C   UNL     1      -4.649  -1.349   0.869  0.00  0.00    +0.108 C 
ATOM     17  C   UNL     1      -2.677  -2.828   0.637  0.00  0.00    +0.219 C 
ENDROOT
BRANCH  17  10
ATOM     10  C   UNL     1      -1.487  -3.239  -0.169  0.00  0.00    +0.075 C 
ATOM     13  C   UNL     1      -1.663  -4.240  -1.273  0.00  0.00    +0.013 C 
ATOM     14  C   UNL     1      -0.945  -4.629  -0.014  0.00  0.00    +0.013 C 
ENDBRANCH  17  10
BRANCH   8  16
ATOM     16  C   UNL     1      -1.796   0.767  -0.300  0.00  0.00    +0.020 C 
BRANCH  16  19
ATOM     19  C   UNL     1      -0.681   0.812  -1.335  0.00  0.00    +0.085 C 
BRANCH  19   6
ATOM      6  N   UNL     1       0.588   1.135  -0.683  0.00  0.00    -0.299 NA
ATOM      7  N   UNL     1       3.389   0.905  -0.171  0.00  0.00    -0.325 N 
ATOM     20  C   UNL     1       1.566   1.613  -1.669  0.00  0.00    +0.103 C 
ATOM     21  C   UNL     1       1.120  -0.039   0.019  0.00  0.00    +0.103 C 
ATOM     22  C   UNL     1       2.881   2.008  -0.992  0.00  0.00    +0.120 C 
ATOM     23  C   UNL     1       2.419   0.301   0.752  0.00  0.00    +0.120 C 
BRANCH   7  25
ATOM     25  C   UNL     1       4.743   0.867   0.181  0.00  0.00    +0.072 A 
ATOM     26  C   UNL     1       5.390  -0.351   0.384  0.00  0.00    +0.141 A 
ATOM     27  C   UNL     1       5.445   2.063   0.328  0.00  0.00    +0.027 A 
ATOM     28  C   UNL     1       6.740  -0.374   0.734  0.00  0.00    +0.047 A 
ATOM     29  C   UNL     1       6.795   2.041   0.678  0.00  0.00    +0.002 A 
ATOM     30  C   UNL     1       7.443   0.822   0.881  0.00  0.00    +0.004 A 
BRANCH  26   4
ATOM      4  O   UNL     1       4.722  -1.531   0.245  0.00  0.00    -0.493 OA
ATOM     31  C   UNL     1       4.723  -2.127  -1.051  0.00  0.00    +0.277 C 
ENDBRANCH  26   4
ENDBRANCH   7  25
ENDBRANCH  19   6
ENDBRANCH  16  19
ENDBRANCH   8  16
BRANCH   9  18
ATOM     18  C   UNL     1      -4.319   2.439   0.091  0.00  0.00    +0.124 C 
BRANCH  18  24
ATOM      3  O   UNL     1      -6.746   2.396   0.317  0.00  0.00    -0.251 OA
ATOM     24  C   UNL     1      -5.690   3.011   0.327  0.00  0.00    +0.305 C 
BRANCH  24   2
ATOM      2  O   UNL     1      -5.595   4.345   0.560  0.00  0.00    -0.481 OA
ATOM     32  H   UNL     1      -6.474   4.751   0.719  0.00  0.00    +0.295 HD
ENDBRANCH  24   2
ENDBRANCH  18  24
ENDBRANCH   9  18
TORSDOF 9
