REMARK  Name = 7113375
REMARK  9 active torsions:
REMARK  status: ('A' for Active; 'I' for Inactive)
REMARK    1  A    between atoms: N_8  and  C_19
REMARK    2  A    between atoms: N_9  and  C_22
REMARK    3  A    between atoms: C_12  and  C_16
REMARK    4  A    between atoms: C_17  and  C_21
REMARK    5  A    between atoms: C_19  and  C_20
REMARK    6  A    between atoms: C_19  and  C_23
REMARK    7  A    between atoms: C_20  and  C_24
REMARK    8  A    between atoms: C_22  and  C_25
REMARK    9  A    between atoms: C_22  and  C_26
REMARK                            x       y       z     vdW  Elec       q    Type
REMARK                         _______ _______ _______ _____ _____    ______ ____
ROOT
ATOM      3  O   UNL     1      -2.145  -1.562   1.238  0.00  0.00    -0.269 OA
ATOM      4  O   UNL     1       4.349   0.965   1.225  0.00  0.00    -0.253 OA
ATOM      6  N   UNL     1       0.104  -1.759   0.711  0.00  0.00    -0.283 N 
ATOM      7  N   UNL     1       2.783  -0.610   0.543  0.00  0.00    -0.282 N 
ATOM      9  N   UNL     1       4.765  -0.249  -0.684  0.00  0.00    -0.297 N 
ATOM     12  C   UNL     1       0.417  -0.459   1.311  0.00  0.00    +0.179 C 
ATOM     13  C   UNL     1       1.894  -0.312   1.670  0.00  0.00    +0.141 C 
ATOM     14  C   UNL     1       1.234  -2.531   0.173  0.00  0.00    +0.128 C 
ATOM     15  C   UNL     1       2.336  -1.646  -0.396  0.00  0.00    +0.128 C 
ATOM     17  C   UNL     1      -1.223  -2.239   0.779  0.00  0.00    +0.254 C 
ATOM     18  C   UNL     1       3.994   0.097   0.421  0.00  0.00    +0.303 C 
ATOM     35  H   UNL     1       4.383  -0.855  -1.401  0.00  0.00    +0.150 HD
ENDROOT
BRANCH  17  21
ATOM      1  S   UNL     1      -3.015  -3.937  -0.390  0.00  0.00    -0.092 S 
ATOM     21  C   UNL     1      -1.479  -3.583   0.271  0.00  0.00    +0.074 A 
ATOM     27  C   UNL     1      -0.632  -4.664   0.240  0.00  0.00    +0.021 A 
ATOM     28  C   UNL     1      -1.254  -5.808  -0.338  0.00  0.00    +0.008 A 
ATOM     29  C   UNL     1      -2.551  -5.552  -0.724  0.00  0.00    +0.046 A 
ENDBRANCH  17  21
BRANCH  12  16
ATOM      2  O   UNL     1       0.055   0.411  -0.886  0.00  0.00    -0.274 OA
ATOM      8  N   UNL     1      -0.445   1.749   0.952  0.00  0.00    -0.302 N 
ATOM     16  C   UNL     1      -0.011   0.593   0.327  0.00  0.00    +0.236 C 
ATOM     34  H   UNL     1      -0.415   1.806   1.966  0.00  0.00    +0.150 HD
BRANCH   8  19
ATOM     19  C   UNL     1      -0.889   2.920   0.230  0.00  0.00    +0.163 C 
BRANCH  19  23
ATOM      5  O   UNL     1       0.605   4.187   1.668  0.00  0.00    -0.274 OA
ATOM     10  N   UNL     1       0.335   4.869  -0.509  0.00  0.00    -0.328 N 
ATOM     23  C   UNL     1       0.076   4.047   0.568  0.00  0.00    +0.231 C 
ATOM     36  H   UNL     1      -0.107   4.740  -1.414  0.00  0.00    +0.145 HD
ATOM     37  H   UNL     1       0.975   5.651  -0.423  0.00  0.00    +0.145 HD
ENDBRANCH  19  23
BRANCH  19  20
ATOM     20  C   UNL     1      -2.324   3.317   0.596  0.00  0.00    +0.068 C 
BRANCH  20  24
ATOM     11  N   UNL     1      -4.782   2.143  -2.007  0.00  0.00    -0.263 NA
ATOM     24  C   UNL     1      -3.360   2.472  -0.104  0.00  0.00    -0.027 A 
ATOM     30  C   UNL     1      -3.821   1.311   0.482  0.00  0.00    +0.006 A 
ATOM     31  C   UNL     1      -3.853   2.853  -1.329  0.00  0.00    +0.114 A 
ATOM     32  C   UNL     1      -4.776   0.553  -0.186  0.00  0.00    +0.020 A 
ATOM     33  C   UNL     1      -5.221   1.009  -1.417  0.00  0.00    +0.111 A 
ENDBRANCH  20  24
ENDBRANCH  19  20
ENDBRANCH   8  19
ENDBRANCH  12  16
BRANCH   9  22
ATOM     22  C   UNL     1       6.033   0.382  -0.968  0.00  0.00    +0.068 C 
ATOM     25  C   UNL     1       6.978  -0.598  -1.653  0.00  0.00    +0.027 C 
ATOM     26  C   UNL     1       5.825   1.631  -1.815  0.00  0.00    +0.027 C 
ENDBRANCH   9  22
TORSDOF 7
