REMARK  Name = 45783594
REMARK  4 active torsions:
REMARK  status: ('A' for Active; 'I' for Inactive)
REMARK    1  A    between atoms: O_1  and  C_7
REMARK    2  A    between atoms: O_1  and  C_18
REMARK    3  A    between atoms: C_13  and  C_17
REMARK    4  A    between atoms: C_19  and  C_20
REMARK                            x       y       z     vdW  Elec       q    Type
REMARK                         _______ _______ _______ _____ _____    ______ ____
ROOT
ATOM      6  N   UNL     1      -1.990  -0.471   0.248  0.00  0.00    -0.221 NA
ATOM     18  C   UNL     1      -2.158   0.846  -0.005  0.00  0.00    +0.215 A 
ATOM     20  C   UNL     1       0.396  -0.106   0.120  0.00  0.00    +0.041 A 
ATOM     21  C   UNL     1      -1.115   1.737  -0.203  0.00  0.00    +0.068 A 
ATOM     22  C   UNL     1       0.183   1.244  -0.138  0.00  0.00    +0.018 A 
ATOM     23  C   UNL     1      -0.714  -0.914   0.304  0.00  0.00    +0.126 A 
ENDROOT
BRANCH  20  19
ATOM      2  O   UNL     1       3.363  -1.994   0.418  0.00  0.00    -0.336 OA
ATOM      4  N   UNL     1       2.825   0.142   0.012  0.00  0.00    -0.190 NA
ATOM      5  N   UNL     1       1.964  -1.934   0.441  0.00  0.00    -0.056 NA
ATOM     17  C   UNL     1       3.790  -0.730   0.161  0.00  0.00    +0.245 A 
ATOM     19  C   UNL     1       1.723  -0.643   0.193  0.00  0.00    +0.204 A 
BRANCH  17  13
ATOM      3  N   UNL     1       5.705  -0.036  -1.239  0.00  0.00    -0.305 NA
ATOM     13  C   UNL     1       5.285  -0.526   0.084  0.00  0.00    +0.143 C 
ATOM     14  C   UNL     1       5.826   0.501   1.090  0.00  0.00    +0.029 C 
ATOM     15  C   UNL     1       6.585   1.514   0.246  0.00  0.00    +0.017 C 
ATOM     16  C   UNL     1       6.914   0.751  -1.019  0.00  0.00    +0.081 C 
ATOM     24  H   UNL     1       4.985   0.590  -1.604  0.00  0.00    +0.123 HD
ENDBRANCH  17  13
ENDBRANCH  20  19
BRANCH  18   1
ATOM      1  O   UNL     1      -3.446   1.307  -0.065  0.00  0.00    -0.473 OA
BRANCH   1   7
ATOM      7  C   UNL     1      -4.479   0.350   0.146  0.00  0.00    +0.175 C 
ATOM      8  C   UNL     1      -4.862  -0.293  -1.185  0.00  0.00    +0.044 C 
ATOM      9  C   UNL     1      -5.678   1.027   0.810  0.00  0.00    +0.044 C 
ATOM     10  C   UNL     1      -6.034  -1.257  -1.027  0.00  0.00    +0.004 C 
ATOM     11  C   UNL     1      -6.849   0.064   0.969  0.00  0.00    +0.004 C 
ATOM     12  C   UNL     1      -7.231  -0.581  -0.362  0.00  0.00    +0.000 C 
ENDBRANCH   1   7
ENDBRANCH  18   1
TORSDOF 4
