REMARK  Name = 45360772
REMARK  7 active torsions:
REMARK  status: ('A' for Active; 'I' for Inactive)
REMARK    1  A    between atoms: O_3  and  C_23
REMARK    2  A    between atoms: N_6  and  C_10
REMARK    3  A    between atoms: N_6  and  C_17
REMARK    4  A    between atoms: C_9  and  C_14
REMARK    5  A    between atoms: C_14  and  C_16
REMARK    6  A    between atoms: C_16  and  C_18
REMARK    7  A    between atoms: C_17  and  C_24
REMARK                            x       y       z     vdW  Elec       q    Type
REMARK                         _______ _______ _______ _____ _____    ______ ____
ROOT
ATOM      1  O   UNL     1       2.357  -4.470  -1.027  0.00  0.00    -0.274 OA
ATOM      4  N   UNL     1       0.068  -1.722  -0.296  0.00  0.00    -0.286 NA
ATOM      5  N   UNL     1       0.712  -4.323   0.536  0.00  0.00    -0.313 N 
ATOM      8  C   UNL     1       0.993  -2.498  -1.133  0.00  0.00    +0.145 C 
ATOM      9  C   UNL     1      -0.947  -2.522   0.379  0.00  0.00    +0.075 C 
ATOM     10  C   UNL     1       1.871  -0.318  -0.520  0.00  0.00    +0.070 C 
ATOM     11  C   UNL     1       2.203  -1.571  -1.331  0.00  0.00    +0.048 C 
ATOM     12  C   UNL     1       0.878  -0.820   0.520  0.00  0.00    +0.104 C 
ATOM     13  C   UNL     1      -0.303  -3.586   1.254  0.00  0.00    +0.123 C 
ATOM     15  C   UNL     1       1.427  -3.829  -0.528  0.00  0.00    +0.230 C 
ATOM     30  H   UNL     1       0.997  -5.220   0.917  0.00  0.00    +0.149 HD
ENDROOT
BRANCH  10   6
ATOM      6  N   UNL     1       3.045   0.316   0.057  0.00  0.00    -0.308 NA
ATOM     31  H   UNL     1       2.753   0.922   0.825  0.00  0.00    +0.123 HD
BRANCH   6  17
ATOM     17  C   UNL     1       3.748   1.119  -0.936  0.00  0.00    +0.116 C 
BRANCH  17  24
ATOM     24  C   UNL     1       4.976   1.773  -0.360  0.00  0.00    -0.034 A 
ATOM     25  C   UNL     1       4.885   3.039   0.218  0.00  0.00    +0.005 A 
ATOM     26  C   UNL     1       6.204   1.113  -0.405  0.00  0.00    +0.005 A 
ATOM     27  C   UNL     1       6.022   3.646   0.751  0.00  0.00    +0.000 A 
ATOM     28  C   UNL     1       7.341   1.720   0.128  0.00  0.00    +0.000 A 
ATOM     29  C   UNL     1       7.250   2.986   0.706  0.00  0.00    +0.000 A 
ENDBRANCH  17  24
ENDBRANCH   6  17
ENDBRANCH  10   6
BRANCH   9  14
ATOM     14  C   UNL     1      -1.934  -1.674   1.182  0.00  0.00    +0.029 C 
BRANCH  14  16
ATOM     16  C   UNL     1      -2.650  -0.644   0.321  0.00  0.00    +0.097 C 
BRANCH  16  18
ATOM      2  O   UNL     1      -3.778  -0.109   2.335  0.00  0.00    -0.276 OA
ATOM      7  N   UNL     1      -4.370   1.124   0.456  0.00  0.00    -0.301 N 
ATOM     18  C   UNL     1      -3.646   0.143   1.134  0.00  0.00    +0.216 C 
ATOM     19  C   UNL     1      -5.324   1.961   1.188  0.00  0.00    +0.110 C 
ATOM     20  C   UNL     1      -4.235   1.446  -0.971  0.00  0.00    +0.110 C 
ATOM     21  C   UNL     1      -6.700   1.921   0.530  0.00  0.00    +0.050 C 
ATOM     22  C   UNL     1      -5.592   1.398  -1.667  0.00  0.00    +0.050 C 
ATOM     23  C   UNL     1      -6.614   2.282  -0.953  0.00  0.00    +0.118 C 
BRANCH  23   3
ATOM      3  O   UNL     1      -7.885   2.101  -1.568  0.00  0.00    -0.392 OA
ATOM     32  H   UNL     1      -8.521   2.666  -1.097  0.00  0.00    +0.210 HD
ENDBRANCH  23   3
ENDBRANCH  16  18
ENDBRANCH  14  16
ENDBRANCH   9  14
TORSDOF 7
