REMARK  Name = 45361336
REMARK  13 active torsions:
REMARK  status: ('A' for Active; 'I' for Inactive)
REMARK    1  A    between atoms: O_2  and  C_11
REMARK    2  A    between atoms: N_6  and  C_25
REMARK    3  A    between atoms: N_6  and  C_26
REMARK    4  A    between atoms: N_8  and  C_29
REMARK    5  A    between atoms: N_8  and  C_31
REMARK    6  A    between atoms: N_8  and  C_32
REMARK    7  A    between atoms: C_9  and  C_17
REMARK    8  A    between atoms: C_12  and  C_18
REMARK    9  A    between atoms: C_14  and  C_21
REMARK   10  A    between atoms: C_18  and  C_22
REMARK   11  A    between atoms: C_18  and  C_23
REMARK   12  A    between atoms: C_25  and  C_28
REMARK   13  A    between atoms: C_27  and  C_29
REMARK                            x       y       z     vdW  Elec       q    Type
REMARK                         _______ _______ _______ _____ _____    ______ ____
ROOT
ATOM      1  S   UNL     1       3.364   1.951   1.300  0.00  0.00    -0.057 S 
ATOM      4  O   UNL     1       5.843  -1.679  -0.314  0.00  0.00    -0.274 OA
ATOM      5  N   UNL     1       3.179  -0.320   0.077  0.00  0.00    -0.229 NA
ATOM      7  N   UNL     1       5.389   0.387   0.728  0.00  0.00    -0.264 N 
ATOM      9  C   UNL     1      -0.556   1.710   0.079  0.00  0.00    -0.022 C 
ATOM     10  C   UNL     1      -0.643   0.134   0.121  0.00  0.00    +0.033 C 
ATOM     11  C   UNL     1      -1.900  -0.385  -0.633  0.00  0.00    +0.123 C 
ATOM     12  C   UNL     1      -3.203   0.302  -0.167  0.00  0.00    +0.029 C 
ATOM     13  C   UNL     1      -1.887   2.319   0.580  0.00  0.00    +0.008 C 
ATOM     14  C   UNL     1       0.704  -0.547  -0.357  0.00  0.00    +0.042 C 
ATOM     15  C   UNL     1      -3.101   1.827  -0.196  0.00  0.00    +0.007 C 
ATOM     16  C   UNL     1       0.573   2.202   1.038  0.00  0.00    +0.051 C 
ATOM     17  C   UNL     1      -0.268   2.239  -1.350  0.00  0.00    +0.012 C 
ATOM     19  C   UNL     1       1.898   0.188   0.205  0.00  0.00    +0.057 A 
ATOM     20  C   UNL     1       1.820   1.422   0.817  0.00  0.00    +0.015 A 
ATOM     21  C   UNL     1       0.791  -2.038   0.003  0.00  0.00    +0.014 C 
ATOM     24  C   UNL     1       4.029   0.518   0.629  0.00  0.00    +0.165 A 
ATOM     27  C   UNL     1       6.223  -0.669   0.270  0.00  0.00    +0.233 C 
ATOM     34  H   UNL     1       5.843   1.164   1.203  0.00  0.00    +0.157 HD
ENDROOT
BRANCH  11   2
ATOM      2  O   UNL     1      -2.052  -1.784  -0.396  0.00  0.00    -0.391 OA
ATOM     33  H   UNL     1      -2.171  -1.916   0.560  0.00  0.00    +0.210 HD
ENDBRANCH  11   2
BRANCH  12  18
ATOM     18  C   UNL     1      -4.412  -0.147  -0.997  0.00  0.00    +0.078 C 
ATOM     22  C   UNL     1      -4.183   0.209  -2.466  0.00  0.00    +0.017 C 
BRANCH  18  23
ATOM      3  O   UNL     1      -6.024   1.621  -0.904  0.00  0.00    -0.275 OA
ATOM      6  N   UNL     1      -6.401  -0.153   0.533  0.00  0.00    -0.301 N 
ATOM     23  C   UNL     1      -5.683   0.518  -0.462  0.00  0.00    +0.219 C 
ATOM     26  C   UNL     1      -7.605   0.463   1.080  0.00  0.00    +0.132 C 
BRANCH   6  25
ATOM     25  C   UNL     1      -6.087  -1.470   1.083  0.00  0.00    +0.134 C 
BRANCH  25  28
ATOM     28  C   UNL     1      -6.786  -2.515   0.278  0.00  0.00    -0.016 C 
ATOM     30  C   UNL     1      -7.661  -3.388   0.789  0.00  0.00    +0.005 C 
ENDBRANCH  25  28
ENDBRANCH   6  25
ENDBRANCH  18  23
ENDBRANCH  12  18
BRANCH  27  29
ATOM     29  C   UNL     1       7.684  -0.413   0.597  0.00  0.00    +0.180 C 
BRANCH  29   8
ATOM      8  N   UNL     1       8.524  -1.039  -0.414  0.00  0.00    -0.300 NA
ATOM     31  C   UNL     1       8.545  -0.236  -1.639  0.00  0.00    +0.105 C 
ATOM     32  C   UNL     1       9.886  -1.229   0.089  0.00  0.00    +0.105 C 
ENDBRANCH  29   8
ENDBRANCH  27  29
TORSDOF 7
