REMARK  Name = 75536314
REMARK  7 active torsions:
REMARK  status: ('A' for Active; 'I' for Inactive)
REMARK    1  A    between atoms: O_2  and  C_8
REMARK    2  A    between atoms: N_4  and  C_10
REMARK    3  A    between atoms: N_4  and  C_13
REMARK    4  A    between atoms: C_7  and  C_13
REMARK    5  A    between atoms: C_9  and  C_16
REMARK    6  A    between atoms: C_16  and  C_19
REMARK    7  A    between atoms: C_21  and  C_22
REMARK                            x       y       z     vdW  Elec       q    Type
REMARK                         _______ _______ _______ _____ _____    ______ ____
ROOT
ATOM      1  O   UNL     1       2.435  -1.140   0.808  0.00  0.00    -0.369 OA
ATOM      7  C   UNL     1       3.313  -0.041   1.084  0.00  0.00    +0.161 C 
ATOM      8  C   UNL     1       4.762  -0.376   0.707  0.00  0.00    +0.145 C 
ATOM      9  C   UNL     1       2.463  -1.618  -0.539  0.00  0.00    +0.125 C 
ATOM     11  C   UNL     1       4.878  -0.948  -0.703  0.00  0.00    +0.036 C 
ATOM     12  C   UNL     1       3.871  -2.074  -0.920  0.00  0.00    +0.034 C 
ENDROOT
BRANCH   8   2
ATOM      2  O   UNL     1       5.261  -1.358   1.619  0.00  0.00    -0.389 OA
ATOM     30  H   UNL     1       6.193  -1.521   1.394  0.00  0.00    +0.210 HD
ENDBRANCH   8   2
BRANCH   7  13
ATOM     13  C   UNL     1       2.808   1.244   0.431  0.00  0.00    +0.115 C 
BRANCH  13   4
ATOM      4  N   UNL     1       1.441   1.530   0.838  0.00  0.00    -0.311 NA
ATOM     28  H   UNL     1       0.912   0.657   0.846  0.00  0.00    +0.122 HD
BRANCH   4  10
ATOM      5  N   UNL     1      -0.924   4.786  -0.543  0.00  0.00    -0.316 NA
ATOM     10  C   UNL     1       0.803   2.462  -0.089  0.00  0.00    +0.056 C 
ATOM     14  C   UNL     1       1.283   3.897   0.157  0.00  0.00    +0.034 C 
ATOM     15  C   UNL     1      -0.721   2.385   0.048  0.00  0.00    +0.034 C 
ATOM     17  C   UNL     1       0.526   4.884  -0.731  0.00  0.00    +0.082 C 
ATOM     18  C   UNL     1      -1.401   3.432  -0.836  0.00  0.00    +0.082 C 
ATOM     29  H   UNL     1      -1.389   5.448  -1.163  0.00  0.00    +0.122 HD
ENDBRANCH   4  10
ENDBRANCH  13   4
ENDBRANCH   7  13
BRANCH   9  16
ATOM     16  C   UNL     1       1.474  -2.773  -0.637  0.00  0.00    +0.090 C 
BRANCH  16  19
ATOM      3  O   UNL     1      -1.789  -1.611  -1.634  0.00  0.00    -0.354 OA
ATOM      6  N   UNL     1      -0.497  -2.038  -1.915  0.00  0.00    -0.083 NA
ATOM     19  C   UNL     1       0.053  -2.284  -0.723  0.00  0.00    +0.087 A 
ATOM     20  C   UNL     1      -0.836  -2.032   0.337  0.00  0.00    +0.076 A 
ATOM     21  C   UNL     1      -1.979  -1.612  -0.290  0.00  0.00    +0.167 A 
BRANCH  21  22
ATOM     22  C   UNL     1      -3.276  -1.193   0.155  0.00  0.00    +0.020 A 
ATOM     23  C   UNL     1      -3.569  -1.163   1.519  0.00  0.00    +0.011 A 
ATOM     24  C   UNL     1      -4.245  -0.816  -0.775  0.00  0.00    +0.011 A 
ATOM     25  C   UNL     1      -4.831  -0.756   1.952  0.00  0.00    +0.001 A 
ATOM     26  C   UNL     1      -5.506  -0.409  -0.342  0.00  0.00    +0.001 A 
ATOM     27  C   UNL     1      -5.800  -0.379   1.022  0.00  0.00    +0.000 A 
ENDBRANCH  21  22
ENDBRANCH  16  19
ENDBRANCH   9  16
TORSDOF 7
