REMARK  Name = 45784077
REMARK  2 active torsions:
REMARK  status: ('A' for Active; 'I' for Inactive)
REMARK    1  A    between atoms: N_1  and  C_5
REMARK    2  A    between atoms: C_9  and  C_13
REMARK                            x       y       z     vdW  Elec       q    Type
REMARK                         _______ _______ _______ _____ _____    ______ ____
ROOT
ATOM      2  N   UNL     1      -1.840   0.905  -1.079  0.00  0.00    -0.340 N 
ATOM      3  N   UNL     1      -1.297  -0.244   0.750  0.00  0.00    -0.213 NA
ATOM      4  N   UNL     1      -3.513  -1.121   1.216  0.00  0.00    -0.234 NA
ATOM     13  C   UNL     1      -0.850   0.539  -0.207  0.00  0.00    +0.114 A 
ATOM     14  C   UNL     1      -3.002   0.319  -0.654  0.00  0.00    +0.085 A 
ATOM     15  C   UNL     1      -2.636  -0.390   0.484  0.00  0.00    +0.178 A 
ATOM     16  C   UNL     1      -4.309   0.327  -1.128  0.00  0.00    +0.031 A 
ATOM     17  C   UNL     1      -5.221  -0.419  -0.387  0.00  0.00    +0.022 A 
ATOM     18  C   UNL     1      -4.781  -1.102   0.742  0.00  0.00    +0.113 A 
ATOM     19  H   UNL     1      -1.735   1.501  -1.890  0.00  0.00    +0.167 HD
ENDROOT
BRANCH  13   9
ATOM      1  N   UNL     1       2.809   0.426  -0.021  0.00  0.00    -0.299 NA
ATOM      8  C   UNL     1       1.572  -0.128  -0.578  0.00  0.00    +0.096 C 
ATOM      9  C   UNL     1       0.571   1.020  -0.390  0.00  0.00    +0.070 C 
ATOM     11  C   UNL     1       2.396   1.101   1.211  0.00  0.00    +0.085 C 
ATOM     12  C   UNL     1       1.133   1.838   0.785  0.00  0.00    +0.028 C 
BRANCH   1   5
ATOM      5  C   UNL     1       3.774  -0.641   0.270  0.00  0.00    +0.057 C 
ATOM      6  C   UNL     1       5.177  -0.031   0.469  0.00  0.00    +0.019 C 
ATOM      7  C   UNL     1       4.303  -1.235  -1.052  0.00  0.00    +0.019 C 
ATOM     10  C   UNL     1       5.713  -1.165  -0.430  0.00  0.00    +0.003 C 
ENDBRANCH   1   5
ENDBRANCH  13   9
TORSDOF 2
