REMARK  Name = 40777187
REMARK  5 active torsions:
REMARK  status: ('A' for Active; 'I' for Inactive)
REMARK    1  A    between atoms: N_3  and  C_13
REMARK    2  A    between atoms: N_4  and  C_14
REMARK    3  A    between atoms: N_5  and  C_24
REMARK    4  A    between atoms: C_7  and  C_13
REMARK    5  A    between atoms: C_8  and  C_14
REMARK                            x       y       z     vdW  Elec       q    Type
REMARK                         _______ _______ _______ _____ _____    ______ ____
ROOT
ATOM      2  N   UNL     1       0.410  -1.683   1.317  0.00  0.00    -0.298 NA
ATOM      6  C   UNL     1       1.101  -1.731  -1.190  0.00  0.00    -0.002 C 
ATOM      7  C   UNL     1       2.193  -1.054  -0.330  0.00  0.00    +0.023 C 
ATOM      8  C   UNL     1      -0.677  -1.110   0.478  0.00  0.00    +0.074 C 
ATOM      9  C   UNL     1      -0.234  -0.989  -0.997  0.00  0.00    +0.024 C 
ATOM     10  C   UNL     1       1.668  -0.923   1.118  0.00  0.00    +0.090 C 
ATOM     11  C   UNL     1       0.915  -3.156  -0.636  0.00  0.00    +0.019 C 
ATOM     12  C   UNL     1       0.639  -3.080   0.876  0.00  0.00    +0.085 C 
ENDROOT
BRANCH   7  13
ATOM     13  C   UNL     1       2.649   0.293  -0.887  0.00  0.00    +0.110 C 
BRANCH  13   3
ATOM      3  N   UNL     1       3.720   0.817  -0.077  0.00  0.00    -0.329 N 
ATOM     15  C   UNL     1       3.639   2.116   0.587  0.00  0.00    +0.110 C 
ATOM     16  C   UNL     1       5.064   0.559  -0.303  0.00  0.00    +0.033 A 
ATOM     17  C   UNL     1       5.029   2.387   1.196  0.00  0.00    +0.056 C 
ATOM     18  C   UNL     1       5.883   1.451   0.403  0.00  0.00    -0.025 A 
ATOM     19  C   UNL     1       5.640  -0.428  -1.088  0.00  0.00    +0.023 A 
ATOM     21  C   UNL     1       7.264   1.380   0.351  0.00  0.00    +0.005 A 
ATOM     22  C   UNL     1       7.035  -0.507  -1.159  0.00  0.00    +0.002 A 
ATOM     23  C   UNL     1       7.841   0.391  -0.444  0.00  0.00    +0.000 A 
ENDBRANCH  13   3
ENDBRANCH   7  13
BRANCH   8  14
ATOM     14  C   UNL     1      -1.198   0.221   1.026  0.00  0.00    +0.124 C 
BRANCH  14   4
ATOM      1  O   UNL     1      -3.943  -0.408   1.549  0.00  0.00    -0.253 OA
ATOM      4  N   UNL     1      -2.338   0.645   0.260  0.00  0.00    -0.298 N 
ATOM      5  N   UNL     1      -4.551   0.849  -0.338  0.00  0.00    -0.269 N 
ATOM     20  C   UNL     1      -3.657   0.294   0.582  0.00  0.00    +0.304 C 
ATOM     30  H   UNL     1      -2.178   1.228  -0.556  0.00  0.00    +0.150 HD
ATOM     31  H   UNL     1      -4.147   1.409  -1.086  0.00  0.00    +0.156 HD
BRANCH   5  24
ATOM     24  C   UNL     1      -5.960   0.729  -0.361  0.00  0.00    +0.035 A 
ATOM     25  C   UNL     1      -6.697   1.357  -1.364  0.00  0.00    +0.023 A 
ATOM     26  C   UNL     1      -6.612  -0.017   0.621  0.00  0.00    +0.023 A 
ATOM     27  C   UNL     1      -8.087   1.239  -1.386  0.00  0.00    +0.002 A 
ATOM     28  C   UNL     1      -8.001  -0.135   0.599  0.00  0.00    +0.002 A 
ATOM     29  C   UNL     1      -8.739   0.493  -0.405  0.00  0.00    +0.000 A 
ENDBRANCH   5  24
ENDBRANCH  14   4
ENDBRANCH   8  14
TORSDOF 5
