REMARK  Name = 56775547
REMARK  10 active torsions:
REMARK  status: ('A' for Active; 'I' for Inactive)
REMARK    1  A    between atoms: O_3  and  C_16
REMARK    2  A    between atoms: O_3  and  C_22
REMARK    3  A    between atoms: O_4  and  C_18
REMARK    4  A    between atoms: O_4  and  C_23
REMARK    5  A    between atoms: N_5  and  C_7
REMARK    6  A    between atoms: N_5  and  C_11
REMARK    7  A    between atoms: C_7  and  C_10
REMARK    8  A    between atoms: C_10  and  C_12
REMARK    9  A    between atoms: C_11  and  C_13
REMARK   10  A    between atoms: C_15  and  C_18
REMARK                            x       y       z     vdW  Elec       q    Type
REMARK                         _______ _______ _______ _____ _____    ______ ____
ROOT
ATOM      1  O   UNL     1       0.800  -3.943   0.928  0.00  0.00    -0.376 OA
ATOM      7  C   UNL     1       0.146  -2.187  -0.095  0.00  0.00    +0.072 C 
ATOM      8  C   UNL     1      -0.230  -2.957   1.167  0.00  0.00    +0.184 C 
ATOM      9  C   UNL     1       1.144  -3.315  -0.328  0.00  0.00    +0.184 C 
ENDROOT
BRANCH   7   5
ATOM      5  N   UNL     1       0.879  -0.979   0.291  0.00  0.00    -0.302 NA
ATOM     24  H   UNL     1       0.315  -0.219   0.665  0.00  0.00    +0.123 HD
BRANCH   5  11
ATOM     11  C   UNL     1       1.671  -0.514  -0.848  0.00  0.00    +0.120 C 
BRANCH  11  13
ATOM     13  C   UNL     1       2.844   0.307  -0.425  0.00  0.00    +0.008 A 
ATOM     16  C   UNL     1       2.678   1.629  -0.013  0.00  0.00    +0.124 A 
ATOM     17  C   UNL     1       4.118  -0.261  -0.447  0.00  0.00    +0.008 A 
ATOM     19  C   UNL     1       3.784   2.382   0.379  0.00  0.00    +0.046 A 
ATOM     20  C   UNL     1       5.225   0.492  -0.056  0.00  0.00    +0.001 A 
ATOM     21  C   UNL     1       5.058   1.814   0.357  0.00  0.00    +0.004 A 
BRANCH  16   3
ATOM      3  O   UNL     1       1.441   2.200   0.014  0.00  0.00    -0.495 OA
ATOM     22  C   UNL     1       1.363   3.556   0.450  0.00  0.00    +0.277 C 
ENDBRANCH  16   3
ENDBRANCH  11  13
ENDBRANCH   5  11
ENDBRANCH   7   5
BRANCH   7  10
ATOM     10  C   UNL     1      -0.909  -1.925  -1.126  0.00  0.00    +0.085 C 
BRANCH  10  12
ATOM      2  O   UNL     1      -3.929  -0.724   0.452  0.00  0.00    -0.357 OA
ATOM      6  N   UNL     1      -3.087  -1.742   0.022  0.00  0.00    -0.083 NA
ATOM     12  C   UNL     1      -2.047  -1.117  -0.538  0.00  0.00    +0.086 A 
ATOM     14  C   UNL     1      -2.177   0.282  -0.492  0.00  0.00    +0.073 A 
ATOM     15  C   UNL     1      -3.377   0.477   0.140  0.00  0.00    +0.163 A 
BRANCH  15  18
ATOM     18  C   UNL     1      -4.140   1.669   0.525  0.00  0.00    +0.236 C 
BRANCH  18   4
ATOM      4  O   UNL     1      -5.251   1.853  -0.356  0.00  0.00    -0.375 OA
ATOM     23  C   UNL     1      -6.003   3.002  -0.001  0.00  0.00    +0.194 C 
ENDBRANCH  18   4
ENDBRANCH  15  18
ENDBRANCH  10  12
ENDBRANCH   7  10
TORSDOF 8
