REMARK  Name = 11884513
REMARK  8 active torsions:
REMARK  status: ('A' for Active; 'I' for Inactive)
REMARK    1  A    between atoms: O_6  and  C_22
REMARK    2  A    between atoms: O_6  and  C_33
REMARK    3  A    between atoms: O_7  and  C_34
REMARK    4  A    between atoms: N_10  and  C_18
REMARK    5  A    between atoms: N_11  and  C_20
REMARK    6  A    between atoms: C_18  and  C_21
REMARK    7  A    between atoms: C_19  and  C_22
REMARK    8  A    between atoms: C_33  and  C_34
REMARK                            x       y       z     vdW  Elec       q    Type
REMARK                         _______ _______ _______ _____ _____    ______ ____
ROOT
ATOM      3  O   UNL     1      -0.672  -1.877  -0.072  0.00  0.00    -0.273 OA
ATOM      4  O   UNL     1       3.427   0.370   0.330  0.00  0.00    -0.252 OA
ATOM      5  O   UNL     1      -3.089  -0.286  -1.219  0.00  0.00    -0.273 OA
ATOM      9  N   UNL     1      -1.982   0.351   0.710  0.00  0.00    -0.286 N 
ATOM     10  N   UNL     1       1.480   1.432   0.939  0.00  0.00    -0.275 N 
ATOM     11  N   UNL     1       1.419  -0.822   0.139  0.00  0.00    -0.192 N 
ATOM     12  C   UNL     1       0.041   1.446   1.068  0.00  0.00    +0.109 C 
ATOM     13  C   UNL     1      -0.659   0.512   0.104  0.00  0.00    +0.183 C 
ATOM     14  C   UNL     1      -0.488   0.996   2.432  0.00  0.00    +0.044 C 
ATOM     15  C   UNL     1      -1.955   0.707   2.130  0.00  0.00    +0.110 C 
ATOM     16  C   UNL     1       0.006  -0.854   0.052  0.00  0.00    +0.250 C 
ATOM     17  C   UNL     1       2.200   0.325   0.475  0.00  0.00    +0.316 C 
ATOM     19  C   UNL     1      -3.107   0.008  -0.023  0.00  0.00    +0.242 C 
ENDROOT
BRANCH  11  20
ATOM      1 CL   UNL     1       5.533  -3.793   1.015  0.00  0.00    -0.081 Cl
ATOM      2  F   UNL     1       4.137  -5.565  -0.909  0.00  0.00    -0.204 F 
ATOM     20  C   UNL     1       2.130  -2.057  -0.130  0.00  0.00    +0.047 A 
ATOM     23  C   UNL     1       3.343  -2.298   0.499  0.00  0.00    +0.047 A 
ATOM     24  C   UNL     1       1.587  -2.979  -1.014  0.00  0.00    +0.027 A 
ATOM     27  C   UNL     1       4.027  -3.485   0.239  0.00  0.00    +0.078 A 
ATOM     28  C   UNL     1       2.271  -4.166  -1.275  0.00  0.00    +0.041 A 
ATOM     31  C   UNL     1       3.491  -4.419  -0.648  0.00  0.00    +0.142 A 
ENDBRANCH  11  20
BRANCH  10  18
ATOM     18  C   UNL     1       2.180   2.638   1.370  0.00  0.00    +0.144 C 
BRANCH  18  21
ATOM     21  C   UNL     1       2.385   3.603   0.239  0.00  0.00    -0.030 A 
ATOM     25  C   UNL     1       3.538   3.521  -0.534  0.00  0.00    +0.005 A 
ATOM     26  C   UNL     1       1.421   4.569  -0.025  0.00  0.00    +0.005 A 
ATOM     29  C   UNL     1       3.728   4.418  -1.585  0.00  0.00    +0.000 A 
ATOM     30  C   UNL     1       1.611   5.465  -1.076  0.00  0.00    +0.000 A 
ATOM     32  C   UNL     1       2.765   5.390  -1.856  0.00  0.00    +0.000 A 
ENDBRANCH  18  21
ENDBRANCH  10  18
BRANCH  19  22
ATOM     22  C   UNL     1      -4.404   0.004   0.745  0.00  0.00    +0.256 C 
BRANCH  22   6
ATOM      6  O   UNL     1      -5.415  -0.330  -0.175  0.00  0.00    -0.359 OA
BRANCH   6  33
ATOM     33  C   UNL     1      -6.704  -0.367   0.435  0.00  0.00    +0.280 C 
BRANCH  33  34
ATOM      8  O   UNL     1      -7.534  -0.934  -1.777  0.00  0.00    -0.248 OA
ATOM     34  C   UNL     1      -7.742  -0.728  -0.591  0.00  0.00    +0.331 C 
BRANCH  34   7
ATOM      7  O   UNL     1      -8.968  -0.796  -0.013  0.00  0.00    -0.479 OA
ATOM     35  H   UNL     1      -9.666  -1.030  -0.662  0.00  0.00    +0.295 HD
ENDBRANCH  34   7
ENDBRANCH  33  34
ENDBRANCH   6  33
ENDBRANCH  22   6
ENDBRANCH  19  22
TORSDOF 8
