REMARK  Name = 40777872
REMARK  7 active torsions:
REMARK  status: ('A' for Active; 'I' for Inactive)
REMARK    1  A    between atoms: O_4  and  C_11
REMARK    2  A    between atoms: O_5  and  C_12
REMARK    3  A    between atoms: N_9  and  C_15
REMARK    4  A    between atoms: C_10  and  C_14
REMARK    5  A    between atoms: C_13  and  C_15
REMARK    6  A    between atoms: C_14  and  C_16
REMARK    7  A    between atoms: C_23  and  C_26
REMARK                            x       y       z     vdW  Elec       q    Type
REMARK                         _______ _______ _______ _____ _____    ______ ____
ROOT
ATOM      3  O   UNL     1       2.905   0.529  -0.928  0.00  0.00    -0.366 OA
ATOM     10  C   UNL     1       2.760   1.681  -0.067  0.00  0.00    +0.159 C 
ATOM     11  C   UNL     1       4.019   1.738   0.790  0.00  0.00    +0.175 C 
ATOM     12  C   UNL     1       4.417   0.278   0.864  0.00  0.00    +0.176 C 
ATOM     13  C   UNL     1       4.083  -0.199  -0.540  0.00  0.00    +0.167 C 
ENDROOT
BRANCH  11   4
ATOM      4  O   UNL     1       5.006   2.485   0.079  0.00  0.00    -0.387 OA
ATOM     32  H   UNL     1       4.698   3.406   0.036  0.00  0.00    +0.210 HD
ENDBRANCH  11   4
BRANCH  12   5
ATOM      5  O   UNL     1       5.779   0.085   1.179  0.00  0.00    -0.387 OA
ATOM     33  H   UNL     1       5.944   0.518   2.034  0.00  0.00    +0.210 HD
ENDBRANCH  12   5
BRANCH  10  14
ATOM     14  C   UNL     1       1.490   1.494   0.751  0.00  0.00    +0.130 C 
BRANCH  14  16
ATOM      6  O   UNL     1       0.442   2.179  -1.261  0.00  0.00    -0.275 OA
ATOM      8  N   UNL     1      -0.940   1.639   0.540  0.00  0.00    -0.271 N 
ATOM     16  C   UNL     1       0.281   1.808  -0.099  0.00  0.00    +0.222 C 
ATOM     17  C   UNL     1      -1.131   1.193   1.937  0.00  0.00    +0.118 C 
ATOM     18  C   UNL     1      -2.210   1.864  -0.030  0.00  0.00    +0.039 A 
ATOM     19  C   UNL     1      -2.638   1.144   2.210  0.00  0.00    +0.056 C 
ATOM     20  C   UNL     1      -3.210   1.590   0.905  0.00  0.00    -0.024 A 
ATOM     21  C   UNL     1      -2.538   2.292  -1.309  0.00  0.00    +0.024 A 
ATOM     22  C   UNL     1      -4.553   1.734   0.589  0.00  0.00    +0.005 A 
ATOM     24  C   UNL     1      -3.889   2.440  -1.636  0.00  0.00    +0.002 A 
ATOM     25  C   UNL     1      -4.890   2.163  -0.695  0.00  0.00    +0.000 A 
ENDBRANCH  14  16
ENDBRANCH  10  14
BRANCH  13  15
ATOM     15  C   UNL     1       3.813  -1.691  -0.620  0.00  0.00    +0.138 C 
BRANCH  15   9
ATOM      7  O   UNL     1       1.458  -1.806  -2.260  0.00  0.00    -0.270 OA
ATOM      9  N   UNL     1       2.482  -2.000  -0.187  0.00  0.00    -0.309 N 
ATOM     23  C   UNL     1       1.394  -2.033  -1.055  0.00  0.00    +0.244 C 
ATOM     34  H   UNL     1       2.348  -2.131   0.810  0.00  0.00    +0.149 HD
BRANCH  23  26
ATOM      1 CL   UNL     1      -3.777  -1.581  -1.200  0.00  0.00    -0.081 Cl
ATOM      2  F   UNL     1      -3.582  -3.215   1.267  0.00  0.00    -0.204 F 
ATOM     26  C   UNL     1       0.076  -2.344  -0.444  0.00  0.00    +0.038 A 
ATOM     27  C   UNL     1      -1.096  -1.873  -1.037  0.00  0.00    +0.036 A 
ATOM     28  C   UNL     1       0.009  -3.106   0.722  0.00  0.00    +0.016 A 
ATOM     29  C   UNL     1      -2.334  -2.165  -0.464  0.00  0.00    +0.077 A 
ATOM     30  C   UNL     1      -1.228  -3.397   1.296  0.00  0.00    +0.040 A 
ATOM     31  C   UNL     1      -2.400  -2.927   0.703  0.00  0.00    +0.142 A 
ENDBRANCH  23  26
ENDBRANCH  15   9
ENDBRANCH  13  15
TORSDOF 7
