REMARK  Name = 9421697
REMARK  4 active torsions:
REMARK  status: ('A' for Active; 'I' for Inactive)
REMARK    1  A    between atoms: O_3  and  C_29
REMARK    2  A    between atoms: O_3  and  C_30
REMARK    3  A    between atoms: C_13  and  C_14
REMARK    4  A    between atoms: C_23  and  C_24
REMARK                            x       y       z     vdW  Elec       q    Type
REMARK                         _______ _______ _______ _____ _____    ______ ____
ROOT
ATOM      1  O   UNL     1      -2.062  -2.155   1.537  0.00  0.00    -0.267 OA
ATOM      2  O   UNL     1       2.756  -0.531   2.458  0.00  0.00    -0.270 OA
ATOM      4  N   UNL     1      -0.348  -2.185  -0.047  0.00  0.00    -0.312 N 
ATOM      5  N   UNL     1       2.717  -1.452   0.307  0.00  0.00    -0.297 N 
ATOM      6  C   UNL     1       1.696  -3.716   0.158  0.00  0.00    +0.027 C 
ATOM      7  C   UNL     1       1.513  -2.165  -1.745  0.00  0.00    +0.054 C 
ATOM      8  C   UNL     1       1.738  -3.627  -1.364  0.00  0.00    +0.018 C 
ATOM      9  C   UNL     1       0.295  -3.316   0.637  0.00  0.00    +0.130 C 
ATOM     10  C   UNL     1       2.795  -2.834   0.778  0.00  0.00    +0.113 C 
ATOM     11  C   UNL     1       2.643  -1.298  -1.155  0.00  0.00    +0.117 C 
ATOM     12  C   UNL     1       0.172  -1.669  -1.237  0.00  0.00    +0.027 A 
ATOM     14  C   UNL     1      -2.264  -0.629  -0.255  0.00  0.00    +0.020 A 
ATOM     15  C   UNL     1      -1.560  -1.719   0.501  0.00  0.00    +0.255 A 
ATOM     16  C   UNL     1      -0.494  -0.713  -1.905  0.00  0.00    +0.022 A 
ATOM     19  C   UNL     1      -1.730  -0.188  -1.401  0.00  0.00    +0.011 A 
ATOM     23  C   UNL     1       2.695  -0.409   1.235  0.00  0.00    +0.247 C 
ENDROOT
BRANCH  14  13
ATOM     13  C   UNL     1      -3.545  -0.097   0.315  0.00  0.00    +0.024 C 
ATOM     17  C   UNL     1      -4.717  -0.353  -0.644  0.00  0.00    +0.008 C 
ATOM     18  C   UNL     1      -3.421   1.399   0.635  0.00  0.00    +0.008 C 
ATOM     20  C   UNL     1      -6.024   0.224  -0.105  0.00  0.00    +0.001 C 
ATOM     21  C   UNL     1      -4.731   1.973   1.170  0.00  0.00    +0.001 C 
ATOM     22  C   UNL     1      -5.893   1.708   0.218  0.00  0.00    +0.000 C 
ENDBRANCH  14  13
BRANCH  23  24
ATOM     24  C   UNL     1       2.568   0.961   0.727  0.00  0.00    +0.037 A 
ATOM     25  C   UNL     1       1.304   1.521   0.555  0.00  0.00    +0.016 A 
ATOM     26  C   UNL     1       3.710   1.696   0.420  0.00  0.00    +0.016 A 
ATOM     27  C   UNL     1       1.183   2.825   0.072  0.00  0.00    +0.046 A 
ATOM     28  C   UNL     1       3.589   2.999  -0.063  0.00  0.00    +0.046 A 
ATOM     29  C   UNL     1       2.325   3.563  -0.237  0.00  0.00    +0.120 A 
BRANCH  29   3
ATOM      3  O   UNL     1       2.207   4.835  -0.706  0.00  0.00    -0.495 OA
ATOM     30  C   UNL     1       0.885   5.351  -0.858  0.00  0.00    +0.277 C 
ENDBRANCH  29   3
ENDBRANCH  23  24
TORSDOF 3
