REMARK  Name = 11887353
REMARK  3 active torsions:
REMARK  status: ('A' for Active; 'I' for Inactive)
REMARK    1  A    between atoms: N_7  and  C_18
REMARK    2  A    between atoms: C_17  and  C_20
REMARK    3  A    between atoms: C_23  and  C_27
REMARK                            x       y       z     vdW  Elec       q    Type
REMARK                         _______ _______ _______ _____ _____    ______ ____
ROOT
ATOM      2  O   UNL     1       0.927   2.535   1.278  0.00  0.00    -0.266 OA
ATOM      3  O   UNL     1      -3.235  -0.238   2.602  0.00  0.00    -0.270 OA
ATOM      5  N   UNL     1      -3.636   0.680   0.488  0.00  0.00    -0.297 N 
ATOM      6  N   UNL     1      -0.895   2.151  -0.132  0.00  0.00    -0.310 N 
ATOM      8  C   UNL     1      -3.221   3.127   0.314  0.00  0.00    +0.027 C 
ATOM      9  C   UNL     1      -2.855   1.683  -1.645  0.00  0.00    +0.054 C 
ATOM     10  C   UNL     1      -3.392   3.042  -1.198  0.00  0.00    +0.018 C 
ATOM     11  C   UNL     1      -4.003   1.997   1.008  0.00  0.00    +0.113 C 
ATOM     12  C   UNL     1      -1.724   3.082   0.646  0.00  0.00    +0.130 C 
ATOM     13  C   UNL     1      -3.674   0.559  -0.979  0.00  0.00    +0.117 C 
ATOM     14  C   UNL     1      -1.389   1.530  -1.284  0.00  0.00    +0.027 A 
ATOM     15  C   UNL     1      -0.581   0.774  -2.045  0.00  0.00    +0.024 A 
ATOM     16  C   UNL     1       0.443   1.996   0.282  0.00  0.00    +0.273 A 
ATOM     17  C   UNL     1      -3.268  -0.333   1.377  0.00  0.00    +0.247 C 
ATOM     18  C   UNL     1       1.304   1.123  -0.578  0.00  0.00    +0.099 A 
ATOM     19  C   UNL     1       0.793   0.567  -1.681  0.00  0.00    +0.030 A 
ENDROOT
BRANCH  17  20
ATOM      1  F   UNL     1      -1.726  -5.264  -0.759  0.00  0.00    -0.205 F 
ATOM     20  C   UNL     1      -2.864  -1.626   0.816  0.00  0.00    +0.037 A 
ATOM     21  C   UNL     1      -1.526  -1.859   0.506  0.00  0.00    +0.016 A 
ATOM     22  C   UNL     1      -3.819  -2.615   0.596  0.00  0.00    +0.016 A 
ATOM     24  C   UNL     1      -1.141  -3.090  -0.026  0.00  0.00    +0.039 A 
ATOM     25  C   UNL     1      -3.434  -3.846   0.064  0.00  0.00    +0.039 A 
ATOM     26  C   UNL     1      -2.095  -4.083  -0.247  0.00  0.00    +0.123 A 
ENDBRANCH  17  20
BRANCH  18   7
ATOM      4  O   UNL     1       2.904  -1.172  -1.144  0.00  0.00    -0.270 OA
ATOM      7  N   UNL     1       2.601   0.933  -0.201  0.00  0.00    -0.277 N 
ATOM     23  C   UNL     1       3.327  -0.209  -0.508  0.00  0.00    +0.248 C 
ATOM     33  H   UNL     1       2.964   1.619   0.452  0.00  0.00    +0.155 HD
BRANCH  23  27
ATOM     27  C   UNL     1       4.734  -0.226  -0.031  0.00  0.00    +0.037 A 
ATOM     28  C   UNL     1       5.662  -0.981  -0.718  0.00  0.00    +0.013 A 
ATOM     29  C   UNL     1       5.068   0.515   1.084  0.00  0.00    +0.013 A 
ATOM     30  C   UNL     1       6.983  -0.996  -0.270  0.00  0.00    +0.001 A 
ATOM     31  C   UNL     1       6.389   0.499   1.532  0.00  0.00    +0.001 A 
ATOM     32  C   UNL     1       7.346  -0.256   0.855  0.00  0.00    +0.000 A 
ENDBRANCH  23  27
ENDBRANCH  18   7
TORSDOF 3
