REMARK  Name = 51138037
REMARK  10 active torsions:
REMARK  status: ('A' for Active; 'I' for Inactive)
REMARK    1  A    between atoms: N_4  and  C_21
REMARK    2  A    between atoms: N_5  and  C_25
REMARK    3  A    between atoms: N_6  and  C_26
REMARK    4  A    between atoms: C_8  and  C_14
REMARK    5  A    between atoms: C_9  and  C_19
REMARK    6  A    between atoms: C_14  and  C_16
REMARK    7  A    between atoms: C_16  and  C_23
REMARK    8  A    between atoms: C_16  and  C_24
REMARK    9  A    between atoms: C_21  and  C_27
REMARK   10  A    between atoms: C_25  and  C_26
REMARK                            x       y       z     vdW  Elec       q    Type
REMARK                         _______ _______ _______ _____ _____    ______ ____
ROOT
ATOM      3  N   UNL     1       0.731  -0.691   0.237  0.00  0.00    -0.299 NA
ATOM      4  N   UNL     1      -3.884   0.938  -1.008  0.00  0.00    -0.342 N 
ATOM      8  C   UNL     1       0.019  -1.868  -0.278  0.00  0.00    +0.085 C 
ATOM      9  C   UNL     1       0.784   0.437  -0.682  0.00  0.00    +0.145 C 
ATOM     10  C   UNL     1      -1.475  -1.677  -0.556  0.00  0.00    -0.021 A 
ATOM     11  C   UNL     1      -2.132  -0.419  -0.683  0.00  0.00    +0.008 A 
ATOM     12  C   UNL     1      -0.311   1.458  -0.381  0.00  0.00    +0.065 C 
ATOM     13  C   UNL     1      -1.694   0.949  -0.619  0.00  0.00    -0.020 A 
ATOM     15  C   UNL     1      -3.505  -0.383  -0.953  0.00  0.00    +0.050 A 
ATOM     17  C   UNL     1      -2.803   1.746  -0.815  0.00  0.00    +0.091 A 
ATOM     18  C   UNL     1      -2.275  -2.826  -0.786  0.00  0.00    +0.006 A 
ATOM     20  C   UNL     1      -4.285  -1.527  -1.130  0.00  0.00    +0.026 A 
ATOM     22  C   UNL     1      -3.640  -2.755  -1.054  0.00  0.00    +0.002 A 
ATOM     36  H   UNL     1       0.362  -0.410   1.144  0.00  0.00    +0.123 HD
ENDROOT
BRANCH   9  19
ATOM      1  O   UNL     1       2.280   1.968   0.375  0.00  0.00    -0.274 OA
ATOM      5  N   UNL     1       3.103   0.542  -1.271  0.00  0.00    -0.313 N 
ATOM     19  C   UNL     1       2.122   1.071  -0.449  0.00  0.00    +0.230 C 
ATOM     37  H   UNL     1       2.866  -0.212  -1.909  0.00  0.00    +0.149 HD
BRANCH   5  25
ATOM     25  C   UNL     1       4.474   0.997  -1.259  0.00  0.00    +0.119 C 
BRANCH  25  26
ATOM     26  C   UNL     1       5.308   0.205  -0.263  0.00  0.00    +0.103 C 
BRANCH  26   6
ATOM      2  O   UNL     1       9.093   1.446   1.060  0.00  0.00    -0.377 OA
ATOM      6  N   UNL     1       6.688   0.687  -0.260  0.00  0.00    -0.297 NA
ATOM     28  C   UNL     1       7.588  -0.313   0.332  0.00  0.00    +0.112 C 
ATOM     29  C   UNL     1       6.795   1.957   0.472  0.00  0.00    +0.112 C 
ATOM     30  C   UNL     1       9.019   0.217   0.336  0.00  0.00    +0.175 C 
ATOM     31  C   UNL     1       8.245   2.433   0.472  0.00  0.00    +0.175 C 
ENDBRANCH  26   6
ENDBRANCH  25  26
ENDBRANCH   5  25
ENDBRANCH   9  19
BRANCH   8  14
ATOM     14  C   UNL     1       0.289  -2.971   0.761  0.00  0.00    +0.026 C 
BRANCH  14  16
ATOM     16  C   UNL     1       1.697  -3.566   0.649  0.00  0.00    -0.015 C 
ATOM     23  C   UNL     1       2.796  -2.522   0.851  0.00  0.00    +0.007 C 
ATOM     24  C   UNL     1       1.854  -4.688   1.679  0.00  0.00    +0.007 C 
ENDBRANCH  14  16
ENDBRANCH   8  14
BRANCH   4  21
ATOM     21  C   UNL     1      -5.226   1.420  -1.255  0.00  0.00    +0.157 C 
BRANCH  21  27
ATOM      7  N   UNL     1      -7.772   1.227   2.209  0.00  0.00    -0.263 NA
ATOM     27  C   UNL     1      -6.119   1.352  -0.041  0.00  0.00    -0.025 A 
ATOM     32  C   UNL     1      -7.311   0.638  -0.090  0.00  0.00    +0.025 A 
ATOM     33  C   UNL     1      -5.752   2.002   1.132  0.00  0.00    +0.025 A 
ATOM     34  C   UNL     1      -8.095   0.607   1.052  0.00  0.00    +0.111 A 
ATOM     35  C   UNL     1      -6.606   1.910   2.219  0.00  0.00    +0.111 A 
ENDBRANCH  21  27
ENDBRANCH   4  21
TORSDOF 8
