REMARK  Name = 45783477
REMARK  9 active torsions:
REMARK  status: ('A' for Active; 'I' for Inactive)
REMARK    1  A    between atoms: O_3  and  C_28
REMARK    2  A    between atoms: O_3  and  C_29
REMARK    3  A    between atoms: N_4  and  C_13
REMARK    4  A    between atoms: N_8  and  C_26
REMARK    5  A    between atoms: N_8  and  C_27
REMARK    6  A    between atoms: C_9  and  C_14
REMARK    7  A    between atoms: C_13  and  C_15
REMARK    8  A    between atoms: C_18  and  C_21
REMARK    9  A    between atoms: C_27  and  C_28
REMARK                            x       y       z     vdW  Elec       q    Type
REMARK                         _______ _______ _______ _____ _____    ______ ____
ROOT
ATOM      2  O   UNL     1      -2.158   0.626  -2.091  0.00  0.00    -0.336 OA
ATOM      5  N   UNL     1      -1.139   1.201  -0.181  0.00  0.00    -0.190 NA
ATOM      6  N   UNL     1      -0.793   0.376  -2.287  0.00  0.00    -0.056 NA
ATOM     14  C   UNL     1      -2.274   1.109  -0.827  0.00  0.00    +0.245 A 
ATOM     18  C   UNL     1      -0.260   0.740  -1.117  0.00  0.00    +0.204 A 
ENDROOT
BRANCH  18  21
ATOM      7  N   UNL     1       3.365   0.082  -1.627  0.00  0.00    -0.240 NA
ATOM     21  C   UNL     1       1.148   0.656  -0.853  0.00  0.00    +0.041 A 
ATOM     23  C   UNL     1       1.670   1.045   0.376  0.00  0.00    +0.016 A 
ATOM     24  C   UNL     1       2.029   0.186  -1.812  0.00  0.00    +0.124 A 
ATOM     25  C   UNL     1       3.038   0.953   0.604  0.00  0.00    +0.044 A 
ATOM     26  C   UNL     1       3.836   0.469  -0.420  0.00  0.00    +0.119 A 
BRANCH  26   8
ATOM      8  N   UNL     1       5.228   0.382  -0.173  0.00  0.00    -0.327 N 
ATOM     30  H   UNL     1       5.800   0.024  -0.929  0.00  0.00    +0.148 HD
BRANCH   8  27
ATOM     27  C   UNL     1       5.816   0.768   1.068  0.00  0.00    +0.131 C 
BRANCH  27  28
ATOM     28  C   UNL     1       7.323   0.590   1.008  0.00  0.00    +0.178 C 
BRANCH  28   3
ATOM      3  O   UNL     1       7.629  -0.781   0.785  0.00  0.00    -0.381 OA
ATOM     29  C   UNL     1       9.032  -0.999   0.727  0.00  0.00    +0.194 C 
ENDBRANCH  28   3
ENDBRANCH  27  28
ENDBRANCH   8  27
ENDBRANCH  26   8
ENDBRANCH  18  21
BRANCH  14   9
ATOM      4  N   UNL     1      -4.067   0.732   0.857  0.00  0.00    -0.287 NA
ATOM      9  C   UNL     1      -3.673   1.461  -0.365  0.00  0.00    +0.146 C 
ATOM     10  C   UNL     1      -3.821   2.949   0.003  0.00  0.00    +0.030 C 
ATOM     11  C   UNL     1      -4.360   2.955   1.426  0.00  0.00    +0.017 C 
ATOM     12  C   UNL     1      -5.012   1.594   1.566  0.00  0.00    +0.085 C 
BRANCH   4  13
ATOM     13  C   UNL     1      -4.626  -0.586   0.584  0.00  0.00    +0.123 C 
BRANCH  13  15
ATOM      1  F   UNL     1      -2.577  -1.210   2.437  0.00  0.00    -0.205 F 
ATOM     15  C   UNL     1      -3.552  -1.605   0.309  0.00  0.00    +0.002 A 
ATOM     16  C   UNL     1      -2.572  -1.864   1.267  0.00  0.00    +0.128 A 
ATOM     17  C   UNL     1      -3.539  -2.291  -0.905  0.00  0.00    +0.008 A 
ATOM     19  C   UNL     1      -1.578  -2.808   1.010  0.00  0.00    +0.038 A 
ATOM     20  C   UNL     1      -2.546  -3.235  -1.163  0.00  0.00    +0.000 A 
ATOM     22  C   UNL     1      -1.565  -3.494  -0.205  0.00  0.00    +0.003 A 
ENDBRANCH  13  15
ENDBRANCH   4  13
ENDBRANCH  14   9
TORSDOF 8
