REMARK  Name = 51136978
REMARK  9 active torsions:
REMARK  status: ('A' for Active; 'I' for Inactive)
REMARK    1  A    between atoms: O_6  and  C_14
REMARK    2  A    between atoms: O_7  and  C_21
REMARK    3  A    between atoms: N_9  and  C_12
REMARK    4  A    between atoms: N_10  and  C_22
REMARK    5  A    between atoms: N_11  and  C_18
REMARK    6  A    between atoms: C_13  and  C_18
REMARK    7  A    between atoms: C_15  and  C_21
REMARK    8  A    between atoms: C_24  and  C_28
REMARK    9  A    between atoms: C_26  and  C_30
REMARK                            x       y       z     vdW  Elec       q    Type
REMARK                         _______ _______ _______ _____ _____    ______ ____
ROOT
ATOM      5  O   UNL     1      -2.958  -1.550   0.924  0.00  0.00    -0.365 OA
ATOM     12  C   UNL     1      -0.594  -1.743   0.725  0.00  0.00    +0.118 C 
ATOM     13  C   UNL     1      -1.762  -0.751   0.783  0.00  0.00    +0.155 C 
ATOM     14  C   UNL     1      -1.244  -3.009   0.188  0.00  0.00    +0.165 C 
ATOM     15  C   UNL     1      -2.599  -2.945   0.884  0.00  0.00    +0.174 C 
ENDROOT
BRANCH  12   9
ATOM      9  N   UNL     1       0.589  -1.301   0.006  0.00  0.00    -0.292 NA
ATOM     10  N   UNL     1       3.349  -0.643  -0.318  0.00  0.00    -0.327 N 
ATOM     16  C   UNL     1       1.138  -0.084   0.617  0.00  0.00    +0.104 C 
ATOM     17  C   UNL     1       1.608  -2.357  -0.007  0.00  0.00    +0.104 C 
ATOM     19  C   UNL     1       2.351   0.424  -0.166  0.00  0.00    +0.120 C 
ATOM     20  C   UNL     1       2.837  -1.925  -0.810  0.00  0.00    +0.120 C 
BRANCH  10  22
ATOM     22  C   UNL     1       4.671  -0.272  -0.590  0.00  0.00    +0.030 A 
ATOM     23  C   UNL     1       5.368   0.536   0.309  0.00  0.00    +0.035 A 
ATOM     25  C   UNL     1       5.291  -0.710  -1.760  0.00  0.00    +0.023 A 
ATOM     26  C   UNL     1       6.685   0.905   0.037  0.00  0.00    +0.057 A 
ATOM     27  C   UNL     1       6.608  -0.340  -2.031  0.00  0.00    +0.002 A 
ATOM     29  C   UNL     1       7.305   0.467  -1.133  0.00  0.00    +0.012 A 
BRANCH  26  30
ATOM      2  F   UNL     1       8.703   2.037   0.584  0.00  0.00    -0.166 F 
ATOM      3  F   UNL     1       6.848   2.987   1.204  0.00  0.00    -0.166 F 
ATOM      4  F   UNL     1       7.558   1.220   2.242  0.00  0.00    -0.166 F 
ATOM     30  C   UNL     1       7.430   1.769   0.998  0.00  0.00    +0.417 C 
ENDBRANCH  26  30
ENDBRANCH  10  22
ENDBRANCH  12   9
BRANCH  14   6
ATOM      6  O   UNL     1      -1.409  -2.951  -1.223  0.00  0.00    -0.388 OA
ATOM     36  H   UNL     1      -1.727  -3.821  -1.518  0.00  0.00    +0.210 HD
ENDBRANCH  14   6
BRANCH  13  18
ATOM     18  C   UNL     1      -1.959   0.146  -0.434  0.00  0.00    +0.137 C 
BRANCH  18  11
ATOM      8  O   UNL     1      -4.683  -0.392  -1.163  0.00  0.00    -0.270 OA
ATOM     11  N   UNL     1      -3.080   1.019  -0.256  0.00  0.00    -0.309 N 
ATOM     24  C   UNL     1      -4.374   0.675  -0.640  0.00  0.00    +0.246 C 
ATOM     37  H   UNL     1      -2.916   1.922   0.180  0.00  0.00    +0.149 HD
BRANCH  24  28
ATOM      1 CL   UNL     1      -6.765  -0.073   1.167  0.00  0.00    -0.083 Cl
ATOM     28  C   UNL     1      -5.423   1.702  -0.411  0.00  0.00    +0.055 A 
ATOM     31  C   UNL     1      -6.537   1.452   0.390  0.00  0.00    +0.053 A 
ATOM     32  C   UNL     1      -5.269   2.945  -1.024  0.00  0.00    +0.014 A 
ATOM     33  C   UNL     1      -7.497   2.446   0.579  0.00  0.00    +0.021 A 
ATOM     34  C   UNL     1      -6.230   3.939  -0.836  0.00  0.00    +0.001 A 
ATOM     35  C   UNL     1      -7.344   3.690  -0.034  0.00  0.00    +0.001 A 
ENDBRANCH  24  28
ENDBRANCH  18  11
ENDBRANCH  13  18
BRANCH  15  21
ATOM     21  C   UNL     1      -3.713  -3.730   0.217  0.00  0.00    +0.190 C 
BRANCH  21   7
ATOM      7  O   UNL     1      -4.899  -3.583   0.981  0.00  0.00    -0.392 OA
ATOM     38  H   UNL     1      -5.594  -4.096   0.534  0.00  0.00    +0.210 HD
ENDBRANCH  21   7
ENDBRANCH  15  21
TORSDOF 9
