REMARK  Name = 51137098
REMARK  4 active torsions:
REMARK  status: ('A' for Active; 'I' for Inactive)
REMARK    1  A    between atoms: N_2  and  C_10
REMARK    2  A    between atoms: C_5  and  C_9
REMARK    3  A    between atoms: C_10  and  C_11
REMARK    4  A    between atoms: C_18  and  C_23
REMARK                            x       y       z     vdW  Elec       q    Type
REMARK                         _______ _______ _______ _____ _____    ______ ____
ROOT
ATOM      2  N   UNL     1      -1.681  -0.272  -0.130  0.00  0.00    -0.297 NA
ATOM      5  C   UNL     1       0.512  -0.745   0.552  0.00  0.00    +0.070 C 
ATOM      6  C   UNL     1      -0.204   0.066   1.646  0.00  0.00    +0.028 C 
ATOM      7  C   UNL     1      -0.364  -0.572  -0.696  0.00  0.00    +0.096 C 
ATOM      8  C   UNL     1      -1.419   0.672   0.956  0.00  0.00    +0.085 C 
ENDROOT
BRANCH   5   9
ATOM      3  N   UNL     1       2.966  -1.265   0.480  0.00  0.00    -0.342 N 
ATOM      4  N   UNL     1       2.403   0.819  -0.051  0.00  0.00    -0.232 NA
ATOM      9  C   UNL     1       1.954  -0.360   0.318  0.00  0.00    +0.113 A 
ATOM     12  C   UNL     1       4.147  -0.627   0.198  0.00  0.00    +0.066 A 
ATOM     13  C   UNL     1       3.769   0.672  -0.131  0.00  0.00    +0.089 A 
ATOM     14  C   UNL     1       5.473  -1.062   0.201  0.00  0.00    +0.031 A 
ATOM     15  C   UNL     1       4.759   1.606  -0.479  0.00  0.00    +0.030 A 
ATOM     18  C   UNL     1       6.445  -0.119  -0.148  0.00  0.00    -0.048 A 
ATOM     19  C   UNL     1       6.097   1.192  -0.482  0.00  0.00    +0.005 A 
ATOM     23  C   UNL     1       7.883  -0.523  -0.163  0.00  0.00    +0.044 C 
ATOM     24  H   UNL     1       2.866  -2.232   0.758  0.00  0.00    +0.167 HD
ENDBRANCH   5   9
BRANCH   2  10
ATOM     10  C   UNL     1      -2.602   0.265  -1.121  0.00  0.00    +0.119 C 
BRANCH  10  11
ATOM      1  F   UNL     1      -7.964  -0.127   0.566  0.00  0.00    -0.205 F 
ATOM     11  C   UNL     1      -4.035   0.161  -0.670  0.00  0.00    -0.033 A 
ATOM     16  C   UNL     1      -4.780  -0.978  -0.976  0.00  0.00    +0.008 A 
ATOM     17  C   UNL     1      -4.617   1.202   0.053  0.00  0.00    +0.008 A 
ATOM     20  C   UNL     1      -6.108  -1.075  -0.558  0.00  0.00    +0.038 A 
ATOM     21  C   UNL     1      -5.944   1.105   0.470  0.00  0.00    +0.038 A 
ATOM     22  C   UNL     1      -6.689  -0.034   0.165  0.00  0.00    +0.123 A 
ENDBRANCH  10  11
ENDBRANCH   2  10
TORSDOF 3
