REMARK  Name = 7143734
REMARK  2 active torsions:
REMARK  status: ('A' for Active; 'I' for Inactive)
REMARK    1  A    between atoms: C_16  and  C_19
REMARK    2  A    between atoms: C_17  and  C_20
REMARK                            x       y       z     vdW  Elec       q    Type
REMARK                         _______ _______ _______ _____ _____    ______ ____
ROOT
ATOM      2  O   UNL     1      -1.697  -1.519   1.569  0.00  0.00    -0.267 OA
ATOM      3  O   UNL     1       2.224   0.871   2.191  0.00  0.00    -0.267 OA
ATOM      5  N   UNL     1       3.042  -0.494   0.476  0.00  0.00    -0.294 N 
ATOM      6  N   UNL     1       0.144  -1.707   0.150  0.00  0.00    -0.311 N 
ATOM      7  C   UNL     1       2.326  -2.842   0.868  0.00  0.00    +0.027 C 
ATOM      8  C   UNL     1       2.135  -1.865  -1.384  0.00  0.00    +0.054 C 
ATOM      9  C   UNL     1       2.498  -3.137  -0.619  0.00  0.00    +0.018 C 
ATOM     10  C   UNL     1       3.250  -1.687   1.295  0.00  0.00    +0.113 C 
ATOM     11  C   UNL     1       0.849  -2.533   1.142  0.00  0.00    +0.130 C 
ATOM     12  C   UNL     1       3.091  -0.726  -0.977  0.00  0.00    +0.117 C 
ATOM     13  C   UNL     1       0.704  -1.449  -1.104  0.00  0.00    +0.027 A 
ATOM     14  C   UNL     1      -0.007  -0.798  -2.039  0.00  0.00    +0.022 A 
ATOM     15  C   UNL     1      -1.156  -1.283   0.487  0.00  0.00    +0.259 A 
ATOM     16  C   UNL     1       2.766   0.727   1.097  0.00  0.00    +0.282 C 
ATOM     17  C   UNL     1      -1.909  -0.514  -0.565  0.00  0.00    +0.047 A 
ATOM     18  C   UNL     1      -1.331  -0.321  -1.759  0.00  0.00    +0.015 A 
ENDROOT
BRANCH  17  20
ATOM      1 CL   UNL     1      -7.352   1.719   0.531  0.00  0.00    -0.084 Cl
ATOM     20  C   UNL     1      -3.249   0.035  -0.295  0.00  0.00    -0.013 A 
ATOM     22  C   UNL     1      -4.385  -0.725  -0.574  0.00  0.00    +0.010 A 
ATOM     23  C   UNL     1      -3.383   1.317   0.241  0.00  0.00    +0.010 A 
ATOM     26  C   UNL     1      -5.653  -0.205  -0.319  0.00  0.00    +0.020 A 
ATOM     27  C   UNL     1      -4.652   1.837   0.496  0.00  0.00    +0.020 A 
ATOM     28  C   UNL     1      -5.787   1.076   0.217  0.00  0.00    +0.041 A 
ENDBRANCH  17  20
BRANCH  16  19
ATOM      4  O   UNL     1       4.188   1.910  -0.451  0.00  0.00    -0.458 OA
ATOM     19  C   UNL     1       3.125   1.959   0.386  0.00  0.00    +0.189 A 
ATOM     21  C   UNL     1       2.566   3.208   0.406  0.00  0.00    +0.054 A 
ATOM     24  C   UNL     1       3.339   3.991  -0.484  0.00  0.00    +0.042 A 
ATOM     25  C   UNL     1       4.313   3.156  -0.980  0.00  0.00    +0.196 A 
ENDBRANCH  16  19
TORSDOF 2
