REMARK  Name = 11887581
REMARK  11 active torsions:
REMARK  status: ('A' for Active; 'I' for Inactive)
REMARK    1  A    between atoms: O_4  and  C_21
REMARK    2  A    between atoms: O_4  and  C_31
REMARK    3  A    between atoms: O_6  and  C_30
REMARK    4  A    between atoms: O_6  and  C_35
REMARK    5  A    between atoms: N_9  and  C_18
REMARK    6  A    between atoms: N_10  and  C_23
REMARK    7  A    between atoms: C_11  and  C_15
REMARK    8  A    between atoms: C_16  and  C_20
REMARK    9  A    between atoms: C_18  and  C_19
REMARK   10  A    between atoms: C_18  and  C_21
REMARK   11  A    between atoms: C_19  and  C_22
REMARK                            x       y       z     vdW  Elec       q    Type
REMARK                         _______ _______ _______ _____ _____    ______ ____
ROOT
ATOM      2  O   UNL     1       5.034   0.796  -1.426  0.00  0.00    -0.276 OA
ATOM      3  O   UNL     1      -0.940   4.175   1.135  0.00  0.00    -0.252 OA
ATOM      7  N   UNL     1       3.382   2.236  -0.644  0.00  0.00    -0.287 N 
ATOM      8  N   UNL     1       0.600   2.896  -0.025  0.00  0.00    -0.282 N 
ATOM     10  N   UNL     1      -1.707   2.645  -0.442  0.00  0.00    -0.269 N 
ATOM     11  C   UNL     1       2.324   1.241  -0.817  0.00  0.00    +0.179 C 
ATOM     12  C   UNL     1       0.934   1.850  -1.003  0.00  0.00    +0.141 C 
ATOM     13  C   UNL     1       2.981   3.567  -0.177  0.00  0.00    +0.127 C 
ATOM     14  C   UNL     1       1.716   3.536   0.669  0.00  0.00    +0.128 C 
ATOM     16  C   UNL     1       4.687   1.912  -1.032  0.00  0.00    +0.213 C 
ATOM     17  C   UNL     1      -0.718   3.302   0.293  0.00  0.00    +0.307 C 
ATOM     20  C   UNL     1       5.707   3.020  -0.940  0.00  0.00    +0.109 C 
ATOM     37  H   UNL     1      -1.452   2.287  -1.358  0.00  0.00    +0.156 HD
ENDROOT
BRANCH  10  23
ATOM     23  C   UNL     1      -3.032   2.347  -0.037  0.00  0.00    +0.035 A 
ATOM     26  C   UNL     1      -3.893   1.678  -0.907  0.00  0.00    +0.023 A 
ATOM     27  C   UNL     1      -3.474   2.722   1.231  0.00  0.00    +0.023 A 
ATOM     32  C   UNL     1      -5.197   1.384  -0.508  0.00  0.00    +0.002 A 
ATOM     33  C   UNL     1      -4.778   2.428   1.630  0.00  0.00    +0.002 A 
ATOM     34  C   UNL     1      -5.639   1.759   0.761  0.00  0.00    +0.000 A 
ENDBRANCH  10  23
BRANCH  11  15
ATOM      1  O   UNL     1       2.683   0.729   1.490  0.00  0.00    -0.274 OA
ATOM      9  N   UNL     1       1.998  -0.969   0.052  0.00  0.00    -0.301 N 
ATOM     15  C   UNL     1       2.354   0.329   0.376  0.00  0.00    +0.236 C 
ATOM     36  H   UNL     1       1.722  -1.186  -0.901  0.00  0.00    +0.150 HD
BRANCH   9  18
ATOM     18  C   UNL     1       1.969  -2.045   1.017  0.00  0.00    +0.186 C 
BRANCH  18  21
ATOM      5  O   UNL     1       2.614  -3.518  -0.787  0.00  0.00    -0.249 OA
ATOM     21  C   UNL     1       2.385  -3.379   0.410  0.00  0.00    +0.328 C 
BRANCH  21   4
ATOM      4  O   UNL     1       2.449  -4.370   1.343  0.00  0.00    -0.467 OA
ATOM     31  C   UNL     1       2.816  -5.663   0.851  0.00  0.00    +0.280 C 
ENDBRANCH  21   4
ENDBRANCH  18  21
BRANCH  18  19
ATOM     19  C   UNL     1       0.604  -2.132   1.716  0.00  0.00    +0.069 C 
BRANCH  19  22
ATOM     22  C   UNL     1      -0.552  -2.474   0.804  0.00  0.00    -0.045 A 
ATOM     24  C   UNL     1      -1.268  -1.456   0.174  0.00  0.00    +0.007 A 
ATOM     25  C   UNL     1      -0.903  -3.807   0.594  0.00  0.00    +0.007 A 
ATOM     28  C   UNL     1      -2.335  -1.772  -0.667  0.00  0.00    +0.046 A 
ATOM     29  C   UNL     1      -1.970  -4.123  -0.247  0.00  0.00    +0.046 A 
ATOM     30  C   UNL     1      -2.686  -3.105  -0.878  0.00  0.00    +0.120 A 
BRANCH  30   6
ATOM      6  O   UNL     1      -3.727  -3.413  -1.699  0.00  0.00    -0.495 OA
ATOM     35  C   UNL     1      -4.415  -2.324  -2.312  0.00  0.00    +0.277 C 
ENDBRANCH  30   6
ENDBRANCH  19  22
ENDBRANCH  18  19
ENDBRANCH   9  18
ENDBRANCH  11  15
TORSDOF 8
