REMARK  Name = 11879618
REMARK  7 active torsions:
REMARK  status: ('A' for Active; 'I' for Inactive)
REMARK    1  A    between atoms: S_1  and  N_9
REMARK    2  A    between atoms: S_1  and  C_22
REMARK    3  A    between atoms: O_5  and  C_21
REMARK    4  A    between atoms: O_5  and  C_24
REMARK    5  A    between atoms: N_9  and  C_17
REMARK    6  A    between atoms: N_10  and  C_18
REMARK    7  A    between atoms: N_14  and  C_25
REMARK                            x       y       z     vdW  Elec       q    Type
REMARK                         _______ _______ _______ _____ _____    ______ ____
ROOT
ATOM     10  N   UNL     1      -0.348  -0.843   0.554  0.00  0.00    -0.187 N 
ATOM     11  N   UNL     1      -0.034  -1.908   1.298  0.00  0.00    -0.041 NA
ATOM     12  N   UNL     1      -2.123  -2.075   0.540  0.00  0.00    -0.071 NA
ATOM     13  N   UNL     1      -1.126  -2.661   1.287  0.00  0.00    -0.020 NA
ATOM     21  C   UNL     1      -1.617  -0.948   0.096  0.00  0.00    +0.342 A 
ENDROOT
BRANCH  10  18
ATOM      3  O   UNL     1       2.443   0.747  -1.178  0.00  0.00    -0.370 OA
ATOM      4  O   UNL     1       2.372   0.324   1.951  0.00  0.00    -0.370 OA
ATOM     15  C   UNL     1       2.874  -0.438   0.842  0.00  0.00    +0.170 C 
ATOM     16  C   UNL     1       1.904  -0.267  -0.312  0.00  0.00    +0.175 C 
ATOM     17  C   UNL     1       4.164   0.164   0.339  0.00  0.00    +0.133 C 
ATOM     18  C   UNL     1       0.623   0.231   0.330  0.00  0.00    +0.171 C 
ATOM     19  C   UNL     1       3.688   1.216  -0.642  0.00  0.00    +0.183 C 
ATOM     20  C   UNL     1       1.120   0.925   1.593  0.00  0.00    +0.190 C 
BRANCH  17   9
ATOM      9  N   UNL     1       4.955  -0.865  -0.379  0.00  0.00    -0.182 NA
ATOM     36  H   UNL     1       4.733  -0.984  -1.376  0.00  0.00    +0.149 HD
BRANCH   9   1
ATOM      1  S   UNL     1       6.563  -1.137   0.135  0.00  0.00    +0.065 S 
ATOM      6  O   UNL     1       7.209  -2.065  -0.772  0.00  0.00    -0.153 OA
ATOM      7  O   UNL     1       6.564  -1.360   1.568  0.00  0.00    -0.153 OA
BRANCH   1  22
ATOM      2  S   UNL     1       7.716   0.853  -1.669  0.00  0.00    -0.077 S 
ATOM     22  C   UNL     1       7.449   0.410  -0.052  0.00  0.00    +0.142 A 
ATOM     23  C   UNL     1       7.943   1.289   0.852  0.00  0.00    +0.036 A 
ATOM     29  C   UNL     1       8.577   2.387   0.203  0.00  0.00    +0.010 A 
ATOM     30  C   UNL     1       8.526   2.276  -1.169  0.00  0.00    +0.047 A 
ENDBRANCH   1  22
ENDBRANCH   9   1
ENDBRANCH  17   9
ENDBRANCH  10  18
BRANCH  21   5
ATOM      5  O   UNL     1      -2.223  -0.058  -0.668  0.00  0.00    -0.423 OA
BRANCH   5  24
ATOM     24  C   UNL     1      -3.528  -0.219  -1.112  0.00  0.00    +0.134 A 
ATOM     25  C   UNL     1      -5.875   0.112  -0.787  0.00  0.00    +0.033 A 
ATOM     26  C   UNL     1      -4.564   0.274  -0.341  0.00  0.00    +0.069 A 
ATOM     31  C   UNL     1      -3.754  -0.867  -2.311  0.00  0.00    +0.046 A 
ATOM     34  C   UNL     1      -6.127  -0.539  -1.994  0.00  0.00    +0.023 A 
ATOM     35  C   UNL     1      -5.066  -1.028  -2.757  0.00  0.00    +0.005 A 
BRANCH  25  14
ATOM      8  O   UNL     1      -9.183   1.328   1.506  0.00  0.00    -0.377 OA
ATOM     14  N   UNL     1      -6.939   0.601  -0.021  0.00  0.00    -0.325 N 
ATOM     27  C   UNL     1      -7.109   0.082   1.342  0.00  0.00    +0.133 C 
ATOM     28  C   UNL     1      -8.174   1.040  -0.681  0.00  0.00    +0.133 C 
ATOM     32  C   UNL     1      -7.946   1.056   2.164  0.00  0.00    +0.178 C 
ATOM     33  C   UNL     1      -8.954   1.963   0.249  0.00  0.00    +0.178 C 
ENDBRANCH  25  14
ENDBRANCH   5  24
ENDBRANCH  21   5
TORSDOF 7
