REMARK  Name = 26744351
REMARK  6 active torsions:
REMARK  status: ('A' for Active; 'I' for Inactive)
REMARK    1  A    between atoms: O_1  and  C_13
REMARK    2  A    between atoms: N_5  and  C_15
REMARK    3  A    between atoms: N_10  and  C_24
REMARK    4  A    between atoms: C_11  and  C_16
REMARK    5  A    between atoms: C_15  and  C_17
REMARK    6  A    between atoms: C_18  and  C_19
REMARK                            x       y       z     vdW  Elec       q    Type
REMARK                         _______ _______ _______ _____ _____    ______ ____
ROOT
ATOM      5  N   UNL     1      -3.067  -0.469   0.605  0.00  0.00    -0.282 NA
ATOM     11  C   UNL     1      -2.937   0.693  -0.299  0.00  0.00    +0.149 C 
ATOM     12  C   UNL     1      -3.593   1.859   0.463  0.00  0.00    +0.061 C 
ATOM     13  C   UNL     1      -4.100   1.246   1.762  0.00  0.00    +0.130 C 
ATOM     14  C   UNL     1      -4.251  -0.225   1.425  0.00  0.00    +0.117 C 
ENDROOT
BRANCH  11  16
ATOM      2  O   UNL     1      -1.301   1.587  -1.879  0.00  0.00    -0.336 OA
ATOM      6  N   UNL     1      -0.399   0.719  -0.021  0.00  0.00    -0.190 NA
ATOM      9  N   UNL     1       0.085   1.742  -2.010  0.00  0.00    -0.056 NA
ATOM     16  C   UNL     1      -1.500   0.977  -0.681  0.00  0.00    +0.245 A 
ATOM     18  C   UNL     1       0.547   1.206  -0.876  0.00  0.00    +0.202 A 
BRANCH  18  19
ATOM     19  C   UNL     1       1.946   1.143  -0.566  0.00  0.00    +0.025 A 
ATOM     22  C   UNL     1       2.410   0.236   0.387  0.00  0.00    +0.044 A 
ATOM     23  C   UNL     1       2.843   1.989  -1.219  0.00  0.00    +0.012 A 
ATOM     24  C   UNL     1       3.771   0.174   0.687  0.00  0.00    +0.127 A 
ATOM     25  C   UNL     1       4.204   1.928  -0.918  0.00  0.00    +0.003 A 
ATOM     26  C   UNL     1       4.668   1.020   0.034  0.00  0.00    +0.033 A 
BRANCH  24  10
ATOM      3  O   UNL     1       5.473  -0.787   1.911  0.00  0.00    -0.126 OA
ATOM      4  O   UNL     1       3.422  -1.501   2.233  0.00  0.00    -0.126 OA
ATOM     10  N   UNL     1       4.245  -0.749   1.657  0.00  0.00    +0.056 N 
ENDBRANCH  24  10
ENDBRANCH  18  19
ENDBRANCH  11  16
BRANCH  13   1
ATOM      1  O   UNL     1      -5.332   1.827   2.144  0.00  0.00    -0.390 OA
ATOM     27  H   UNL     1      -5.180   2.779   2.270  0.00  0.00    +0.210 HD
ENDBRANCH  13   1
BRANCH   5  15
ATOM     15  C   UNL     1      -3.141  -1.741  -0.102  0.00  0.00    +0.159 C 
BRANCH  15  17
ATOM      7  N   UNL     1      -1.502  -2.453  -1.859  0.00  0.00    -0.347 N 
ATOM      8  N   UNL     1      -0.746  -2.462   0.229  0.00  0.00    -0.239 NA
ATOM     17  C   UNL     1      -1.782  -2.218  -0.541  0.00  0.00    +0.121 A 
ATOM     20  C   UNL     1      -0.204  -2.872  -1.933  0.00  0.00    +0.104 A 
ATOM     21  C   UNL     1       0.242  -2.869  -0.633  0.00  0.00    +0.130 A 
ATOM     28  H   UNL     1      -2.137  -2.336  -2.638  0.00  0.00    +0.167 HD
ENDBRANCH  15  17
ENDBRANCH   5  15
TORSDOF 6
