REMARK  Name = 75368452
REMARK  5 active torsions:
REMARK  status: ('A' for Active; 'I' for Inactive)
REMARK    1  A    between atoms: O_3  and  C_25
REMARK    2  A    between atoms: O_3  and  C_26
REMARK    3  A    between atoms: N_6  and  C_19
REMARK    4  A    between atoms: C_9  and  C_15
REMARK    5  A    between atoms: C_19  and  C_20
REMARK                            x       y       z     vdW  Elec       q    Type
REMARK                         _______ _______ _______ _____ _____    ______ ____
ROOT
ATOM      1  O   UNL     1      -4.848  -0.282  -1.657  0.00  0.00    -0.275 OA
ATOM      2  O   UNL     1       1.345  -3.158  -0.308  0.00  0.00    -0.252 OA
ATOM      4  N   UNL     1      -0.525  -1.754  -0.079  0.00  0.00    -0.278 N 
ATOM      5  N   UNL     1      -2.656  -0.164  -0.899  0.00  0.00    -0.298 N 
ATOM      6  N   UNL     1       1.307  -1.297   1.139  0.00  0.00    -0.279 N 
ATOM      7  C   UNL     1      -0.919  -0.644   0.771  0.00  0.00    +0.112 C 
ATOM      8  C   UNL     1      -1.608   0.440  -0.055  0.00  0.00    +0.132 C 
ATOM     10  C   UNL     1       0.388  -0.210   1.431  0.00  0.00    +0.133 C 
ATOM     11  C   UNL     1      -1.489  -2.339  -0.993  0.00  0.00    +0.128 C 
ATOM     12  C   UNL     1      -2.186  -1.238  -1.788  0.00  0.00    +0.127 C 
ATOM     15  C   UNL     1      -3.995   0.223  -0.923  0.00  0.00    +0.219 C 
ATOM     18  C   UNL     1       0.779  -2.194   0.190  0.00  0.00    +0.306 C 
ENDROOT
BRANCH  15   9
ATOM      9  C   UNL     1      -4.392   1.321   0.015  0.00  0.00    +0.075 C 
ATOM     13  C   UNL     1      -4.866   0.735   1.350  0.00  0.00    +0.013 C 
ATOM     14  C   UNL     1      -5.573   2.112  -0.548  0.00  0.00    +0.013 C 
ATOM     16  C   UNL     1      -6.271   1.284   1.570  0.00  0.00    +0.001 C 
ATOM     17  C   UNL     1      -6.791   1.547   0.169  0.00  0.00    +0.001 C 
ENDBRANCH  15   9
BRANCH   6  19
ATOM     19  C   UNL     1       2.647  -1.332   1.681  0.00  0.00    +0.144 C 
BRANCH  19  20
ATOM     20  C   UNL     1       3.595  -0.476   0.891  0.00  0.00    -0.030 A 
ATOM     21  C   UNL     1       4.062  -0.913  -0.349  0.00  0.00    +0.009 A 
ATOM     22  C   UNL     1       4.007   0.757   1.396  0.00  0.00    +0.009 A 
ATOM     23  C   UNL     1       4.942  -0.117  -1.082  0.00  0.00    +0.046 A 
ATOM     24  C   UNL     1       4.887   1.553   0.663  0.00  0.00    +0.046 A 
ATOM     25  C   UNL     1       5.355   1.115  -0.577  0.00  0.00    +0.120 A 
BRANCH  25   3
ATOM      3  O   UNL     1       6.213   1.892  -1.293  0.00  0.00    -0.495 OA
ATOM     26  C   UNL     1       6.593   3.141  -0.717  0.00  0.00    +0.277 C 
ENDBRANCH  25   3
ENDBRANCH  19  20
ENDBRANCH   6  19
TORSDOF 4
