REMARK  Name = 25338526
REMARK  9 active torsions:
REMARK  status: ('A' for Active; 'I' for Inactive)
REMARK    1  A    between atoms: N_3  and  C_12
REMARK    2  A    between atoms: N_4  and  C_7
REMARK    3  A    between atoms: C_8  and  C_11
REMARK    4  A    between atoms: C_13  and  C_14
REMARK    5  A    between atoms: C_13  and  C_16
REMARK    6  A    between atoms: C_13  and  C_17
REMARK    7  A    between atoms: C_13  and  C_18
REMARK    8  A    between atoms: C_14  and  C_15
REMARK    9  A    between atoms: C_19  and  C_20
REMARK                            x       y       z     vdW  Elec       q    Type
REMARK                         _______ _______ _______ _____ _____    ______ ____
ROOT
ATOM      3  N   UNL     1      -2.975  -2.066   1.259  0.00  0.00    -0.293 NA
ATOM      7  C   UNL     1      -4.193  -0.542  -0.016  0.00  0.00    +0.089 C 
ATOM      8  C   UNL     1      -2.556  -2.352  -0.126  0.00  0.00    +0.147 C 
ATOM      9  C   UNL     1      -3.235  -1.255  -0.970  0.00  0.00    +0.052 C 
ATOM     10  C   UNL     1      -4.322  -1.496   1.162  0.00  0.00    +0.107 C 
ATOM     12  C   UNL     1      -2.943  -3.241   2.123  0.00  0.00    +0.105 C 
ENDROOT
BRANCH   8  11
ATOM      1  O   UNL     1      -0.526  -3.528  -0.811  0.00  0.00    -0.336 OA
ATOM      5  N   UNL     1      -0.169  -1.452  -0.051  0.00  0.00    -0.190 NA
ATOM      6  N   UNL     1       0.856  -3.318  -0.887  0.00  0.00    -0.056 NA
ATOM     11  C   UNL     1      -1.054  -2.381  -0.309  0.00  0.00    +0.245 A 
ATOM     19  C   UNL     1       0.989  -2.073  -0.422  0.00  0.00    +0.202 A 
BRANCH  19  20
ATOM     20  C   UNL     1       2.261  -1.420  -0.316  0.00  0.00    +0.023 A 
ATOM     21  C   UNL     1       2.337  -0.117   0.177  0.00  0.00    +0.020 A 
ATOM     22  C   UNL     1       3.420  -2.086  -0.705  0.00  0.00    +0.012 A 
ATOM     23  C   UNL     1       3.576   0.537   0.287  0.00  0.00    -0.017 A 
ATOM     24  C   UNL     1       4.754  -0.141  -0.108  0.00  0.00    -0.018 A 
ATOM     25  C   UNL     1       4.658  -1.453  -0.602  0.00  0.00    +0.009 A 
ATOM     26  C   UNL     1       3.671   1.848   0.780  0.00  0.00    +0.008 A 
ATOM     27  C   UNL     1       5.992   0.512   0.002  0.00  0.00    +0.008 A 
ATOM     28  C   UNL     1       4.910   2.482   0.883  0.00  0.00    +0.001 A 
ATOM     29  C   UNL     1       6.068   1.815   0.494  0.00  0.00    +0.001 A 
ENDBRANCH  19  20
ENDBRANCH   8  11
BRANCH   7   4
ATOM      2  O   UNL     1      -4.672   2.032  -1.253  0.00  0.00    -0.276 OA
ATOM      4  N   UNL     1      -3.674   0.739   0.400  0.00  0.00    -0.311 N 
ATOM     15  C   UNL     1      -3.959   1.924  -0.258  0.00  0.00    +0.214 C 
ATOM     30  H   UNL     1      -3.047   0.756   1.199  0.00  0.00    +0.149 HD
BRANCH  15  14
ATOM     14  C   UNL     1      -3.284   3.131   0.372  0.00  0.00    +0.102 C 
BRANCH  14  13
ATOM     13  C   UNL     1      -1.856   3.419  -0.150  0.00  0.00    -0.029 C 
ATOM     16  C   UNL     1      -1.248   4.646   0.550  0.00  0.00    +0.011 C 
ATOM     17  C   UNL     1      -0.977   2.192   0.165  0.00  0.00    +0.011 C 
ATOM     18  C   UNL     1      -1.847   3.646  -1.670  0.00  0.00    +0.011 C 
ENDBRANCH  14  13
ENDBRANCH  15  14
ENDBRANCH   7   4
TORSDOF 5
