REMARK  Name = 40777670
REMARK  7 active torsions:
REMARK  status: ('A' for Active; 'I' for Inactive)
REMARK    1  A    between atoms: N_5  and  C_9
REMARK    2  A    between atoms: N_6  and  C_14
REMARK    3  A    between atoms: N_7  and  C_26
REMARK    4  A    between atoms: C_10  and  C_18
REMARK    5  A    between atoms: C_22  and  C_24
REMARK    6  A    between atoms: C_23  and  C_25
REMARK    7  A    between atoms: C_31  and  C_32
REMARK                            x       y       z     vdW  Elec       q    Type
REMARK                         _______ _______ _______ _____ _____    ______ ____
ROOT
ATOM     10  C   UNL     1      -0.906  -1.333   0.601  0.00  0.00    +0.047 C 
ATOM     13  C   UNL     1      -1.888  -1.575  -0.568  0.00  0.00    +0.039 C 
ATOM     14  C   UNL     1      -3.165  -2.161   0.052  0.00  0.00    +0.098 C 
ATOM     19  C   UNL     1      -1.385  -2.381   1.572  0.00  0.00    -0.021 C 
ATOM     20  C   UNL     1      -2.617  -2.814   1.280  0.00  0.00    -0.009 C 
ENDROOT
BRANCH  10  18
ATOM      7  N   UNL     1       2.687  -0.915  -0.015  0.00  0.00    -0.236 N 
ATOM      8  N   UNL     1       2.586  -2.175  -0.471  0.00  0.00    -0.171 NA
ATOM     18  C   UNL     1       0.572  -1.385   0.262  0.00  0.00    +0.003 A 
ATOM     22  C   UNL     1       1.508  -0.396   0.436  0.00  0.00    +0.046 A 
ATOM     23  C   UNL     1       1.292  -2.457  -0.299  0.00  0.00    +0.064 A 
ATOM     24  C   UNL     1       1.380   0.970   0.983  0.00  0.00    +0.066 C 
ATOM     25  C   UNL     1       0.781  -3.783  -0.691  0.00  0.00    +0.068 C 
BRANCH   7  26
ATOM     26  C   UNL     1       3.923  -0.268  -0.035  0.00  0.00    +0.066 A 
ATOM     27  C   UNL     1       4.220   0.698   0.926  0.00  0.00    +0.028 A 
ATOM     28  C   UNL     1       4.859  -0.585  -1.019  0.00  0.00    +0.028 A 
ATOM     29  C   UNL     1       5.455   1.347   0.903  0.00  0.00    +0.014 A 
ATOM     30  C   UNL     1       6.094   0.064  -1.041  0.00  0.00    +0.014 A 
ATOM     31  C   UNL     1       6.391   1.030  -0.080  0.00  0.00    +0.055 A 
BRANCH  31  32
ATOM      1  F   UNL     1       8.776   0.877   0.027  0.00  0.00    -0.166 F 
ATOM      2  F   UNL     1       7.844   2.636   0.902  0.00  0.00    -0.166 F 
ATOM      3  F   UNL     1       7.946   2.414  -1.259  0.00  0.00    -0.166 F 
ATOM     32  C   UNL     1       7.712   1.723  -0.104  0.00  0.00    +0.417 C 
ENDBRANCH  31  32
ENDBRANCH   7  26
ENDBRANCH  10  18
BRANCH  14   6
ATOM      4  O   UNL     1      -5.370  -1.252  -1.585  0.00  0.00    -0.253 OA
ATOM      5  N   UNL     1      -5.958   0.243   0.089  0.00  0.00    -0.297 N 
ATOM      6  N   UNL     1      -4.142  -1.131   0.382  0.00  0.00    -0.293 N 
ATOM     21  C   UNL     1      -5.175  -0.759  -0.474  0.00  0.00    +0.300 C 
ATOM     33  H   UNL     1      -5.669   0.633   0.981  0.00  0.00    +0.151 HD
ATOM     34  H   UNL     1      -4.045  -0.635   1.263  0.00  0.00    +0.151 HD
BRANCH   5   9
ATOM      9  C   UNL     1      -7.101   0.816  -0.587  0.00  0.00    +0.074 C 
ATOM     11  C   UNL     1      -6.682   1.993  -1.476  0.00  0.00    +0.022 C 
ATOM     12  C   UNL     1      -8.182   1.234   0.415  0.00  0.00    +0.022 C 
ATOM     15  C   UNL     1      -6.287   3.227  -0.664  0.00  0.00    +0.002 C 
ATOM     16  C   UNL     1      -7.784   2.469   1.223  0.00  0.00    +0.002 C 
ATOM     17  C   UNL     1      -7.382   3.630   0.318  0.00  0.00    +0.000 C 
ENDBRANCH   5   9
ENDBRANCH  14   6
TORSDOF 5
