REMARK  Name = 25338219
REMARK  6 active torsions:
REMARK  status: ('A' for Active; 'I' for Inactive)
REMARK    1  A    between atoms: O_3  and  C_10
REMARK    2  A    between atoms: O_5  and  C_24
REMARK    3  A    between atoms: O_5  and  C_27
REMARK    4  A    between atoms: N_6  and  C_9
REMARK    5  A    between atoms: N_7  and  C_11
REMARK    6  A    between atoms: N_8  and  C_21
REMARK                            x       y       z     vdW  Elec       q    Type
REMARK                         _______ _______ _______ _____ _____    ______ ____
ROOT
ATOM      1  O   UNL     1      -3.014   0.890   1.609  0.00  0.00    -0.342 OA
ATOM      2  O   UNL     1      -4.269   2.223   0.184  0.00  0.00    -0.347 OA
ATOM      9  C   UNL     1      -3.170   0.265  -0.715  0.00  0.00    +0.143 C 
ATOM     10  C   UNL     1      -1.909   1.096  -1.043  0.00  0.00    +0.159 C 
ATOM     11  C   UNL     1      -1.234   1.708   0.204  0.00  0.00    +0.136 C 
ATOM     12  C   UNL     1      -3.914   0.865   0.492  0.00  0.00    +0.270 C 
ATOM     13  C   UNL     1      -2.233   2.055   1.327  0.00  0.00    +0.170 C 
ATOM     14  C   UNL     1      -3.323   3.024   0.910  0.00  0.00    +0.196 C 
ENDROOT
BRANCH  11   7
ATOM      4  O   UNL     1       1.516   1.609  -0.591  0.00  0.00    -0.252 OA
ATOM      7  N   UNL     1      -0.219   0.810   0.712  0.00  0.00    -0.291 N 
ATOM      8  N   UNL     1       1.853  -0.145   0.932  0.00  0.00    -0.269 N 
ATOM     20  C   UNL     1       1.105   0.830   0.266  0.00  0.00    +0.304 C 
ATOM     28  H   UNL     1      -0.500   0.084   1.364  0.00  0.00    +0.151 HD
ATOM     30  H   UNL     1       1.358  -0.710   1.618  0.00  0.00    +0.156 HD
BRANCH   8  21
ATOM     21  C   UNL     1       3.225  -0.448   0.771  0.00  0.00    +0.038 A 
ATOM     22  C   UNL     1       3.995   0.270  -0.144  0.00  0.00    +0.069 A 
ATOM     23  C   UNL     1       3.808  -1.465   1.527  0.00  0.00    +0.023 A 
ATOM     24  C   UNL     1       5.348  -0.028  -0.303  0.00  0.00    +0.122 A 
ATOM     25  C   UNL     1       5.162  -1.763   1.368  0.00  0.00    +0.005 A 
ATOM     26  C   UNL     1       5.931  -1.045   0.453  0.00  0.00    +0.046 A 
BRANCH  24   5
ATOM      5  O   UNL     1       6.099   0.672  -1.196  0.00  0.00    -0.495 OA
ATOM     27  C   UNL     1       5.439   1.698  -1.935  0.00  0.00    +0.277 C 
ENDBRANCH  24   5
ENDBRANCH   8  21
ENDBRANCH  11   7
BRANCH   9   6
ATOM      6  N   UNL     1      -2.799  -1.121  -0.429  0.00  0.00    -0.293 NA
ATOM     15  C   UNL     1      -2.559  -1.857  -1.678  0.00  0.00    +0.085 C 
ATOM     16  C   UNL     1      -3.836  -1.774   0.382  0.00  0.00    +0.085 C 
ATOM     17  C   UNL     1      -2.122  -3.296  -1.395  0.00  0.00    +0.015 C 
ATOM     18  C   UNL     1      -3.441  -3.209   0.732  0.00  0.00    +0.015 C 
ATOM     19  C   UNL     1      -3.138  -4.022  -0.522  0.00  0.00    +0.002 C 
ENDBRANCH   9   6
BRANCH  10   3
ATOM      3  O   UNL     1      -2.303   2.159  -1.921  0.00  0.00    -0.388 OA
ATOM     29  H   UNL     1      -1.499   2.643  -2.176  0.00  0.00    +0.210 HD
ENDBRANCH  10   3
TORSDOF 5
