REMARK  Name = 71693202
REMARK  14 active torsions:
REMARK  status: ('A' for Active; 'I' for Inactive)
REMARK    1  A    between atoms: O_2  and  C_27
REMARK    2  A    between atoms: N_4  and  C_19
REMARK    3  A    between atoms: C_7  and  C_16
REMARK    4  A    between atoms: C_7  and  C_18
REMARK    5  A    between atoms: C_8  and  C_17
REMARK    6  A    between atoms: C_9  and  C_19
REMARK    7  A    between atoms: C_13  and  C_22
REMARK    8  A    between atoms: C_16  and  C_23
REMARK    9  A    between atoms: C_17  and  C_24
REMARK   10  A    between atoms: C_17  and  C_25
REMARK   11  A    between atoms: C_18  and  C_27
REMARK   12  A    between atoms: C_20  and  C_26
REMARK   13  A    between atoms: C_22  and  C_28
REMARK   14  A    between atoms: C_31  and  C_35
REMARK                            x       y       z     vdW  Elec       q    Type
REMARK                         _______ _______ _______ _____ _____    ______ ____
ROOT
ATOM      8  C   UNL     1       0.137   2.261   0.987  0.00  0.00    +0.000 C 
ATOM      9  C   UNL     1      -0.759   3.414   0.469  0.00  0.00    +0.032 C 
ATOM     12  C   UNL     1       1.559   2.390   0.421  0.00  0.00    +0.012 C 
ATOM     13  C   UNL     1       1.577   2.368  -1.119  0.00  0.00    +0.022 C 
ATOM     20  C   UNL     1       0.528   3.288  -1.708  0.00  0.00    -0.073 C 
ATOM     21  C   UNL     1      -0.501   3.756  -0.980  0.00  0.00    -0.022 C 
ATOM     26  C   UNL     1       0.714   3.696  -3.143  0.00  0.00    +0.039 C 
ENDROOT
BRANCH   8  17
ATOM     17  C   UNL     1       0.189   2.226   2.518  0.00  0.00    -0.013 C 
ATOM     24  C   UNL     1       0.534   0.822   3.006  0.00  0.00    +0.007 C 
ATOM     25  C   UNL     1       1.199   3.243   3.039  0.00  0.00    +0.007 C 
ENDBRANCH   8  17
BRANCH   9  19
ATOM     19  C   UNL     1      -2.244   3.089   0.660  0.00  0.00    +0.112 C 
BRANCH  19   4
ATOM      1  O   UNL     1      -3.329   0.558   1.548  0.00  0.00    -0.276 OA
ATOM      4  N   UNL     1      -2.631   1.980  -0.155  0.00  0.00    -0.315 N 
ATOM     23  C   UNL     1      -3.148   0.789   0.355  0.00  0.00    +0.214 C 
ATOM     36  H   UNL     1      -2.577   2.088  -1.164  0.00  0.00    +0.149 HD
BRANCH  23  16
ATOM     16  C   UNL     1      -3.472  -0.209  -0.742  0.00  0.00    +0.103 C 
BRANCH  16   7
ATOM      7  C   UNL     1      -4.009  -1.537  -0.192  0.00  0.00    -0.011 C 
ATOM     10  C   UNL     1      -4.416  -2.482  -1.345  0.00  0.00    +0.008 C 
ATOM     11  C   UNL     1      -5.307  -1.300   0.616  0.00  0.00    +0.008 C 
ATOM     14  C   UNL     1      -5.935  -2.408  -1.403  0.00  0.00    +0.001 C 
ATOM     15  C   UNL     1      -6.325  -2.287   0.058  0.00  0.00    +0.001 C 
BRANCH   7  18
ATOM     18  C   UNL     1      -2.930  -2.190   0.682  0.00  0.00    +0.127 C 
BRANCH  18  27
ATOM      3  O   UNL     1      -1.538  -3.114  -1.093  0.00  0.00    -0.251 OA
ATOM     27  C   UNL     1      -1.667  -2.424  -0.093  0.00  0.00    +0.305 C 
BRANCH  27   2
ATOM      2  O   UNL     1      -0.649  -1.740   0.488  0.00  0.00    -0.481 OA
ATOM     38  H   UNL     1       0.198  -1.865   0.008  0.00  0.00    +0.295 HD
ENDBRANCH  27   2
ENDBRANCH  18  27
ENDBRANCH   7  18
ENDBRANCH  16   7
ENDBRANCH  23  16
ENDBRANCH  19   4
ENDBRANCH   9  19
BRANCH  13  22
ATOM     22  C   UNL     1       1.416   0.940  -1.653  0.00  0.00    +0.082 C 
BRANCH  22  28
ATOM      5  N   UNL     1       3.755   0.056  -1.576  0.00  0.00    -0.342 N 
ATOM      6  N   UNL     1       2.322  -0.869  -0.151  0.00  0.00    -0.232 NA
ATOM     28  C   UNL     1       2.473   0.026  -1.102  0.00  0.00    +0.109 A 
ATOM     29  C   UNL     1       4.479  -0.882  -0.886  0.00  0.00    +0.066 A 
ATOM     30  C   UNL     1       3.562  -1.446  -0.003  0.00  0.00    +0.092 A 
ATOM     31  C   UNL     1       3.987  -2.462   0.870  0.00  0.00    -0.023 A 
ATOM     32  C   UNL     1       5.816  -1.274  -0.956  0.00  0.00    +0.028 A 
ATOM     33  C   UNL     1       5.325  -2.872   0.817  0.00  0.00    +0.005 A 
ATOM     34  C   UNL     1       6.222  -2.287  -0.080  0.00  0.00    +0.002 A 
ATOM     35  C   UNL     1       3.067  -3.118   1.847  0.00  0.00    +0.046 C 
ATOM     37  H   UNL     1       4.109   0.661  -2.305  0.00  0.00    +0.167 HD
ENDBRANCH  22  28
ENDBRANCH  13  22
TORSDOF 10
