REMARK  Name = 51137096
REMARK  3 active torsions:
REMARK  status: ('A' for Active; 'I' for Inactive)
REMARK    1  A    between atoms: N_1  and  C_4
REMARK    2  A    between atoms: C_5  and  C_14
REMARK    3  A    between atoms: C_19  and  C_21
REMARK                            x       y       z     vdW  Elec       q    Type
REMARK                         _______ _______ _______ _____ _____    ______ ____
ROOT
ATOM      1  N   UNL     1      -2.522   0.718   0.309  0.00  0.00    -0.299 NA
ATOM      5  C   UNL     1      -0.241   1.083   0.714  0.00  0.00    +0.070 C 
ATOM      6  C   UNL     1      -1.301  -0.024   0.633  0.00  0.00    +0.096 C 
ATOM      7  C   UNL     1      -2.115   1.688  -0.708  0.00  0.00    +0.085 C 
ATOM      8  C   UNL     1      -0.796   2.220  -0.161  0.00  0.00    +0.028 C 
ENDROOT
BRANCH   5  14
ATOM      2  N   UNL     1       2.184   0.667   1.214  0.00  0.00    -0.342 N 
ATOM      3  N   UNL     1       1.505   0.097  -0.824  0.00  0.00    -0.232 NA
ATOM     14  C   UNL     1       1.141   0.605   0.332  0.00  0.00    +0.113 A 
ATOM     15  C   UNL     1       3.294   0.165   0.585  0.00  0.00    +0.066 A 
ATOM     16  C   UNL     1       2.845  -0.183  -0.685  0.00  0.00    +0.089 A 
ATOM     17  C   UNL     1       4.613  -0.008   1.006  0.00  0.00    +0.031 A 
ATOM     18  C   UNL     1       3.751  -0.739  -1.604  0.00  0.00    +0.030 A 
ATOM     19  C   UNL     1       5.502  -0.562   0.079  0.00  0.00    -0.048 A 
ATOM     20  C   UNL     1       5.081  -0.922  -1.203  0.00  0.00    +0.005 A 
ATOM     21  C   UNL     1       6.928  -0.773   0.470  0.00  0.00    +0.044 C 
ATOM     22  H   UNL     1       2.147   1.019   2.161  0.00  0.00    +0.167 HD
ENDBRANCH   5  14
BRANCH   1   4
ATOM      4  C   UNL     1      -3.598  -0.156  -0.154  0.00  0.00    +0.057 C 
ATOM      9  C   UNL     1      -4.806   0.687  -0.580  0.00  0.00    +0.019 C 
ATOM     10  C   UNL     1      -3.978  -1.146   0.952  0.00  0.00    +0.019 C 
ATOM     11  C   UNL     1      -5.980  -0.196  -0.999  0.00  0.00    +0.002 C 
ATOM     12  C   UNL     1      -5.153  -2.026   0.532  0.00  0.00    +0.002 C 
ATOM     13  C   UNL     1      -6.354  -1.192   0.095  0.00  0.00    +0.000 C 
ENDBRANCH   1   4
TORSDOF 2
