REMARK  Name = 71694378
REMARK  10 active torsions:
REMARK  status: ('A' for Active; 'I' for Inactive)
REMARK    1  A    between atoms: N_5  and  C_22
REMARK    2  A    between atoms: N_5  and  C_23
REMARK    3  A    between atoms: N_7  and  C_30
REMARK    4  A    between atoms: N_7  and  C_34
REMARK    5  A    between atoms: N_7  and  C_36
REMARK    6  A    between atoms: C_10  and  C_15
REMARK    7  A    between atoms: C_15  and  C_18
REMARK    8  A    between atoms: C_22  and  C_27
REMARK    9  A    between atoms: C_34  and  C_37
REMARK   10  A    between atoms: C_37  and  C_39
REMARK                            x       y       z     vdW  Elec       q    Type
REMARK                         _______ _______ _______ _____ _____    ______ ____
ROOT
ATOM      1  O   UNL     1      -0.174   2.277   2.260  0.00  0.00    -0.274 OA
ATOM      3  O   UNL     1      -0.972  -2.493   0.079  0.00  0.00    -0.488 OA
ATOM      4  N   UNL     1       1.353   0.540   2.168  0.00  0.00    -0.300 N 
ATOM      6  N   UNL     1      -1.561  -0.723   2.311  0.00  0.00    -0.304 NA
ATOM     10  C   UNL     1       2.837  -0.636  -0.047  0.00  0.00    +0.008 C 
ATOM     11  C   UNL     1       1.759  -1.410   0.769  0.00  0.00    +0.032 C 
ATOM     12  C   UNL     1       2.552   0.881   0.048  0.00  0.00    +0.023 C 
ATOM     13  C   UNL     1       1.690  -0.887   2.216  0.00  0.00    +0.115 C 
ATOM     14  C   UNL     1       2.364   1.357   1.491  0.00  0.00    +0.108 C 
ATOM     16  C   UNL     1       1.918  -2.907   0.736  0.00  0.00    -0.023 C 
ATOM     17  C   UNL     1       0.117   1.098   2.494  0.00  0.00    +0.229 C 
ATOM     19  C   UNL     1       1.054  -3.836   0.292  0.00  0.00    +0.010 C 
ATOM     20  C   UNL     1      -0.909   0.233   3.202  0.00  0.00    +0.178 C 
ATOM     21  C   UNL     1      -0.345  -3.726  -0.258  0.00  0.00    +0.256 C 
ATOM     24  C   UNL     1      -2.159  -0.143   1.110  0.00  0.00    +0.120 C 
ATOM     25  C   UNL     1      -2.925  -1.178   0.304  0.00  0.00    +0.010 A 
ATOM     26  C   UNL     1      -2.304  -2.339  -0.212  0.00  0.00    +0.125 A 
ATOM     28  C   UNL     1      -4.287  -0.959   0.043  0.00  0.00    +0.031 A 
ATOM     29  C   UNL     1      -3.053  -3.244  -0.974  0.00  0.00    +0.048 A 
ATOM     30  C   UNL     1      -5.024  -1.871  -0.711  0.00  0.00    +0.030 A 
ATOM     31  C   UNL     1      -4.407  -3.010  -1.219  0.00  0.00    +0.027 A 
ATOM     44  H   UNL     1      -2.276  -1.221   2.840  0.00  0.00    +0.123 HD
ENDROOT
BRANCH  30   7
ATOM      7  N   UNL     1      -6.391  -1.637  -0.963  0.00  0.00    -0.333 N 
ATOM     36  C   UNL     1      -7.164  -2.577  -1.750  0.00  0.00    +0.129 C 
BRANCH   7  34
ATOM     34  C   UNL     1      -7.044  -0.457  -0.431  0.00  0.00    +0.111 C 
BRANCH  34  37
ATOM     37  C   UNL     1      -6.801   0.754  -1.331  0.00  0.00    +0.074 C 
BRANCH  37  39
ATOM      9  N   UNL     1      -8.753   2.211  -1.305  0.00  0.00    -0.260 NA
ATOM     39  C   UNL     1      -7.499   2.001  -0.846  0.00  0.00    +0.043 A 
ATOM     40  C   UNL     1      -6.840   2.852   0.026  0.00  0.00    +0.023 A 
ATOM     41  C   UNL     1      -7.510   3.993   0.454  0.00  0.00    +0.003 A 
ATOM     42  C   UNL     1      -9.373   3.330  -0.867  0.00  0.00    +0.111 A 
ATOM     43  C   UNL     1      -8.802   4.243   0.004  0.00  0.00    +0.020 A 
ENDBRANCH  37  39
ENDBRANCH  34  37
ENDBRANCH   7  34
ENDBRANCH  30   7
BRANCH  10  15
ATOM     15  C   UNL     1       4.285  -0.939   0.358  0.00  0.00    +0.100 C 
BRANCH  15  18
ATOM      2  O   UNL     1       4.889  -0.095  -1.803  0.00  0.00    -0.276 OA
ATOM      5  N   UNL     1       6.620  -0.825  -0.442  0.00  0.00    -0.300 N 
ATOM     18  C   UNL     1       5.274  -0.577  -0.734  0.00  0.00    +0.216 C 
ATOM     23  C   UNL     1       7.051  -1.396   0.829  0.00  0.00    +0.132 C 
BRANCH   5  22
ATOM     22  C   UNL     1       7.694  -0.532  -1.387  0.00  0.00    +0.144 C 
BRANCH  22  27
ATOM      8  N   UNL     1      10.055   2.237  -0.359  0.00  0.00    -0.263 NA
ATOM     27  C   UNL     1       8.260   0.843  -1.186  0.00  0.00    -0.012 A 
ATOM     32  C   UNL     1       7.568   1.972  -1.608  0.00  0.00    +0.008 A 
ATOM     33  C   UNL     1       9.489   1.028  -0.572  0.00  0.00    +0.115 A 
ATOM     35  C   UNL     1       8.117   3.234  -1.407  0.00  0.00    +0.020 A 
ATOM     38  C   UNL     1       9.352   3.312  -0.783  0.00  0.00    +0.111 A 
ENDBRANCH  22  27
ENDBRANCH   5  22
ENDBRANCH  15  18
ENDBRANCH  10  15
TORSDOF 8
