REMARK  Name = 25389753
REMARK  10 active torsions:
REMARK  status: ('A' for Active; 'I' for Inactive)
REMARK    1  A    between atoms: O_4  and  C_23
REMARK    2  A    between atoms: O_4  and  C_35
REMARK    3  A    between atoms: O_6  and  C_29
REMARK    4  A    between atoms: O_7  and  C_34
REMARK    5  A    between atoms: O_7  and  C_36
REMARK    6  A    between atoms: N_10  and  C_14
REMARK    7  A    between atoms: N_10  and  C_24
REMARK    8  A    between atoms: C_12  and  C_20
REMARK    9  A    between atoms: C_16  and  C_23
REMARK   10  A    between atoms: C_24  and  C_29
REMARK                            x       y       z     vdW  Elec       q    Type
REMARK                         _______ _______ _______ _____ _____    ______ ____
ROOT
ATOM      8  N   UNL     1       0.328  -0.187   1.290  0.00  0.00    -0.274 NA
ATOM      9  N   UNL     1       3.935   0.667   0.521  0.00  0.00    -0.356 N 
ATOM     11  C   UNL     1       1.806  -0.333   1.563  0.00  0.00    +0.106 C 
ATOM     12  C   UNL     1      -0.061  -0.783  -0.026  0.00  0.00    +0.090 C 
ATOM     13  C   UNL     1       2.311  -1.770   1.381  0.00  0.00    +0.044 C 
ATOM     14  C   UNL     1       1.974  -2.318  -0.002  0.00  0.00    +0.057 C 
ATOM     15  C   UNL     1       0.466  -2.231  -0.202  0.00  0.00    +0.042 C 
ATOM     16  C   UNL     1      -0.012   1.265   1.464  0.00  0.00    +0.172 C 
ATOM     17  C   UNL     1       2.595   0.694   0.788  0.00  0.00    +0.038 A 
ATOM     18  C   UNL     1       0.637   2.210   0.425  0.00  0.00    +0.068 C 
ATOM     19  C   UNL     1       2.081   1.869   0.275  0.00  0.00    -0.016 A 
ATOM     21  C   UNL     1       3.141   2.567  -0.361  0.00  0.00    +0.003 A 
ATOM     22  C   UNL     1       4.293   1.792  -0.193  0.00  0.00    +0.047 A 
ATOM     27  C   UNL     1       3.241   3.785  -1.063  0.00  0.00    +0.010 A 
ATOM     28  C   UNL     1       5.541   2.179  -0.694  0.00  0.00    +0.026 A 
ATOM     30  C   UNL     1       4.483   4.182  -1.570  0.00  0.00    +0.001 A 
ATOM     33  C   UNL     1       5.614   3.390  -1.388  0.00  0.00    +0.002 A 
ATOM     37  H   UNL     1       4.575  -0.066   0.794  0.00  0.00    +0.166 HD
ENDROOT
BRANCH  12  20
ATOM     20  C   UNL     1      -1.566  -0.840  -0.274  0.00  0.00    -0.030 A 
ATOM     25  C   UNL     1      -2.115  -0.199  -1.384  0.00  0.00    +0.009 A 
ATOM     26  C   UNL     1      -2.393  -1.534   0.610  0.00  0.00    +0.009 A 
ATOM     31  C   UNL     1      -3.491  -0.251  -1.611  0.00  0.00    +0.046 A 
ATOM     32  C   UNL     1      -3.768  -1.587   0.384  0.00  0.00    +0.046 A 
ATOM     34  C   UNL     1      -4.317  -0.945  -0.727  0.00  0.00    +0.130 A 
BRANCH  34   7
ATOM      7  O   UNL     1      -5.659  -0.997  -0.948  0.00  0.00    -0.406 OA
BRANCH   7  36
ATOM      1  F   UNL     1      -7.636   0.008  -0.531  0.00  0.00    -0.133 F 
ATOM      2  F   UNL     1      -5.809   1.159  -0.197  0.00  0.00    -0.133 F 
ATOM      3  F   UNL     1      -6.478   0.695  -2.252  0.00  0.00    -0.133 F 
ATOM     36  C   UNL     1      -6.383   0.228  -0.989  0.00  0.00    +0.575 C 
ENDBRANCH   7  36
ENDBRANCH  34   7
ENDBRANCH  12  20
BRANCH  16  23
ATOM      5  O   UNL     1      -2.119   2.240   0.844  0.00  0.00    -0.249 OA
ATOM     23  C   UNL     1      -1.488   1.472   1.558  0.00  0.00    +0.325 C 
BRANCH  23   4
ATOM      4  O   UNL     1      -1.996   0.684   2.547  0.00  0.00    -0.467 OA
ATOM     35  C   UNL     1      -3.410   0.783   2.747  0.00  0.00    +0.280 C 
ENDBRANCH  23   4
ENDBRANCH  16  23
BRANCH  14  10
ATOM     10  N   UNL     1       2.419  -3.705  -0.133  0.00  0.00    -0.311 NA
ATOM     38  H   UNL     1       1.919  -4.155  -0.901  0.00  0.00    +0.122 HD
BRANCH  10  24
ATOM     24  C   UNL     1       3.846  -3.766  -0.405  0.00  0.00    +0.109 C 
BRANCH  24  29
ATOM     29  C   UNL     1       4.298  -5.206  -0.584  0.00  0.00    +0.171 C 
BRANCH  29   6
ATOM      6  O   UNL     1       5.692  -5.216  -0.863  0.00  0.00    -0.394 OA
ATOM     39  H   UNL     1       5.954  -6.146  -0.972  0.00  0.00    +0.209 HD
ENDBRANCH  29   6
ENDBRANCH  24  29
ENDBRANCH  10  24
ENDBRANCH  14  10
TORSDOF 9
