REMARK  Name = 11885915
REMARK  5 active torsions:
REMARK  status: ('A' for Active; 'I' for Inactive)
REMARK    1  A    between atoms: O_4  and  C_29
REMARK    2  A    between atoms: O_4  and  C_34
REMARK    3  A    between atoms: N_7  and  C_20
REMARK    4  A    between atoms: N_9  and  C_28
REMARK    5  A    between atoms: C_19  and  C_22
REMARK                            x       y       z     vdW  Elec       q    Type
REMARK                         _______ _______ _______ _____ _____    ______ ____
ROOT
ATOM      1  O   UNL     1      -0.229   2.582   1.373  0.00  0.00    -0.266 OA
ATOM      2  O   UNL     1      -3.942  -0.826   2.542  0.00  0.00    -0.268 OA
ATOM      5  N   UNL     1      -4.450   0.088   0.449  0.00  0.00    -0.295 N 
ATOM      6  N   UNL     1      -1.955   1.973  -0.079  0.00  0.00    -0.310 N 
ATOM     10  C   UNL     1      -4.407   2.574   0.355  0.00  0.00    +0.027 C 
ATOM     11  C   UNL     1      -3.802   1.264  -1.640  0.00  0.00    +0.054 C 
ATOM     12  C   UNL     1      -4.544   2.512  -1.162  0.00  0.00    +0.018 C 
ATOM     13  C   UNL     1      -5.018   1.317   1.001  0.00  0.00    +0.113 C 
ATOM     14  C   UNL     1      -2.925   2.744   0.711  0.00  0.00    +0.130 C 
ATOM     15  C   UNL     1      -4.450   0.009  -1.021  0.00  0.00    +0.117 C 
ATOM     16  C   UNL     1      -2.335   1.322  -1.258  0.00  0.00    +0.027 A 
ATOM     17  C   UNL     1      -1.411   0.721  -2.026  0.00  0.00    +0.024 A 
ATOM     18  C   UNL     1      -0.614   2.008   0.353  0.00  0.00    +0.273 A 
ATOM     19  C   UNL     1      -3.945  -0.886   1.314  0.00  0.00    +0.265 C 
ATOM     20  C   UNL     1       0.380   1.303  -0.516  0.00  0.00    +0.100 A 
ATOM     21  C   UNL     1      -0.027   0.712  -1.645  0.00  0.00    +0.030 A 
ENDROOT
BRANCH  20   7
ATOM      3  O   UNL     1       2.293  -0.725  -1.079  0.00  0.00    -0.252 OA
ATOM      7  N   UNL     1       1.685   1.298  -0.122  0.00  0.00    -0.265 N 
ATOM      9  N   UNL     1       3.846   0.563   0.120  0.00  0.00    -0.266 N 
ATOM     24  C   UNL     1       2.591   0.272  -0.425  0.00  0.00    +0.308 C 
ATOM     35  H   UNL     1       1.944   1.938   0.623  0.00  0.00    +0.157 HD
ATOM     36  H   UNL     1       3.927   1.434   0.638  0.00  0.00    +0.156 HD
BRANCH   9  28
ATOM     28  C   UNL     1       5.027  -0.211   0.043  0.00  0.00    +0.077 A 
ATOM     29  C   UNL     1       6.191   0.236   0.649  0.00  0.00    +0.141 A 
ATOM     30  C   UNL     1       4.991  -1.414  -0.646  0.00  0.00    +0.027 A 
ATOM     31  C   UNL     1       7.347  -0.539   0.565  0.00  0.00    +0.047 A 
ATOM     32  C   UNL     1       6.148  -2.189  -0.731  0.00  0.00    +0.002 A 
ATOM     33  C   UNL     1       7.326  -1.751  -0.125  0.00  0.00    +0.004 A 
BRANCH  29   4
ATOM      4  O   UNL     1       6.232   1.418   1.327  0.00  0.00    -0.493 OA
ATOM     34  C   UNL     1       6.578   2.581   0.579  0.00  0.00    +0.277 C 
ENDBRANCH  29   4
ENDBRANCH   9  28
ENDBRANCH  20   7
BRANCH  19  22
ATOM      8  N   UNL     1      -2.019  -2.006   0.473  0.00  0.00    -0.250 NA
ATOM     22  C   UNL     1      -3.342  -2.085   0.722  0.00  0.00    +0.126 A 
ATOM     23  C   UNL     1      -4.125  -3.193   0.456  0.00  0.00    +0.033 A 
ATOM     25  C   UNL     1      -3.504  -4.302  -0.106  0.00  0.00    +0.004 A 
ATOM     26  C   UNL     1      -1.450  -3.104  -0.073  0.00  0.00    +0.111 A 
ATOM     27  C   UNL     1      -2.141  -4.265  -0.379  0.00  0.00    +0.020 A 
ENDBRANCH  19  22
TORSDOF 4
