REMARK  Name = 25317550
REMARK  11 active torsions:
REMARK  status: ('A' for Active; 'I' for Inactive)
REMARK    1  A    between atoms: O_3  and  C_10
REMARK    2  A    between atoms: O_4  and  C_25
REMARK    3  A    between atoms: O_4  and  C_29
REMARK    4  A    between atoms: N_5  and  C_8
REMARK    5  A    between atoms: N_5  and  C_14
REMARK    6  A    between atoms: N_5  and  C_15
REMARK    7  A    between atoms: N_6  and  C_9
REMARK    8  A    between atoms: N_6  and  C_16
REMARK    9  A    between atoms: C_14  and  C_17
REMARK   10  A    between atoms: C_16  and  C_18
REMARK   11  A    between atoms: C_17  and  C_19
REMARK                            x       y       z     vdW  Elec       q    Type
REMARK                         _______ _______ _______ _____ _____    ______ ____
ROOT
ATOM      1  O   UNL     1      -3.179  -1.706  -1.367  0.00  0.00    -0.343 OA
ATOM      2  O   UNL     1      -4.958  -1.069  -0.023  0.00  0.00    -0.347 OA
ATOM      8  C   UNL     1      -2.983   0.324  -0.075  0.00  0.00    +0.143 C 
ATOM      9  C   UNL     1      -2.115  -1.963   0.788  0.00  0.00    +0.116 C 
ATOM     10  C   UNL     1      -2.369  -0.468   1.103  0.00  0.00    +0.156 C 
ATOM     11  C   UNL     1      -3.147  -2.543  -0.206  0.00  0.00    +0.166 C 
ATOM     12  C   UNL     1      -3.926  -0.577  -0.894  0.00  0.00    +0.270 C 
ATOM     13  C   UNL     1      -4.588  -2.428   0.255  0.00  0.00    +0.196 C 
ENDROOT
BRANCH  10   3
ATOM      3  O   UNL     1      -3.283  -0.383   2.206  0.00  0.00    -0.388 OA
ATOM     31  H   UNL     1      -2.868  -0.828   2.965  0.00  0.00    +0.210 HD
ENDBRANCH  10   3
BRANCH   8   5
ATOM      5  N   UNL     1      -1.934   0.866  -0.939  0.00  0.00    -0.295 NA
ATOM     15  C   UNL     1      -2.475   1.188  -2.258  0.00  0.00    +0.105 C 
BRANCH   5  14
ATOM     14  C   UNL     1      -1.332   2.050  -0.329  0.00  0.00    +0.091 C 
BRANCH  14  17
ATOM     17  C   UNL     1       0.064   2.310  -0.897  0.00  0.00    +0.071 C 
BRANCH  17  19
ATOM      7  N   UNL     1       0.483   4.708  -0.860  0.00  0.00    -0.260 NA
ATOM     19  C   UNL     1       0.705   3.517  -0.260  0.00  0.00    +0.042 A 
ATOM     22  C   UNL     1       1.472   3.355   0.882  0.00  0.00    +0.023 A 
ATOM     26  C   UNL     1       2.048   4.488   1.446  0.00  0.00    +0.003 A 
ATOM     27  C   UNL     1       1.059   5.787  -0.284  0.00  0.00    +0.111 A 
ATOM     28  C   UNL     1       1.843   5.731   0.858  0.00  0.00    +0.020 A 
ENDBRANCH  17  19
ENDBRANCH  14  17
ENDBRANCH   5  14
ENDBRANCH   8   5
BRANCH   9   6
ATOM      6  N   UNL     1      -0.776  -2.149   0.219  0.00  0.00    -0.305 NA
ATOM     30  H   UNL     1      -0.603  -1.435  -0.489  0.00  0.00    +0.123 HD
BRANCH   6  16
ATOM     16  C   UNL     1       0.235  -2.081   1.260  0.00  0.00    +0.116 C 
BRANCH  16  18
ATOM     18  C   UNL     1       1.623  -2.264   0.706  0.00  0.00    -0.033 A 
ATOM     20  C   UNL     1       2.070  -3.536   0.349  0.00  0.00    +0.008 A 
ATOM     21  C   UNL     1       2.462  -1.160   0.549  0.00  0.00    +0.008 A 
ATOM     23  C   UNL     1       3.356  -3.705  -0.165  0.00  0.00    +0.046 A 
ATOM     24  C   UNL     1       3.748  -1.329   0.036  0.00  0.00    +0.046 A 
ATOM     25  C   UNL     1       4.195  -2.602  -0.321  0.00  0.00    +0.120 A 
BRANCH  25   4
ATOM      4  O   UNL     1       5.449  -2.766  -0.822  0.00  0.00    -0.495 OA
ATOM     29  C   UNL     1       6.254  -1.596  -0.956  0.00  0.00    +0.277 C 
ENDBRANCH  25   4
ENDBRANCH  16  18
ENDBRANCH   6  16
ENDBRANCH   9   6
TORSDOF 9
