REMARK  Name = 38030163
REMARK  10 active torsions:
REMARK  status: ('A' for Active; 'I' for Inactive)
REMARK    1  A    between atoms: O_1  and  C_13
REMARK    2  A    between atoms: N_3  and  C_18
REMARK    3  A    between atoms: C_5  and  C_9
REMARK    4  A    between atoms: C_7  and  C_13
REMARK    5  A    between atoms: C_8  and  C_12
REMARK    6  A    between atoms: C_9  and  C_14
REMARK    7  A    between atoms: C_9  and  C_15
REMARK    8  A    between atoms: C_10  and  C_16
REMARK    9  A    between atoms: C_12  and  C_17
REMARK   10  A    between atoms: C_18  and  C_19
REMARK                            x       y       z     vdW  Elec       q    Type
REMARK                         _______ _______ _______ _____ _____    ______ ____
ROOT
ATOM      5  C   UNL     1       1.973  -1.035  -0.009  0.00  0.00    +0.001 C 
ATOM      6  C   UNL     1       1.304  -0.090  -1.018  0.00  0.00    +0.012 C 
ATOM      7  C   UNL     1       3.499  -0.773   0.049  0.00  0.00    +0.040 C 
ATOM      8  C   UNL     1       1.532   1.393  -0.667  0.00  0.00    +0.023 C 
ATOM     10  C   UNL     1       2.983   1.676  -0.333  0.00  0.00    -0.073 C 
ATOM     11  C   UNL     1       3.850   0.694  -0.029  0.00  0.00    -0.022 C 
ATOM     16  C   UNL     1       3.426   3.111  -0.401  0.00  0.00    +0.039 C 
ENDROOT
BRANCH   5   9
ATOM      9  C   UNL     1       1.659  -2.490  -0.374  0.00  0.00    -0.013 C 
ATOM     14  C   UNL     1       0.278  -2.882   0.142  0.00  0.00    +0.007 C 
ATOM     15  C   UNL     1       1.750  -2.691  -1.883  0.00  0.00    +0.007 C 
ENDBRANCH   5   9
BRANCH   8  12
ATOM     12  C   UNL     1       0.610   1.838   0.473  0.00  0.00    +0.103 C 
BRANCH  12  17
ATOM      2  O   UNL     1      -1.135   2.348  -1.125  0.00  0.00    -0.276 OA
ATOM      3  N   UNL     1      -1.710   1.731   1.041  0.00  0.00    -0.310 N 
ATOM     17  C   UNL     1      -0.821   2.008   0.013  0.00  0.00    +0.214 C 
ATOM     25  H   UNL     1      -1.353   1.455   1.951  0.00  0.00    +0.149 HD
BRANCH   3  18
ATOM     18  C   UNL     1      -3.144   1.813   0.887  0.00  0.00    +0.159 C 
BRANCH  18  19
ATOM      4  N   UNL     1      -4.420   0.471  -0.685  0.00  0.00    -0.258 NA
ATOM     19  C   UNL     1      -3.743   0.496   0.485  0.00  0.00    +0.058 A 
ATOM     20  C   UNL     1      -3.578  -0.605   1.310  0.00  0.00    +0.025 A 
ATOM     21  C   UNL     1      -4.145  -1.809   0.908  0.00  0.00    +0.003 A 
ATOM     22  C   UNL     1      -4.957  -0.717  -1.043  0.00  0.00    +0.111 A 
ATOM     23  C   UNL     1      -4.849  -1.875  -0.289  0.00  0.00    +0.020 A 
ENDBRANCH  18  19
ENDBRANCH   3  18
ENDBRANCH  12  17
ENDBRANCH   8  12
BRANCH   7  13
ATOM     13  C   UNL     1       4.117  -1.380   1.313  0.00  0.00    +0.163 C 
BRANCH  13   1
ATOM      1  O   UNL     1       5.521  -1.230   1.237  0.00  0.00    -0.394 OA
ATOM     24  H   UNL     1       5.896  -1.611   2.049  0.00  0.00    +0.209 HD
ENDBRANCH  13   1
ENDBRANCH   7  13
TORSDOF 7
