REMARK  Name = 11879617
REMARK  8 active torsions:
REMARK  status: ('A' for Active; 'I' for Inactive)
REMARK    1  A    between atoms: S_1  and  N_8
REMARK    2  A    between atoms: S_1  and  C_22
REMARK    3  A    between atoms: O_4  and  C_21
REMARK    4  A    between atoms: O_4  and  C_25
REMARK    5  A    between atoms: N_8  and  C_17
REMARK    6  A    between atoms: N_9  and  C_18
REMARK    7  A    between atoms: N_13  and  C_28
REMARK    8  A    between atoms: C_23  and  C_37
REMARK                            x       y       z     vdW  Elec       q    Type
REMARK                         _______ _______ _______ _____ _____    ______ ____
ROOT
ATOM      2  O   UNL     1      -4.673   0.592   0.132  0.00  0.00    -0.370 OA
ATOM      3  O   UNL     1      -2.288   0.452  -1.934  0.00  0.00    -0.370 OA
ATOM     15  C   UNL     1      -2.449   0.088  -0.554  0.00  0.00    +0.170 C 
ATOM     16  C   UNL     1      -3.338   1.130   0.097  0.00  0.00    +0.175 C 
ATOM     17  C   UNL     1      -3.234  -1.198  -0.444  0.00  0.00    +0.133 C 
ATOM     18  C   UNL     1      -3.288   2.322  -0.840  0.00  0.00    +0.171 C 
ATOM     19  C   UNL     1      -4.671  -0.718  -0.451  0.00  0.00    +0.183 C 
ATOM     20  C   UNL     1      -2.975   1.685  -2.188  0.00  0.00    +0.190 C 
ENDROOT
BRANCH  18   9
ATOM      9  N   UNL     1      -2.332   3.342  -0.399  0.00  0.00    -0.187 N 
ATOM     10  N   UNL     1      -2.728   4.596  -0.163  0.00  0.00    -0.041 NA
ATOM     11  N   UNL     1      -0.539   4.385   0.208  0.00  0.00    -0.071 NA
ATOM     12  N   UNL     1      -1.624   5.233   0.210  0.00  0.00    -0.020 NA
ATOM     21  C   UNL     1      -1.003   3.217  -0.173  0.00  0.00    +0.342 A 
BRANCH  21   4
ATOM      4  O   UNL     1      -0.311   2.103  -0.319  0.00  0.00    -0.423 OA
BRANCH   4  25
ATOM     25  C   UNL     1       0.816   1.819   0.440  0.00  0.00    +0.134 A 
ATOM     28  C   UNL     1       3.072   1.033   0.573  0.00  0.00    +0.033 A 
ATOM     29  C   UNL     1       1.940   1.319  -0.190  0.00  0.00    +0.069 A 
ATOM     32  C   UNL     1       0.781   2.044   1.802  0.00  0.00    +0.046 A 
ATOM     36  C   UNL     1       3.059   1.253   1.951  0.00  0.00    +0.023 A 
ATOM     38  C   UNL     1       1.914   1.759   2.565  0.00  0.00    +0.005 A 
BRANCH  28  13
ATOM      7  O   UNL     1       6.668  -0.283  -1.164  0.00  0.00    -0.377 OA
ATOM     13  N   UNL     1       4.221   0.526  -0.043  0.00  0.00    -0.325 N 
ATOM     30  C   UNL     1       4.865   1.337  -1.085  0.00  0.00    +0.133 C 
ATOM     31  C   UNL     1       5.122  -0.359   0.704  0.00  0.00    +0.133 C 
ATOM     34  C   UNL     1       5.738   0.448  -1.964  0.00  0.00    +0.178 C 
ATOM     35  C   UNL     1       5.982  -1.157  -0.269  0.00  0.00    +0.178 C 
ENDBRANCH  28  13
ENDBRANCH   4  25
ENDBRANCH  21   4
ENDBRANCH  18   9
BRANCH  17   8
ATOM      8  N   UNL     1      -2.936  -1.861   0.849  0.00  0.00    -0.182 NA
ATOM     39  H   UNL     1      -2.836  -1.264   1.679  0.00  0.00    +0.148 HD
BRANCH   8   1
ATOM      1  S   UNL     1      -2.394  -3.469   0.867  0.00  0.00    +0.060 S 
ATOM      5  O   UNL     1      -3.327  -4.302   0.132  0.00  0.00    -0.153 OA
ATOM      6  O   UNL     1      -2.015  -3.819   2.223  0.00  0.00    -0.153 OA
BRANCH   1  22
ATOM     22  C   UNL     1      -0.901  -3.362  -0.074  0.00  0.00    +0.123 A 
ATOM     23  C   UNL     1       0.220  -2.716   0.425  0.00  0.00    +0.078 A 
ATOM     24  C   UNL     1      -0.891  -3.947  -1.333  0.00  0.00    +0.030 A 
ATOM     26  C   UNL     1       1.378  -2.654  -0.351  0.00  0.00    +0.021 A 
ATOM     27  C   UNL     1       0.267  -3.885  -2.108  0.00  0.00    +0.002 A 
ATOM     33  C   UNL     1       1.401  -3.238  -1.618  0.00  0.00    +0.001 A 
BRANCH  23  37
ATOM     14  N   UNL     1       0.241  -1.609   2.767  0.00  0.00    -0.191 NA
ATOM     37  C   UNL     1       0.232  -2.105   1.719  0.00  0.00    +0.101 C 
ENDBRANCH  23  37
ENDBRANCH   1  22
ENDBRANCH   8   1
ENDBRANCH  17   8
TORSDOF 8
