REMARK  Name = 56774180
REMARK  8 active torsions:
REMARK  status: ('A' for Active; 'I' for Inactive)
REMARK    1  A    between atoms: N_3  and  C_7
REMARK    2  A    between atoms: C_5  and  C_10
REMARK    3  A    between atoms: C_5  and  C_11
REMARK    4  A    between atoms: C_6  and  C_9
REMARK    5  A    between atoms: C_9  and  C_12
REMARK    6  A    between atoms: C_13  and  C_14
REMARK    7  A    between atoms: C_20  and  C_21
REMARK    8  A    between atoms: C_21  and  C_22
REMARK                            x       y       z     vdW  Elec       q    Type
REMARK                         _______ _______ _______ _____ _____    ______ ____
ROOT
ATOM      5  C   UNL     1      -2.026   1.164   0.724  0.00  0.00    -0.013 C 
ATOM      6  C   UNL     1      -0.504   1.025   0.509  0.00  0.00    +0.004 C 
ATOM      7  C   UNL     1      -2.080  -0.377   0.787  0.00  0.00    +0.079 C 
ATOM      8  C   UNL     1      -0.790  -0.381  -0.060  0.00  0.00    +0.027 C 
ATOM     10  C   UNL     1      -2.453   1.821   2.023  0.00  0.00    +0.013 C 
ATOM     11  C   UNL     1      -2.745   1.811  -0.439  0.00  0.00    +0.013 C 
ENDROOT
BRANCH   7   3
ATOM      1  O   UNL     1      -4.833  -0.377   1.672  0.00  0.00    -0.276 OA
ATOM      3  N   UNL     1      -3.227  -1.002   0.116  0.00  0.00    -0.312 N 
ATOM     13  C   UNL     1      -4.516  -0.943   0.627  0.00  0.00    +0.216 C 
ATOM     28  H   UNL     1      -3.082  -1.518  -0.749  0.00  0.00    +0.149 HD
BRANCH  13  14
ATOM     14  C   UNL     1      -5.529  -1.660  -0.212  0.00  0.00    +0.075 C 
ATOM     15  C   UNL     1      -6.924  -1.539   0.404  0.00  0.00    +0.013 C 
ATOM     16  C   UNL     1      -5.617  -1.018  -1.602  0.00  0.00    +0.013 C 
ATOM     17  C   UNL     1      -7.595  -0.420  -0.380  0.00  0.00    +0.001 C 
ATOM     18  C   UNL     1      -7.081  -0.636  -1.792  0.00  0.00    +0.001 C 
ENDBRANCH  13  14
ENDBRANCH   7   3
BRANCH   6   9
ATOM      9  C   UNL     1       0.158   1.997  -0.477  0.00  0.00    +0.063 C 
BRANCH   9  12
ATOM      2  O   UNL     1       3.655   2.273   0.192  0.00  0.00    -0.359 OA
ATOM      4  N   UNL     1       2.330   2.633   0.408  0.00  0.00    -0.083 NA
ATOM     12  C   UNL     1       1.624   1.877  -0.437  0.00  0.00    +0.084 A 
ATOM     19  C   UNL     1       2.441   1.030  -1.205  0.00  0.00    +0.071 A 
ATOM     22  C   UNL     1       3.708   1.318  -0.771  0.00  0.00    +0.138 A 
BRANCH  22  21
ATOM     21  C   UNL     1       5.075   0.807  -1.136  0.00  0.00    +0.080 C 
BRANCH  21  20
ATOM     20  C   UNL     1       5.296  -0.570  -0.512  0.00  0.00    -0.004 C 
ATOM     23  C   UNL     1       5.643  -0.440   0.978  0.00  0.00    +0.004 C 
ATOM     24  C   UNL     1       6.393  -1.336  -1.263  0.00  0.00    +0.004 C 
ATOM     25  C   UNL     1       5.920  -1.801   1.612  0.00  0.00    +0.000 C 
ATOM     26  C   UNL     1       6.669  -2.695  -0.625  0.00  0.00    +0.000 C 
ATOM     27  C   UNL     1       7.005  -2.564   0.857  0.00  0.00    +0.000 C 
ENDBRANCH  21  20
ENDBRANCH  22  21
ENDBRANCH   9  12
ENDBRANCH   6   9
TORSDOF 6
