REMARK  Name = 26742406
REMARK  7 active torsions:
REMARK  status: ('A' for Active; 'I' for Inactive)
REMARK    1  A    between atoms: S_1  and  N_6
REMARK    2  A    between atoms: S_1  and  C_21
REMARK    3  A    between atoms: N_6  and  C_16
REMARK    4  A    between atoms: C_10  and  C_17
REMARK    5  A    between atoms: C_11  and  C_16
REMARK    6  A    between atoms: C_19  and  C_22
REMARK    7  A    between atoms: C_20  and  C_23
REMARK                            x       y       z     vdW  Elec       q    Type
REMARK                         _______ _______ _______ _____ _____    ______ ____
ROOT
ATOM      5  N   UNL     1      -2.241  -2.032   1.409  0.00  0.00    -0.297 NA
ATOM      9  C   UNL     1      -1.462  -2.268  -1.065  0.00  0.00    +0.002 C 
ATOM     10  C   UNL     1      -0.242  -2.034  -0.130  0.00  0.00    +0.055 C 
ATOM     11  C   UNL     1      -3.045  -1.137   0.536  0.00  0.00    +0.072 C 
ATOM     12  C   UNL     1      -2.464  -1.107  -0.895  0.00  0.00    +0.024 C 
ATOM     13  C   UNL     1      -2.163  -3.550  -0.568  0.00  0.00    +0.019 C 
ATOM     14  C   UNL     1      -0.799  -1.703   1.284  0.00  0.00    +0.094 C 
ATOM     15  C   UNL     1      -2.441  -3.424   0.940  0.00  0.00    +0.085 C 
ENDROOT
BRANCH  10  17
ATOM      7  N   UNL     1       0.625  -0.427  -1.759  0.00  0.00    -0.237 NA
ATOM      8  N   UNL     1       2.707   0.739  -1.428  0.00  0.00    -0.232 NA
ATOM     17  C   UNL     1       0.825  -1.045  -0.576  0.00  0.00    +0.050 A 
ATOM     18  C   UNL     1       1.927  -0.826   0.226  0.00  0.00    +0.052 A 
ATOM     19  C   UNL     1       2.845   0.085  -0.256  0.00  0.00    +0.081 A 
ATOM     20  C   UNL     1       1.591   0.439  -2.118  0.00  0.00    +0.127 A 
ATOM     23  C   UNL     1       1.403   1.143  -3.420  0.00  0.00    +0.088 C 
BRANCH  19  22
ATOM      2  S   UNL     1       5.444   0.867  -0.387  0.00  0.00    -0.095 S 
ATOM     22  C   UNL     1       4.039   0.407   0.478  0.00  0.00    +0.038 A 
ATOM     24  C   UNL     1       4.249   0.404   1.840  0.00  0.00    +0.017 A 
ATOM     25  C   UNL     1       5.580   0.785   2.178  0.00  0.00    +0.008 A 
ATOM     26  C   UNL     1       6.337   1.065   1.061  0.00  0.00    +0.046 A 
ENDBRANCH  19  22
ENDBRANCH  10  17
BRANCH  11  16
ATOM     16  C   UNL     1      -3.193   0.269   1.120  0.00  0.00    +0.124 C 
BRANCH  16   6
ATOM      6  N   UNL     1      -4.099   1.055   0.267  0.00  0.00    -0.193 NA
ATOM     27  H   UNL     1      -5.071   0.715   0.277  0.00  0.00    +0.148 HD
BRANCH   6   1
ATOM      1  S   UNL     1      -3.892   2.747   0.165  0.00  0.00    +0.027 S 
ATOM      3  O   UNL     1      -5.050   3.346  -0.469  0.00  0.00    -0.158 OA
ATOM      4  O   UNL     1      -2.554   3.019  -0.324  0.00  0.00    -0.158 OA
ATOM     21  C   UNL     1      -3.926   3.184   1.889  0.00  0.00    +0.214 C 
ENDBRANCH   6   1
ENDBRANCH  16   6
ENDBRANCH  11  16
TORSDOF 5
