REMARK  Name = 71693885
REMARK  9 active torsions:
REMARK  status: ('A' for Active; 'I' for Inactive)
REMARK    1  A    between atoms: O_1  and  C_9
REMARK    2  A    between atoms: O_2  and  C_11
REMARK    3  A    between atoms: O_4  and  C_18
REMARK    4  A    between atoms: O_4  and  C_25
REMARK    5  A    between atoms: O_5  and  C_22
REMARK    6  A    between atoms: O_5  and  C_26
REMARK    7  A    between atoms: N_6  and  C_8
REMARK    8  A    between atoms: C_7  and  C_12
REMARK    9  A    between atoms: C_15  and  C_19
REMARK                            x       y       z     vdW  Elec       q    Type
REMARK                         _______ _______ _______ _____ _____    ______ ____
ROOT
ATOM      7  C   UNL     1       1.326   1.379   0.960  0.00  0.00    +0.044 C 
ATOM      8  C   UNL     1       0.276   1.679  -0.134  0.00  0.00    +0.112 C 
ATOM      9  C   UNL     1      -0.004   3.171   0.042  0.00  0.00    +0.164 C 
ATOM     10  C   UNL     1       2.006   2.736   1.277  0.00  0.00    +0.044 C 
ATOM     11  C   UNL     1       1.376   3.751   0.325  0.00  0.00    +0.145 C 
ENDROOT
BRANCH   7  12
ATOM     12  C   UNL     1       2.287   0.275   0.571  0.00  0.00    -0.042 A 
ATOM     13  C   UNL     1       3.086   0.414  -0.564  0.00  0.00    +0.007 A 
ATOM     14  C   UNL     1       2.373  -0.880   1.348  0.00  0.00    +0.007 A 
ATOM     16  C   UNL     1       3.971  -0.603  -0.922  0.00  0.00    +0.046 A 
ATOM     17  C   UNL     1       3.258  -1.897   0.990  0.00  0.00    +0.046 A 
ATOM     18  C   UNL     1       4.057  -1.758  -0.145  0.00  0.00    +0.120 A 
BRANCH  18   4
ATOM      4  O   UNL     1       4.920  -2.751  -0.495  0.00  0.00    -0.495 OA
ATOM     25  C   UNL     1       4.957  -3.905   0.344  0.00  0.00    +0.277 C 
ENDBRANCH  18   4
ENDBRANCH   7  12
BRANCH   8   6
ATOM      3  O   UNL     1      -0.284  -0.847  -1.379  0.00  0.00    -0.270 OA
ATOM      6  N   UNL     1      -0.916   0.885   0.028  0.00  0.00    -0.305 N 
ATOM     15  C   UNL     1      -1.098  -0.330  -0.619  0.00  0.00    +0.244 C 
ATOM     27  H   UNL     1      -1.585   1.198   0.723  0.00  0.00    +0.149 HD
BRANCH  15  19
ATOM     19  C   UNL     1      -2.393  -1.013  -0.367  0.00  0.00    +0.040 A 
ATOM     20  C   UNL     1      -3.522  -0.267  -0.032  0.00  0.00    +0.058 A 
ATOM     21  C   UNL     1      -2.479  -2.402  -0.467  0.00  0.00    +0.013 A 
ATOM     22  C   UNL     1      -4.738  -0.909   0.204  0.00  0.00    +0.121 A 
ATOM     23  C   UNL     1      -3.695  -3.044  -0.231  0.00  0.00    +0.004 A 
ATOM     24  C   UNL     1      -4.825  -2.297   0.104  0.00  0.00    +0.045 A 
BRANCH  22   5
ATOM      5  O   UNL     1      -5.840  -0.180   0.531  0.00  0.00    -0.495 OA
ATOM     26  C   UNL     1      -5.682   1.235   0.616  0.00  0.00    +0.277 C 
ENDBRANCH  22   5
ENDBRANCH  15  19
ENDBRANCH   8   6
BRANCH   9   1
ATOM      1  O   UNL     1      -0.574   3.750  -1.117  0.00  0.00    -0.387 OA
ATOM     28  H   UNL     1      -0.635   4.708  -0.964  0.00  0.00    +0.210 HD
ENDBRANCH   9   1
BRANCH  11   2
ATOM      2  O   UNL     1       2.159   3.808  -0.864  0.00  0.00    -0.389 OA
ATOM     29  H   UNL     1       3.038   4.147  -0.619  0.00  0.00    +0.210 HD
ENDBRANCH  11   2
TORSDOF 7
