REMARK  Name = 26743608
REMARK  6 active torsions:
REMARK  status: ('A' for Active; 'I' for Inactive)
REMARK    1  A    between atoms: O_4  and  C_11
REMARK    2  A    between atoms: N_6  and  C_13
REMARK    3  A    between atoms: C_9  and  C_14
REMARK    4  A    between atoms: C_13  and  C_15
REMARK    5  A    between atoms: C_16  and  C_19
REMARK    6  A    between atoms: C_27  and  C_28
REMARK                            x       y       z     vdW  Elec       q    Type
REMARK                         _______ _______ _______ _____ _____    ______ ____
ROOT
ATOM      5  O   UNL     1      -0.471   2.731  -1.520  0.00  0.00    -0.336 OA
ATOM      7  N   UNL     1      -0.139   1.056  -0.071  0.00  0.00    -0.190 NA
ATOM      8  N   UNL     1       0.902   2.457  -1.550  0.00  0.00    -0.056 NA
ATOM     14  C   UNL     1      -1.009   1.862  -0.624  0.00  0.00    +0.245 A 
ATOM     16  C   UNL     1       1.019   1.458  -0.670  0.00  0.00    +0.202 A 
ENDROOT
BRANCH  16  19
ATOM     19  C   UNL     1       2.278   0.842  -0.365  0.00  0.00    +0.022 A 
ATOM     23  C   UNL     1       2.340  -0.197   0.565  0.00  0.00    +0.012 A 
ATOM     24  C   UNL     1       3.441   1.280  -0.998  0.00  0.00    +0.012 A 
ATOM     25  C   UNL     1       3.564  -0.796   0.861  0.00  0.00    +0.013 A 
ATOM     26  C   UNL     1       4.665   0.681  -0.703  0.00  0.00    +0.013 A 
ATOM     27  C   UNL     1       4.726  -0.357   0.227  0.00  0.00    +0.055 A 
BRANCH  27  28
ATOM      1  F   UNL     1       6.640  -1.572  -0.539  0.00  0.00    -0.166 F 
ATOM      2  F   UNL     1       5.922  -1.994   1.470  0.00  0.00    -0.166 F 
ATOM      3  F   UNL     1       6.961  -0.131   1.050  0.00  0.00    -0.166 F 
ATOM     28  C   UNL     1       6.035  -0.998   0.543  0.00  0.00    +0.417 C 
ENDBRANCH  27  28
ENDBRANCH  16  19
BRANCH  14   9
ATOM      6  N   UNL     1      -3.099   0.672   0.018  0.00  0.00    -0.285 NA
ATOM      9  C   UNL     1      -2.505   1.956  -0.408  0.00  0.00    +0.149 C 
ATOM     10  C   UNL     1      -2.885   2.953   0.702  0.00  0.00    +0.061 C 
ATOM     11  C   UNL     1      -3.729   2.149   1.683  0.00  0.00    +0.130 C 
ATOM     12  C   UNL     1      -4.261   1.007   0.839  0.00  0.00    +0.116 C 
BRANCH  11   4
ATOM      4  O   UNL     1      -4.774   2.942   2.213  0.00  0.00    -0.390 OA
ATOM     29  H   UNL     1      -4.365   3.694   2.674  0.00  0.00    +0.210 HD
ENDBRANCH  11   4
BRANCH   6  13
ATOM     13  C   UNL     1      -3.448  -0.198  -1.097  0.00  0.00    +0.120 C 
BRANCH  13  15
ATOM     15  C   UNL     1      -3.576  -1.635  -0.668  0.00  0.00    -0.033 A 
ATOM     17  C   UNL     1      -2.463  -2.475  -0.701  0.00  0.00    +0.005 A 
ATOM     18  C   UNL     1      -4.808  -2.127  -0.238  0.00  0.00    +0.005 A 
ATOM     20  C   UNL     1      -2.582  -3.807  -0.304  0.00  0.00    +0.000 A 
ATOM     21  C   UNL     1      -4.928  -3.459   0.159  0.00  0.00    +0.000 A 
ATOM     22  C   UNL     1      -3.814  -4.299   0.126  0.00  0.00    +0.000 A 
ENDBRANCH  13  15
ENDBRANCH   6  13
ENDBRANCH  14   9
TORSDOF 6
