REMARK  Name = 7052042
REMARK  11 active torsions:
REMARK  status: ('A' for Active; 'I' for Inactive)
REMARK    1  A    between atoms: O_4  and  C_27
REMARK    2  A    between atoms: O_4  and  C_34
REMARK    3  A    between atoms: N_8  and  C_24
REMARK    4  A    between atoms: N_9  and  C_25
REMARK    5  A    between atoms: C_11  and  C_18
REMARK    6  A    between atoms: C_16  and  C_22
REMARK    7  A    between atoms: C_24  and  C_26
REMARK    8  A    between atoms: C_24  and  C_27
REMARK    9  A    between atoms: C_25  and  C_29
REMARK   10  A    between atoms: C_25  and  C_30
REMARK   11  A    between atoms: C_26  and  C_28
REMARK                            x       y       z     vdW  Elec       q    Type
REMARK                         _______ _______ _______ _____ _____    ______ ____
ROOT
ATOM      1  O   UNL     1      -3.327   0.906   1.191  0.00  0.00    -0.275 OA
ATOM      3  O   UNL     1       0.935  -4.466  -1.431  0.00  0.00    -0.253 OA
ATOM      6  N   UNL     1      -2.348  -1.017   0.321  0.00  0.00    -0.287 N 
ATOM      7  N   UNL     1      -0.040  -2.720  -0.249  0.00  0.00    -0.282 N 
ATOM      9  N   UNL     1       2.119  -3.504   0.293  0.00  0.00    -0.297 N 
ATOM     16  C   UNL     1      -0.994  -0.565   0.639  0.00  0.00    +0.179 C 
ATOM     18  C   UNL     1      -3.434  -0.217   0.691  0.00  0.00    +0.219 C 
ATOM     19  C   UNL     1      -2.489  -2.351  -0.272  0.00  0.00    +0.127 C 
ATOM     20  C   UNL     1       0.009  -1.705   0.814  0.00  0.00    +0.141 C 
ATOM     21  C   UNL     1      -1.257  -2.779  -1.056  0.00  0.00    +0.128 C 
ATOM     23  C   UNL     1       1.003  -3.623  -0.530  0.00  0.00    +0.303 C 
ATOM     37  H   UNL     1       2.156  -2.803   1.021  0.00  0.00    +0.150 HD
ENDROOT
BRANCH  18  11
ATOM     11  C   UNL     1      -4.800  -0.789   0.442  0.00  0.00    +0.075 C 
ATOM     12  C   UNL     1      -5.251  -0.472  -0.985  0.00  0.00    +0.013 C 
ATOM     13  C   UNL     1      -5.798  -0.310   1.499  0.00  0.00    +0.013 C 
ATOM     14  C   UNL     1      -5.702   0.977  -1.163  0.00  0.00    +0.001 C 
ATOM     15  C   UNL     1      -6.260   1.132   1.289  0.00  0.00    +0.001 C 
ATOM     17  C   UNL     1      -6.755   1.369  -0.133  0.00  0.00    +0.000 C 
ENDBRANCH  18  11
BRANCH  16  22
ATOM      2  O   UNL     1      -0.930   0.232  -1.613  0.00  0.00    -0.274 OA
ATOM      8  N   UNL     1       0.306   1.350   0.012  0.00  0.00    -0.301 N 
ATOM     22  C   UNL     1      -0.556   0.371  -0.452  0.00  0.00    +0.236 C 
ATOM     36  H   UNL     1       0.570   1.355   0.994  0.00  0.00    +0.150 HD
BRANCH   8  24
ATOM     24  C   UNL     1       0.888   2.360  -0.842  0.00  0.00    +0.186 C 
BRANCH  24  27
ATOM      5  O   UNL     1       0.797   3.840   1.067  0.00  0.00    -0.249 OA
ATOM     27  C   UNL     1       1.042   3.696  -0.127  0.00  0.00    +0.328 C 
BRANCH  27   4
ATOM      4  O   UNL     1       1.459   4.684  -0.968  0.00  0.00    -0.467 OA
ATOM     34  C   UNL     1       1.611   5.979  -0.378  0.00  0.00    +0.280 C 
ENDBRANCH  27   4
ENDBRANCH  24  27
BRANCH  24  26
ATOM     26  C   UNL     1       2.209   1.887  -1.467  0.00  0.00    +0.070 C 
BRANCH  26  28
ATOM     10  N   UNL     1       5.214   2.455   0.774  0.00  0.00    -0.263 NA
ATOM     28  C   UNL     1       3.319   1.623  -0.475  0.00  0.00    -0.027 A 
ATOM     31  C   UNL     1       3.487   0.365   0.093  0.00  0.00    +0.006 A 
ATOM     32  C   UNL     1       4.201   2.625  -0.105  0.00  0.00    +0.114 A 
ATOM     33  C   UNL     1       4.518   0.151   1.002  0.00  0.00    +0.020 A 
ATOM     35  C   UNL     1       5.346   1.219   1.306  0.00  0.00    +0.111 A 
ENDBRANCH  26  28
ENDBRANCH  24  26
ENDBRANCH   8  24
ENDBRANCH  16  22
BRANCH   9  25
ATOM     25  C   UNL     1       3.278  -4.357   0.152  0.00  0.00    +0.068 C 
ATOM     29  C   UNL     1       3.937  -4.583   1.506  0.00  0.00    +0.027 C 
ATOM     30  C   UNL     1       4.261  -3.761  -0.848  0.00  0.00    +0.027 C 
ENDBRANCH   9  25
TORSDOF 8
