REMARK  Name = 38027630
REMARK  16 active torsions:
REMARK  status: ('A' for Active; 'I' for Inactive)
REMARK    1  A    between atoms: S_1  and  N_7
REMARK    2  A    between atoms: S_1  and  C_22
REMARK    3  A    between atoms: O_5  and  C_26
REMARK    4  A    between atoms: O_5  and  C_30
REMARK    5  A    between atoms: O_6  and  C_29
REMARK    6  A    between atoms: O_6  and  C_31
REMARK    7  A    between atoms: N_7  and  C_16
REMARK    8  A    between atoms: N_8  and  C_23
REMARK    9  A    between atoms: C_9  and  C_13
REMARK   10  A    between atoms: C_10  and  C_16
REMARK   11  A    between atoms: C_12  and  C_17
REMARK   12  A    between atoms: C_13  and  C_18
REMARK   13  A    between atoms: C_13  and  C_19
REMARK   14  A    between atoms: C_14  and  C_20
REMARK   15  A    between atoms: C_17  and  C_21
REMARK   16  A    between atoms: C_23  and  C_26
REMARK                            x       y       z     vdW  Elec       q    Type
REMARK                         _______ _______ _______ _____ _____    ______ ____
ROOT
ATOM      9  C   UNL     1      -1.041   1.003  -1.268  0.00  0.00    +0.000 C 
ATOM     10  C   UNL     1      -1.493   2.476  -1.114  0.00  0.00    +0.030 C 
ATOM     11  C   UNL     1      -2.262   0.076  -1.380  0.00  0.00    +0.012 C 
ATOM     12  C   UNL     1      -3.185   0.178  -0.151  0.00  0.00    +0.023 C 
ATOM     14  C   UNL     1      -3.461   1.619   0.228  0.00  0.00    -0.073 C 
ATOM     15  C   UNL     1      -2.703   2.634  -0.223  0.00  0.00    -0.023 C 
ATOM     20  C   UNL     1      -4.658   1.871   1.102  0.00  0.00    +0.039 C 
ENDROOT
BRANCH   9  13
ATOM     13  C   UNL     1      -0.132   0.811  -2.486  0.00  0.00    -0.013 C 
ATOM     18  C   UNL     1       0.380  -0.625  -2.547  0.00  0.00    +0.007 C 
ATOM     19  C   UNL     1      -0.874   1.176  -3.767  0.00  0.00    +0.007 C 
ENDBRANCH   9  13
BRANCH  10  16
ATOM     16  C   UNL     1      -0.352   3.353  -0.586  0.00  0.00    +0.113 C 
BRANCH  16   7
ATOM      7  N   UNL     1      -0.016   2.931   0.783  0.00  0.00    -0.189 NA
ATOM     32  H   UNL     1      -0.780   2.937   1.470  0.00  0.00    +0.148 HD
BRANCH   7   1
ATOM      1  S   UNL     1       1.575   3.103   1.367  0.00  0.00    +0.058 S 
ATOM      3  O   UNL     1       1.548   3.172   2.816  0.00  0.00    -0.153 OA
ATOM      4  O   UNL     1       2.254   4.130   0.600  0.00  0.00    -0.153 OA
BRANCH   1  22
ATOM     22  C   UNL     1       2.296   1.555   0.909  0.00  0.00    +0.105 A 
ATOM     24  C   UNL     1       2.918   1.416  -0.332  0.00  0.00    +0.032 A 
ATOM     25  C   UNL     1       2.242   0.473   1.787  0.00  0.00    +0.032 A 
ATOM     27  C   UNL     1       3.486   0.195  -0.694  0.00  0.00    +0.047 A 
ATOM     28  C   UNL     1       2.810  -0.748   1.425  0.00  0.00    +0.047 A 
ATOM     29  C   UNL     1       3.432  -0.887   0.184  0.00  0.00    +0.120 A 
BRANCH  29   6
ATOM      6  O   UNL     1       3.989  -2.078  -0.169  0.00  0.00    -0.495 OA
ATOM     31  C   UNL     1       4.610  -2.150  -1.451  0.00  0.00    +0.277 C 
ENDBRANCH  29   6
ENDBRANCH   1  22
ENDBRANCH   7   1
ENDBRANCH  16   7
ENDBRANCH  10  16
BRANCH  12  17
ATOM     17  C   UNL     1      -2.610  -0.602   1.037  0.00  0.00    +0.103 C 
BRANCH  17  21
ATOM      2  O   UNL     1      -3.675  -2.623   0.239  0.00  0.00    -0.276 OA
ATOM      8  N   UNL     1      -1.720  -2.774   1.488  0.00  0.00    -0.313 N 
ATOM     21  C   UNL     1      -2.755  -2.096   0.860  0.00  0.00    +0.214 C 
ATOM     33  H   UNL     1      -1.000  -2.250   1.976  0.00  0.00    +0.149 HD
BRANCH   8  23
ATOM     23  C   UNL     1      -1.603  -4.214   1.484  0.00  0.00    +0.132 C 
BRANCH  23  26
ATOM     26  C   UNL     1      -0.796  -4.705   0.296  0.00  0.00    +0.178 C 
BRANCH  26   5
ATOM      5  O   UNL     1       0.499  -4.121   0.332  0.00  0.00    -0.381 OA
ATOM     30  C   UNL     1       1.294  -4.547  -0.767  0.00  0.00    +0.194 C 
ENDBRANCH  26   5
ENDBRANCH  23  26
ENDBRANCH   8  23
ENDBRANCH  17  21
ENDBRANCH  12  17
TORSDOF 11
