REMARK  Name = 51137133
REMARK  6 active torsions:
REMARK  status: ('A' for Active; 'I' for Inactive)
REMARK    1  A    between atoms: S_1  and  C_23
REMARK    2  A    between atoms: S_1  and  C_25
REMARK    3  A    between atoms: N_5  and  C_8
REMARK    4  A    between atoms: C_7  and  C_8
REMARK    5  A    between atoms: C_9  and  C_18
REMARK    6  A    between atoms: C_25  and  C_26
REMARK                            x       y       z     vdW  Elec       q    Type
REMARK                         _______ _______ _______ _____ _____    ______ ____
ROOT
ATOM      2  O   UNL     1       0.862  -1.537  -1.153  0.00  0.00    -0.439 OA
ATOM      6  N   UNL     1       0.903  -0.198   0.675  0.00  0.00    -0.213 NA
ATOM     18  C   UNL     1       0.200  -1.007  -0.086  0.00  0.00    +0.201 A 
ATOM     19  C   UNL     1       2.136  -0.185   0.069  0.00  0.00    +0.111 A 
ATOM     20  C   UNL     1       2.115  -1.004  -1.050  0.00  0.00    +0.155 A 
ATOM     21  C   UNL     1       3.323   0.486   0.395  0.00  0.00    +0.058 A 
ATOM     22  C   UNL     1       3.197  -1.219  -1.895  0.00  0.00    +0.050 A 
ATOM     23  C   UNL     1       4.438   0.294  -0.434  0.00  0.00    +0.090 A 
ATOM     24  C   UNL     1       4.374  -0.542  -1.556  0.00  0.00    +0.030 A 
ENDROOT
BRANCH  18   9
ATOM      5  N   UNL     1      -3.324  -0.692   0.864  0.00  0.00    -0.301 NA
ATOM      9  C   UNL     1      -1.244  -1.425   0.068  0.00  0.00    +0.090 C 
ATOM     10  C   UNL     1      -2.218  -0.240   0.018  0.00  0.00    +0.097 C 
ATOM     13  C   UNL     1      -2.683  -1.316   2.022  0.00  0.00    +0.085 C 
ATOM     14  C   UNL     1      -1.571  -2.143   1.390  0.00  0.00    +0.029 C 
BRANCH   5   8
ATOM      8  C   UNL     1      -4.214   0.396   1.243  0.00  0.00    +0.088 C 
BRANCH   8   7
ATOM      7  C   UNL     1      -5.201   0.708   0.119  0.00  0.00    +0.003 C 
ATOM     11  C   UNL     1      -6.077  -0.514  -0.187  0.00  0.00    +0.005 C 
ATOM     12  C   UNL     1      -6.065   1.924   0.479  0.00  0.00    +0.005 C 
ATOM     15  C   UNL     1      -7.109  -0.210  -1.272  0.00  0.00    +0.000 C 
ATOM     16  C   UNL     1      -7.096   2.224  -0.607  0.00  0.00    +0.000 C 
ATOM     17  C   UNL     1      -7.960   1.005  -0.915  0.00  0.00    +0.000 C 
ENDBRANCH   8   7
ENDBRANCH   5   8
ENDBRANCH  18   9
BRANCH  23   1
ATOM      1  S   UNL     1       5.936   1.117  -0.060  0.00  0.00    -0.003 S 
ATOM      3  O   UNL     1       6.720   1.242  -1.280  0.00  0.00    -0.169 OA
ATOM      4  O   UNL     1       5.609   2.303   0.717  0.00  0.00    -0.169 OA
BRANCH   1  25
ATOM     25  C   UNL     1       6.804  -0.013   1.003  0.00  0.00    +0.168 C 
ATOM     26  C   UNL     1       8.143   0.545   1.431  0.00  0.00    +0.028 C 
ENDBRANCH   1  25
ENDBRANCH  23   1
TORSDOF 5
