REMARK  Name = 71693311
REMARK  11 active torsions:
REMARK  status: ('A' for Active; 'I' for Inactive)
REMARK    1  A    between atoms: O_2  and  C_11
REMARK    2  A    between atoms: N_5  and  C_9
REMARK    3  A    between atoms: N_6  and  C_21
REMARK    4  A    between atoms: C_7  and  C_11
REMARK    5  A    between atoms: C_8  and  C_13
REMARK    6  A    between atoms: C_9  and  C_10
REMARK    7  A    between atoms: C_10  and  C_15
REMARK    8  A    between atoms: C_10  and  C_16
REMARK    9  A    between atoms: C_22  and  C_23
REMARK   10  A    between atoms: C_23  and  C_24
REMARK   11  A    between atoms: C_24  and  C_25
REMARK                            x       y       z     vdW  Elec       q    Type
REMARK                         _______ _______ _______ _____ _____    ______ ____
ROOT
ATOM      1  O   UNL     1       1.752   1.780   0.810  0.00  0.00    -0.361 OA
ATOM      3  O   UNL     1       5.281   1.745   0.321  0.00  0.00    -0.273 OA
ATOM      5  N   UNL     1       3.697   0.165  -0.334  0.00  0.00    -0.291 N 
ATOM      7  C   UNL     1       2.278  -0.266  -0.332  0.00  0.00    +0.135 C 
ATOM      8  C   UNL     1       1.328   0.945  -0.268  0.00  0.00    +0.171 C 
ATOM     12  C   UNL     1       4.106   1.395   0.185  0.00  0.00    +0.242 C 
ATOM     14  C   UNL     1       2.998   2.370   0.527  0.00  0.00    +0.256 C 
ENDROOT
BRANCH   8  13
ATOM     13  C   UNL     1      -0.121   0.587  -0.008  0.00  0.00    -0.017 A 
ATOM     17  C   UNL     1      -0.464  -0.157   1.120  0.00  0.00    +0.008 A 
ATOM     18  C   UNL     1      -1.112   1.002  -0.898  0.00  0.00    +0.008 A 
ATOM     19  C   UNL     1      -1.798  -0.486   1.359  0.00  0.00    +0.023 A 
ATOM     20  C   UNL     1      -2.446   0.673  -0.659  0.00  0.00    +0.023 A 
ATOM     21  C   UNL     1      -2.789  -0.071   0.470  0.00  0.00    +0.033 A 
BRANCH  21   6
ATOM      4  O   UNL     1      -5.265   0.585  -1.096  0.00  0.00    -0.275 OA
ATOM      6  N   UNL     1      -4.123  -0.401   0.709  0.00  0.00    -0.285 N 
ATOM     22  C   UNL     1      -5.250  -0.076  -0.063  0.00  0.00    +0.217 C 
ATOM     27  H   UNL     1      -4.290  -0.948   1.551  0.00  0.00    +0.155 HD
BRANCH  22  23
ATOM     23  C   UNL     1      -6.525  -0.634   0.559  0.00  0.00    +0.096 C 
BRANCH  23  24
ATOM     24  C   UNL     1      -7.791  -0.316  -0.233  0.00  0.00    +0.006 C 
ATOM     25  C   UNL     1      -9.044  -0.887   0.415  0.00  0.00    +0.004 C 
ENDBRANCH  23  24
ENDBRANCH  22  23
ENDBRANCH  21   6
ENDBRANCH   8  13
BRANCH   5   9
ATOM      9  C   UNL     1       4.716  -0.827  -0.667  0.00  0.00    +0.111 C 
BRANCH   9  10
ATOM     10  C   UNL     1       5.017  -1.770   0.503  0.00  0.00    +0.000 C 
ATOM     15  C   UNL     1       5.522  -0.971   1.704  0.00  0.00    +0.009 C 
ATOM     16  C   UNL     1       6.043  -2.838   0.117  0.00  0.00    +0.009 C 
ENDBRANCH   9  10
ENDBRANCH   5   9
BRANCH   7  11
ATOM     11  C   UNL     1       1.933  -1.160  -1.532  0.00  0.00    +0.181 C 
BRANCH  11   2
ATOM      2  O   UNL     1       2.058  -0.387  -2.708  0.00  0.00    -0.393 OA
ATOM     26  H   UNL     1       1.816  -0.959  -3.456  0.00  0.00    +0.209 HD
ENDBRANCH  11   2
ENDBRANCH   7  11
TORSDOF 8
