REMARK  Name = 71693772
REMARK  5 active torsions:
REMARK  status: ('A' for Active; 'I' for Inactive)
REMARK    1  A    between atoms: O_1  and  C_9
REMARK    2  A    between atoms: O_2  and  C_11
REMARK    3  A    between atoms: N_5  and  C_7
REMARK    4  A    between atoms: C_8  and  C_12
REMARK    5  A    between atoms: C_13  and  C_14
REMARK                            x       y       z     vdW  Elec       q    Type
REMARK                         _______ _______ _______ _____ _____    ______ ____
ROOT
ATOM      7  C   UNL     1      -1.111   1.212  -0.020  0.00  0.00    +0.111 C 
ATOM      8  C   UNL     1      -1.666   0.112  -0.954  0.00  0.00    +0.046 C 
ATOM      9  C   UNL     1      -2.042   2.396  -0.273  0.00  0.00    +0.164 C 
ATOM     10  C   UNL     1      -3.148   0.486  -1.213  0.00  0.00    +0.044 C 
ATOM     11  C   UNL     1      -3.414   1.741  -0.383  0.00  0.00    +0.145 C 
ENDROOT
BRANCH   8  12
ATOM      6  N   UNL     1      -1.858  -2.894   1.352  0.00  0.00    -0.263 NA
ATOM     12  C   UNL     1      -1.462  -1.286  -0.409  0.00  0.00    -0.024 A 
ATOM     17  C   UNL     1      -0.724  -2.230  -1.115  0.00  0.00    +0.007 A 
ATOM     18  C   UNL     1      -2.003  -1.665   0.809  0.00  0.00    +0.114 A 
ATOM     21  C   UNL     1      -0.553  -3.505  -0.589  0.00  0.00    +0.020 A 
ATOM     22  C   UNL     1      -1.135  -3.785   0.637  0.00  0.00    +0.111 A 
ENDBRANCH   8  12
BRANCH   7   5
ATOM      4  O   UNL     1       1.271   0.085   1.199  0.00  0.00    -0.276 OA
ATOM      5  N   UNL     1       0.262   1.533  -0.320  0.00  0.00    -0.309 N 
ATOM     14  C   UNL     1       1.340   0.939   0.319  0.00  0.00    +0.217 C 
ATOM     23  H   UNL     1       0.439   2.179  -1.083  0.00  0.00    +0.149 HD
BRANCH  14  13
ATOM      3  O   UNL     1       4.732  -0.570  -0.093  0.00  0.00    -0.380 OA
ATOM     13  C   UNL     1       2.658   1.436  -0.201  0.00  0.00    +0.079 C 
ATOM     15  C   UNL     1       3.083   0.620  -1.421  0.00  0.00    +0.041 C 
ATOM     16  C   UNL     1       3.723   1.411   0.895  0.00  0.00    +0.041 C 
ATOM     19  C   UNL     1       3.669  -0.732  -1.030  0.00  0.00    +0.160 C 
ATOM     20  C   UNL     1       4.282   0.011   1.129  0.00  0.00    +0.160 C 
ENDBRANCH  14  13
ENDBRANCH   7   5
BRANCH   9   1
ATOM      1  O   UNL     1      -2.010   3.339   0.781  0.00  0.00    -0.387 OA
ATOM     24  H   UNL     1      -2.691   4.008   0.596  0.00  0.00    +0.210 HD
ENDBRANCH   9   1
BRANCH  11   2
ATOM      2  O   UNL     1      -3.895   1.346   0.898  0.00  0.00    -0.389 OA
ATOM     25  H   UNL     1      -4.749   0.902   0.765  0.00  0.00    +0.210 HD
ENDBRANCH  11   2
TORSDOF 5
