REMARK  Name = 51137093
REMARK  6 active torsions:
REMARK  status: ('A' for Active; 'I' for Inactive)
REMARK    1  A    between atoms: O_1  and  C_25
REMARK    2  A    between atoms: N_3  and  C_11
REMARK    3  A    between atoms: C_6  and  C_10
REMARK    4  A    between atoms: C_11  and  C_12
REMARK    5  A    between atoms: C_19  and  C_24
REMARK    6  A    between atoms: C_23  and  C_25
REMARK                            x       y       z     vdW  Elec       q    Type
REMARK                         _______ _______ _______ _____ _____    ______ ____
ROOT
ATOM      3  N   UNL     1      -0.980  -0.250  -0.236  0.00  0.00    -0.297 NA
ATOM      6  C   UNL     1       1.197  -0.776   0.459  0.00  0.00    +0.070 C 
ATOM      7  C   UNL     1       0.459  -0.041   1.591  0.00  0.00    +0.028 C 
ATOM      8  C   UNL     1       0.349  -0.513  -0.793  0.00  0.00    +0.096 C 
ATOM      9  C   UNL     1      -0.740   0.615   0.919  0.00  0.00    +0.085 C 
ENDROOT
BRANCH   6  10
ATOM      4  N   UNL     1       3.652  -1.296   0.403  0.00  0.00    -0.342 N 
ATOM      5  N   UNL     1       3.103   0.821   0.007  0.00  0.00    -0.232 NA
ATOM     10  C   UNL     1       2.645  -0.379   0.282  0.00  0.00    +0.113 A 
ATOM     13  C   UNL     1       4.840  -0.643   0.190  0.00  0.00    +0.066 A 
ATOM     14  C   UNL     1       4.470   0.676  -0.055  0.00  0.00    +0.089 A 
ATOM     15  C   UNL     1       6.165  -1.081   0.192  0.00  0.00    +0.031 A 
ATOM     18  C   UNL     1       5.469   1.630  -0.316  0.00  0.00    +0.030 A 
ATOM     19  C   UNL     1       7.145  -0.118  -0.070  0.00  0.00    -0.048 A 
ATOM     20  C   UNL     1       6.806   1.213  -0.319  0.00  0.00    +0.005 A 
ATOM     24  C   UNL     1       8.583  -0.525  -0.083  0.00  0.00    +0.044 C 
ATOM     26  H   UNL     1       3.545  -2.280   0.611  0.00  0.00    +0.167 HD
ENDBRANCH   6  10
BRANCH   3  11
ATOM     11  C   UNL     1      -1.879   0.357  -1.206  0.00  0.00    +0.119 C 
BRANCH  11  12
ATOM     12  C   UNL     1      -3.321   0.225  -0.794  0.00  0.00    -0.033 A 
ATOM     16  C   UNL     1      -3.979  -0.996  -0.941  0.00  0.00    +0.006 A 
ATOM     17  C   UNL     1      -3.999   1.324  -0.266  0.00  0.00    +0.006 A 
ATOM     21  C   UNL     1      -5.315  -1.118  -0.560  0.00  0.00    +0.015 A 
ATOM     22  C   UNL     1      -5.335   1.202   0.116  0.00  0.00    +0.015 A 
ATOM     23  C   UNL     1      -5.993  -0.020  -0.031  0.00  0.00    +0.059 A 
BRANCH  23  25
ATOM      2  O   UNL     1      -8.064  -1.176   0.283  0.00  0.00    -0.245 OA
ATOM     25  C   UNL     1      -7.386  -0.147   0.367  0.00  0.00    +0.337 C 
BRANCH  25   1
ATOM      1  O   UNL     1      -7.894   1.015   0.862  0.00  0.00    -0.477 OA
ATOM     27  H   UNL     1      -8.833   0.919   1.128  0.00  0.00    +0.295 HD
ENDBRANCH  25   1
ENDBRANCH  23  25
ENDBRANCH  11  12
ENDBRANCH   3  11
TORSDOF 5
