REMARK  Name = 75367101
REMARK  8 active torsions:
REMARK  status: ('A' for Active; 'I' for Inactive)
REMARK    1  A    between atoms: O_2  and  C_9
REMARK    2  A    between atoms: N_4  and  C_7
REMARK    3  A    between atoms: N_4  and  C_8
REMARK    4  A    between atoms: N_5  and  C_17
REMARK    5  A    between atoms: N_6  and  C_19
REMARK    6  A    between atoms: C_12  and  C_17
REMARK    7  A    between atoms: C_19  and  C_20
REMARK    8  A    between atoms: C_19  and  C_21
REMARK                            x       y       z     vdW  Elec       q    Type
REMARK                         _______ _______ _______ _____ _____    ______ ____
ROOT
ATOM      1  O   UNL     1       0.354   0.379  -1.213  0.00  0.00    -0.371 OA
ATOM      7  C   UNL     1      -1.640  -0.316  -0.126  0.00  0.00    +0.111 C 
ATOM      9  C   UNL     1      -0.565  -1.363   0.097  0.00  0.00    +0.164 C 
ATOM     12  C   UNL     1       0.695  -0.551  -0.172  0.00  0.00    +0.165 C 
ATOM     13  C   UNL     1      -1.079   0.443  -1.317  0.00  0.00    +0.181 C 
ENDROOT
BRANCH   9   2
ATOM      2  O   UNL     1      -0.581  -1.893   1.408  0.00  0.00    -0.388 OA
ATOM     23  H   UNL     1      -0.496  -1.156   2.037  0.00  0.00    +0.210 HD
ENDBRANCH   9   2
BRANCH   7   4
ATOM      4  N   UNL     1      -2.957  -0.876  -0.381  0.00  0.00    -0.306 NA
ATOM     22  H   UNL     1      -3.142  -1.646   0.262  0.00  0.00    +0.123 HD
BRANCH   4   8
ATOM      8  C   UNL     1      -3.991   0.147  -0.240  0.00  0.00    +0.054 C 
ATOM     10  C   UNL     1      -5.260  -0.290  -0.981  0.00  0.00    +0.019 C 
ATOM     11  C   UNL     1      -4.277   0.398   1.245  0.00  0.00    +0.019 C 
ATOM     14  C   UNL     1      -6.390   0.721  -0.792  0.00  0.00    +0.002 C 
ATOM     15  C   UNL     1      -5.408   1.409   1.431  0.00  0.00    +0.002 C 
ATOM     16  C   UNL     1      -6.670   0.983   0.685  0.00  0.00    +0.000 C 
ENDBRANCH   4   8
ENDBRANCH   7   4
BRANCH  12  17
ATOM     17  C   UNL     1       1.875  -1.401  -0.609  0.00  0.00    +0.140 C 
BRANCH  17   5
ATOM      3  O   UNL     1       3.919  -0.672   1.294  0.00  0.00    -0.253 OA
ATOM      5  N   UNL     1       3.036  -0.595  -0.854  0.00  0.00    -0.297 N 
ATOM      6  N   UNL     1       5.006   0.510  -0.380  0.00  0.00    -0.297 N 
ATOM     18  C   UNL     1       3.983  -0.286   0.127  0.00  0.00    +0.300 C 
ATOM     24  H   UNL     1       3.169  -0.216  -1.787  0.00  0.00    +0.150 HD
ATOM     25  H   UNL     1       5.011   0.714  -1.375  0.00  0.00    +0.150 HD
BRANCH   6  19
ATOM     19  C   UNL     1       6.113   0.971   0.425  0.00  0.00    +0.068 C 
ATOM     20  C   UNL     1       7.244  -0.049   0.413  0.00  0.00    +0.027 C 
ATOM     21  C   UNL     1       6.591   2.332  -0.062  0.00  0.00    +0.027 C 
ENDBRANCH   6  19
ENDBRANCH  17   5
ENDBRANCH  12  17
TORSDOF 6
