REMARK  Name = 7687131
REMARK  6 active torsions:
REMARK  status: ('A' for Active; 'I' for Inactive)
REMARK    1  A    between atoms: S_1  and  N_6
REMARK    2  A    between atoms: S_1  and  C_19
REMARK    3  A    between atoms: N_8  and  C_27
REMARK    4  A    between atoms: C_16  and  C_21
REMARK    5  A    between atoms: C_24  and  C_28
REMARK    6  A    between atoms: C_29  and  C_30
REMARK                            x       y       z     vdW  Elec       q    Type
REMARK                         _______ _______ _______ _____ _____    ______ ____
ROOT
ATOM      4  O   UNL     1      -5.277  -2.265  -0.162  0.00  0.00    -0.268 OA
ATOM      6  N   UNL     1      -0.449  -1.104   0.198  0.00  0.00    -0.176 NA
ATOM      7  N   UNL     1      -3.497  -0.804  -0.588  0.00  0.00    -0.311 N 
ATOM      9  C   UNL     1      -1.498  -1.518  -2.027  0.00  0.00    +0.025 C 
ATOM     10  C   UNL     1      -1.564   0.733  -1.052  0.00  0.00    +0.052 C 
ATOM     11  C   UNL     1      -1.400  -0.040  -2.359  0.00  0.00    +0.017 C 
ATOM     12  C   UNL     1      -0.396  -1.932  -1.039  0.00  0.00    +0.114 C 
ATOM     13  C   UNL     1      -0.419   0.360  -0.091  0.00  0.00    +0.119 C 
ATOM     14  C   UNL     1      -2.902  -1.799  -1.491  0.00  0.00    +0.130 C 
ATOM     15  C   UNL     1      -2.922   0.469  -0.393  0.00  0.00    +0.033 A 
ATOM     16  C   UNL     1      -3.558   1.399   0.370  0.00  0.00    -0.005 A 
ATOM     17  C   UNL     1      -4.724  -1.175  -0.012  0.00  0.00    +0.252 A 
ATOM     18  C   UNL     1      -4.830   1.041   0.976  0.00  0.00    +0.015 A 
ATOM     20  C   UNL     1      -5.394  -0.157   0.823  0.00  0.00    +0.071 A 
ENDROOT
BRANCH   6   1
ATOM      1  S   UNL     1       0.555  -1.625   1.482  0.00  0.00    +0.061 S 
ATOM      2  O   UNL     1       0.547  -3.072   1.532  0.00  0.00    -0.153 OA
ATOM      3  O   UNL     1       0.261  -0.837   2.660  0.00  0.00    -0.153 OA
BRANCH   1  19
ATOM     19  C   UNL     1       2.131  -1.116   0.869  0.00  0.00    +0.106 A 
ATOM     22  C   UNL     1       2.600   0.151   1.175  0.00  0.00    +0.030 A 
ATOM     23  C   UNL     1       2.871  -1.992   0.093  0.00  0.00    +0.030 A 
ATOM     25  C   UNL     1       3.845   0.552   0.690  0.00  0.00    +0.025 A 
ATOM     26  C   UNL     1       4.116  -1.591  -0.391  0.00  0.00    +0.025 A 
ATOM     27  C   UNL     1       4.603  -0.318  -0.092  0.00  0.00    +0.033 A 
BRANCH  27   8
ATOM      5  O   UNL     1       6.092   2.275   0.258  0.00  0.00    -0.276 OA
ATOM      8  N   UNL     1       5.849   0.084  -0.576  0.00  0.00    -0.286 N 
ATOM     29  C   UNL     1       6.497   1.311  -0.383  0.00  0.00    +0.214 C 
ATOM     30  C   UNL     1       7.836   1.350  -1.075  0.00  0.00    +0.109 C 
ATOM     31  H   UNL     1       6.340  -0.608  -1.139  0.00  0.00    +0.155 HD
ENDBRANCH  27   8
ENDBRANCH   1  19
ENDBRANCH   6   1
BRANCH  16  21
ATOM     21  C   UNL     1      -3.005   2.719   0.628  0.00  0.00    +0.005 C 
ATOM     24  C   UNL     1      -3.268   3.773  -0.140  0.00  0.00    -0.030 C 
ATOM     28  C   UNL     1      -2.700   5.129   0.119  0.00  0.00    +0.035 C 
ENDBRANCH  16  21
TORSDOF 4
