REMARK  Name = 26745224
REMARK  6 active torsions:
REMARK  status: ('A' for Active; 'I' for Inactive)
REMARK    1  A    between atoms: O_3  and  C_25
REMARK    2  A    between atoms: N_5  and  C_9
REMARK    3  A    between atoms: C_15  and  C_17
REMARK    4  A    between atoms: C_21  and  C_22
REMARK    5  A    between atoms: C_22  and  C_24
REMARK    6  A    between atoms: C_24  and  C_25
REMARK                            x       y       z     vdW  Elec       q    Type
REMARK                         _______ _______ _______ _____ _____    ______ ____
ROOT
ATOM      2  O   UNL     1       1.145  -0.784  -1.787  0.00  0.00    -0.276 OA
ATOM      6  N   UNL     1      -0.790  -0.687  -0.488  0.00  0.00    -0.284 N 
ATOM      7  N   UNL     1      -4.046  -1.259   1.278  0.00  0.00    -0.347 N 
ATOM      8  N   UNL     1      -4.893   0.107  -0.273  0.00  0.00    -0.240 NA
ATOM     15  C   UNL     1      -1.235   0.582  -1.125  0.00  0.00    +0.168 C 
ATOM     16  C   UNL     1      -2.734   0.627  -1.488  0.00  0.00    +0.089 C 
ATOM     18  C   UNL     1      -1.579  -1.236   0.650  0.00  0.00    +0.163 C 
ATOM     19  C   UNL     1      -3.542  -0.024  -0.437  0.00  0.00    +0.066 A 
ATOM     20  C   UNL     1      -2.998  -0.862   0.503  0.00  0.00    +0.056 A 
ATOM     21  C   UNL     1       0.461  -1.209  -0.853  0.00  0.00    +0.217 C 
ATOM     23  C   UNL     1      -5.166  -0.649   0.772  0.00  0.00    +0.197 A 
ATOM     27  H   UNL     1      -4.010  -1.881   2.075  0.00  0.00    +0.167 HD
ENDROOT
BRANCH  15  17
ATOM      1  O   UNL     1      -1.637   2.110   0.668  0.00  0.00    -0.274 OA
ATOM      5  N   UNL     1       0.439   2.131  -0.386  0.00  0.00    -0.311 N 
ATOM     17  C   UNL     1      -0.853   1.680  -0.173  0.00  0.00    +0.234 C 
ATOM     26  H   UNL     1       1.018   1.653  -1.070  0.00  0.00    +0.149 HD
BRANCH   5   9
ATOM      9  C   UNL     1       1.040   3.199   0.383  0.00  0.00    +0.073 C 
ATOM     10  C   UNL     1       1.712   2.655   1.648  0.00  0.00    +0.022 C 
ATOM     11  C   UNL     1       2.028   4.002  -0.469  0.00  0.00    +0.022 C 
ATOM     12  C   UNL     1       2.993   1.878   1.343  0.00  0.00    +0.002 C 
ATOM     13  C   UNL     1       3.308   3.223  -0.771  0.00  0.00    +0.002 C 
ATOM     14  C   UNL     1       3.965   2.702   0.504  0.00  0.00    +0.000 C 
ENDBRANCH   5   9
ENDBRANCH  15  17
BRANCH  21  22
ATOM     22  C   UNL     1       0.969  -2.370  -0.033  0.00  0.00    +0.107 C 
BRANCH  22  24
ATOM     24  C   UNL     1       2.321  -2.812  -0.552  0.00  0.00    +0.129 C 
BRANCH  24  25
ATOM      4  O   UNL     1       2.228  -4.546   1.128  0.00  0.00    -0.251 OA
ATOM     25  C   UNL     1       2.828  -4.017   0.202  0.00  0.00    +0.305 C 
BRANCH  25   3
ATOM      3  O   UNL     1       4.037  -4.440  -0.243  0.00  0.00    -0.481 OA
ATOM     28  H   UNL     1       4.361  -5.217   0.261  0.00  0.00    +0.295 HD
ENDBRANCH  25   3
ENDBRANCH  24  25
ENDBRANCH  22  24
ENDBRANCH  21  22
TORSDOF 6
