REMARK  Name = 45360563
REMARK  6 active torsions:
REMARK  status: ('A' for Active; 'I' for Inactive)
REMARK    1  A    between atoms: O_3  and  C_9
REMARK    2  A    between atoms: N_4  and  C_8
REMARK    3  A    between atoms: N_5  and  C_10
REMARK    4  A    between atoms: N_5  and  C_18
REMARK    5  A    between atoms: N_6  and  C_19
REMARK    6  A    between atoms: C_18  and  C_20
REMARK                            x       y       z     vdW  Elec       q    Type
REMARK                         _______ _______ _______ _____ _____    ______ ____
ROOT
ATOM      1  O   UNL     1      -1.748  -1.362  -1.572  0.00  0.00    -0.343 OA
ATOM      2  O   UNL     1      -3.398  -2.299  -0.239  0.00  0.00    -0.347 OA
ATOM      8  C   UNL     1      -2.214  -0.353   0.572  0.00  0.00    +0.143 C 
ATOM      9  C   UNL     1      -1.151  -1.253   1.243  0.00  0.00    +0.156 C 
ATOM     10  C   UNL     1      -0.352  -2.129   0.247  0.00  0.00    +0.116 C 
ATOM     11  C   UNL     1      -1.190  -2.542  -0.984  0.00  0.00    +0.166 C 
ATOM     12  C   UNL     1      -2.813  -1.056  -0.661  0.00  0.00    +0.270 C 
ATOM     13  C   UNL     1      -2.458  -3.305  -0.645  0.00  0.00    +0.196 C 
ENDROOT
BRANCH   8   4
ATOM      4  N   UNL     1      -1.634   0.930   0.182  0.00  0.00    -0.290 NA
ATOM      6  N   UNL     1      -1.687   3.810  -0.069  0.00  0.00    -0.303 NA
ATOM     14  C   UNL     1      -1.459   1.801   1.351  0.00  0.00    +0.100 C 
ATOM     15  C   UNL     1      -2.465   1.592  -0.831  0.00  0.00    +0.100 C 
ATOM     16  C   UNL     1      -0.854   3.148   0.943  0.00  0.00    +0.099 C 
ATOM     17  C   UNL     1      -1.860   2.940  -1.238  0.00  0.00    +0.099 C 
ATOM     19  C   UNL     1      -1.108   5.094  -0.458  0.00  0.00    +0.105 C 
ENDBRANCH   8   4
BRANCH   9   3
ATOM      3  O   UNL     1      -1.833  -2.117   2.164  0.00  0.00    -0.388 OA
ATOM     26  H   UNL     1      -1.159  -2.641   2.630  0.00  0.00    +0.210 HD
ENDBRANCH   9   3
BRANCH  10   5
ATOM      5  N   UNL     1       0.837  -1.413  -0.229  0.00  0.00    -0.305 NA
ATOM     25  H   UNL     1       0.585  -0.455  -0.470  0.00  0.00    +0.123 HD
BRANCH   5  18
ATOM     18  C   UNL     1       1.877  -1.421   0.785  0.00  0.00    +0.116 C 
BRANCH  18  20
ATOM      7  N   UNL     1       5.401   0.672  -0.518  0.00  0.00    -0.263 NA
ATOM     20  C   UNL     1       3.110  -0.688   0.329  0.00  0.00    -0.031 A 
ATOM     21  C   UNL     1       3.983  -1.285  -0.574  0.00  0.00    +0.024 A 
ATOM     22  C   UNL     1       3.382   0.588   0.809  0.00  0.00    +0.024 A 
ATOM     23  C   UNL     1       5.104  -0.570  -0.963  0.00  0.00    +0.111 A 
ATOM     24  C   UNL     1       4.530   1.220   0.359  0.00  0.00    +0.111 A 
ENDBRANCH  18  20
ENDBRANCH   5  18
ENDBRANCH  10   5
TORSDOF 5
