REMARK  Name = 26744244
REMARK  5 active torsions:
REMARK  status: ('A' for Active; 'I' for Inactive)
REMARK    1  A    between atoms: O_3  and  C_12
REMARK    2  A    between atoms: N_4  and  C_16
REMARK    3  A    between atoms: C_7  and  C_14
REMARK    4  A    between atoms: C_8  and  C_15
REMARK    5  A    between atoms: C_16  and  C_17
REMARK                            x       y       z     vdW  Elec       q    Type
REMARK                         _______ _______ _______ _____ _____    ______ ____
ROOT
ATOM      4  N   UNL     1       0.303  -1.369  -0.203  0.00  0.00    -0.285 NA
ATOM      8  C   UNL     1      -1.065  -1.778  -0.583  0.00  0.00    +0.149 C 
ATOM     11  C   UNL     1      -1.360  -3.017   0.282  0.00  0.00    +0.061 C 
ATOM     12  C   UNL     1      -0.083  -3.255   1.079  0.00  0.00    +0.130 C 
ATOM     13  C   UNL     1       0.988  -2.581   0.243  0.00  0.00    +0.116 C 
ENDROOT
BRANCH   8  15
ATOM      2  O   UNL     1      -3.176  -0.703  -1.186  0.00  0.00    -0.336 OA
ATOM      5  N   UNL     1      -2.060   0.331   0.457  0.00  0.00    -0.194 NA
ATOM      6  N   UNL     1      -3.955   0.402  -0.822  0.00  0.00    -0.061 NA
ATOM     14  C   UNL     1      -3.231   0.961   0.152  0.00  0.00    +0.175 A 
ATOM     15  C   UNL     1      -2.079  -0.671  -0.385  0.00  0.00    +0.245 A 
BRANCH  14   7
ATOM      7  C   UNL     1      -3.690   2.229   0.878  0.00  0.00    +0.060 C 
ATOM      9  C   UNL     1      -4.007   3.450   0.066  0.00  0.00    +0.012 C 
ATOM     10  C   UNL     1      -2.769   3.413   0.912  0.00  0.00    +0.012 C 
ENDBRANCH  14   7
ENDBRANCH   8  15
BRANCH  12   3
ATOM      3  O   UNL     1       0.163  -4.640   1.231  0.00  0.00    -0.390 OA
ATOM     23  H   UNL     1      -0.595  -5.020   1.707  0.00  0.00    +0.210 HD
ENDBRANCH  12   3
BRANCH   4  16
ATOM     16  C   UNL     1       1.022  -0.698  -1.279  0.00  0.00    +0.120 C 
BRANCH  16  17
ATOM      1 CL   UNL     1       5.605   2.594   0.807  0.00  0.00    -0.084 Cl
ATOM     17  C   UNL     1       2.169   0.126  -0.758  0.00  0.00    -0.033 A 
ATOM     18  C   UNL     1       1.967   1.461  -0.410  0.00  0.00    +0.006 A 
ATOM     19  C   UNL     1       3.434  -0.447  -0.622  0.00  0.00    +0.006 A 
ATOM     20  C   UNL     1       3.030   2.225   0.073  0.00  0.00    +0.020 A 
ATOM     21  C   UNL     1       4.497   0.317  -0.139  0.00  0.00    +0.020 A 
ATOM     22  C   UNL     1       4.295   1.652   0.208  0.00  0.00    +0.041 A 
ENDBRANCH  16  17
ENDBRANCH   4  16
TORSDOF 5
