REMARK  Name = 26744523
REMARK  7 active torsions:
REMARK  status: ('A' for Active; 'I' for Inactive)
REMARK    1  A    between atoms: O_1  and  C_11
REMARK    2  A    between atoms: O_3  and  C_25
REMARK    3  A    between atoms: N_5  and  C_13
REMARK    4  A    between atoms: C_9  and  C_14
REMARK    5  A    between atoms: C_13  and  C_15
REMARK    6  A    between atoms: C_18  and  C_22
REMARK    7  A    between atoms: C_21  and  C_25
REMARK                            x       y       z     vdW  Elec       q    Type
REMARK                         _______ _______ _______ _____ _____    ______ ____
ROOT
ATOM      5  N   UNL     1       2.973   0.633   0.452  0.00  0.00    -0.285 NA
ATOM      9  C   UNL     1       2.877  -0.331  -0.663  0.00  0.00    +0.149 C 
ATOM     10  C   UNL     1       3.942  -1.399  -0.354  0.00  0.00    +0.061 C 
ATOM     11  C   UNL     1       4.615  -0.925   0.928  0.00  0.00    +0.130 C 
ATOM     12  C   UNL     1       4.351   0.569   0.937  0.00  0.00    +0.116 C 
ENDROOT
BRANCH   9  14
ATOM      2  O   UNL     1       1.130  -1.322  -2.056  0.00  0.00    -0.336 OA
ATOM      6  N   UNL     1       0.560  -1.090   0.097  0.00  0.00    -0.190 NA
ATOM      7  N   UNL     1      -0.176  -1.816  -1.944  0.00  0.00    -0.056 NA
ATOM     14  C   UNL     1       1.487  -0.915  -0.810  0.00  0.00    +0.245 A 
ATOM     18  C   UNL     1      -0.441  -1.645  -0.645  0.00  0.00    +0.204 A 
BRANCH  18  22
ATOM      8  N   UNL     1      -3.907  -2.956  -0.335  0.00  0.00    -0.263 NA
ATOM     22  C   UNL     1      -1.695  -2.020  -0.058  0.00  0.00    +0.041 A 
ATOM     23  C   UNL     1      -1.938  -1.829   1.298  0.00  0.00    +0.014 A 
ATOM     24  C   UNL     1      -2.704  -2.582  -0.824  0.00  0.00    +0.122 A 
ATOM     26  C   UNL     1      -3.164  -2.201   1.838  0.00  0.00    +0.020 A 
ATOM     27  C   UNL     1      -4.106  -2.755   0.987  0.00  0.00    +0.111 A 
ENDBRANCH  18  22
ENDBRANCH   9  14
BRANCH  11   1
ATOM      1  O   UNL     1       5.999  -1.213   0.904  0.00  0.00    -0.390 OA
ATOM     28  H   UNL     1       6.096  -2.177   0.823  0.00  0.00    +0.210 HD
ENDBRANCH  11   1
BRANCH   5  13
ATOM     13  C   UNL     1       2.587   1.987   0.076  0.00  0.00    +0.120 C 
BRANCH  13  15
ATOM     15  C   UNL     1       1.091   2.155   0.045  0.00  0.00    -0.033 A 
ATOM     16  C   UNL     1       0.459   2.554  -1.133  0.00  0.00    +0.006 A 
ATOM     17  C   UNL     1       0.337   1.910   1.193  0.00  0.00    +0.006 A 
ATOM     19  C   UNL     1      -0.927   2.710  -1.162  0.00  0.00    +0.015 A 
ATOM     20  C   UNL     1      -1.049   2.066   1.163  0.00  0.00    +0.015 A 
ATOM     21  C   UNL     1      -1.681   2.466  -0.015  0.00  0.00    +0.059 A 
BRANCH  21  25
ATOM      4  O   UNL     1      -3.787   2.974  -1.029  0.00  0.00    -0.245 OA
ATOM     25  C   UNL     1      -3.126   2.627  -0.045  0.00  0.00    +0.337 C 
BRANCH  25   3
ATOM      3  O   UNL     1      -3.706   2.349   1.155  0.00  0.00    -0.477 OA
ATOM     29  H   UNL     1      -4.680   2.459   1.123  0.00  0.00    +0.295 HD
ENDBRANCH  25   3
ENDBRANCH  21  25
ENDBRANCH  13  15
ENDBRANCH   5  13
TORSDOF 7
