REMARK  Name = 26762305
REMARK  9 active torsions:
REMARK  status: ('A' for Active; 'I' for Inactive)
REMARK    1  A    between atoms: N_6  and  C_11
REMARK    2  A    between atoms: N_7  and  C_20
REMARK    3  A    between atoms: N_8  and  C_21
REMARK    4  A    between atoms: C_10  and  C_16
REMARK    5  A    between atoms: C_16  and  C_17
REMARK    6  A    between atoms: C_17  and  C_19
REMARK    7  A    between atoms: C_20  and  C_22
REMARK    8  A    between atoms: C_20  and  C_23
REMARK    9  A    between atoms: C_21  and  C_24
REMARK                            x       y       z     vdW  Elec       q    Type
REMARK                         _______ _______ _______ _____ _____    ______ ____
ROOT
ATOM      1  O   UNL     1       0.837   2.661  -1.755  0.00  0.00    -0.274 OA
ATOM      4  N   UNL     1      -0.105  -0.501  -0.282  0.00  0.00    -0.285 NA
ATOM      5  N   UNL     1       0.152   0.743  -2.779  0.00  0.00    -0.313 N 
ATOM      9  C   UNL     1      -0.092   0.961  -0.326  0.00  0.00    +0.145 C 
ATOM     10  C   UNL     1      -0.808  -1.092  -1.419  0.00  0.00    +0.075 C 
ATOM     11  C   UNL     1       1.828   0.132   0.897  0.00  0.00    +0.090 C 
ATOM     12  C   UNL     1       0.856   1.311   0.817  0.00  0.00    +0.052 C 
ATOM     13  C   UNL     1       1.273  -0.931  -0.049  0.00  0.00    +0.107 C 
ATOM     14  C   UNL     1      -0.190  -0.664  -2.746  0.00  0.00    +0.123 C 
ATOM     15  C   UNL     1       0.372   1.522  -1.665  0.00  0.00    +0.230 C 
ATOM     30  H   UNL     1       0.406   1.138  -3.679  0.00  0.00    +0.149 HD
ENDROOT
BRANCH  11   6
ATOM      2  O   UNL     1       4.386  -0.990   1.708  0.00  0.00    -0.253 OA
ATOM      6  N   UNL     1       3.179   0.547   0.455  0.00  0.00    -0.295 N 
ATOM      7  N   UNL     1       5.476   0.526   0.331  0.00  0.00    -0.297 N 
ATOM     18  C   UNL     1       4.350  -0.058   0.906  0.00  0.00    +0.300 C 
ATOM     31  H   UNL     1       3.250   1.258  -0.267  0.00  0.00    +0.151 HD
ATOM     32  H   UNL     1       5.340   1.241  -0.378  0.00  0.00    +0.150 HD
BRANCH   7  20
ATOM     20  C   UNL     1       6.821   0.090   0.625  0.00  0.00    +0.068 C 
ATOM     22  C   UNL     1       7.788   1.264   0.544  0.00  0.00    +0.027 C 
ATOM     23  C   UNL     1       7.236  -1.034  -0.316  0.00  0.00    +0.027 C 
ENDBRANCH   7  20
ENDBRANCH  11   6
BRANCH  10  16
ATOM     16  C   UNL     1      -0.897  -2.616  -1.321  0.00  0.00    +0.029 C 
BRANCH  16  17
ATOM     17  C   UNL     1      -1.474  -3.046   0.020  0.00  0.00    +0.097 C 
BRANCH  17  19
ATOM      3  O   UNL     1      -3.821  -2.778  -0.508  0.00  0.00    -0.276 OA
ATOM      8  N   UNL     1      -2.955  -1.705   1.358  0.00  0.00    -0.311 N 
ATOM     19  C   UNL     1      -2.880  -2.514   0.234  0.00  0.00    +0.213 C 
ATOM     33  H   UNL     1      -2.120  -1.514   1.904  0.00  0.00    +0.149 HD
BRANCH   8  21
ATOM     21  C   UNL     1      -4.186  -1.076   1.775  0.00  0.00    +0.139 C 
BRANCH  21  24
ATOM     24  C   UNL     1      -4.361   0.281   1.157  0.00  0.00    -0.030 A 
ATOM     25  C   UNL     1      -3.869   1.412   1.807  0.00  0.00    +0.005 A 
ATOM     26  C   UNL     1      -5.016   0.410  -0.068  0.00  0.00    +0.005 A 
ATOM     27  C   UNL     1      -4.032   2.673   1.233  0.00  0.00    +0.000 A 
ATOM     28  C   UNL     1      -5.179   1.670  -0.642  0.00  0.00    +0.000 A 
ATOM     29  C   UNL     1      -4.687   2.802   0.008  0.00  0.00    +0.000 A 
ENDBRANCH  21  24
ENDBRANCH   8  21
ENDBRANCH  17  19
ENDBRANCH  16  17
ENDBRANCH  10  16
TORSDOF 7
