REMARK  Name = 26743108
REMARK  8 active torsions:
REMARK  status: ('A' for Active; 'I' for Inactive)
REMARK    1  A    between atoms: S_1  and  C_24
REMARK    2  A    between atoms: S_1  and  C_25
REMARK    3  A    between atoms: N_6  and  C_22
REMARK    4  A    between atoms: C_8  and  C_12
REMARK    5  A    between atoms: C_9  and  C_14
REMARK    6  A    between atoms: C_12  and  C_15
REMARK    7  A    between atoms: C_14  and  C_16
REMARK    8  A    between atoms: C_23  and  C_24
REMARK                            x       y       z     vdW  Elec       q    Type
REMARK                         _______ _______ _______ _____ _____    ______ ____
ROOT
ATOM      4  N   UNL     1      -0.045   1.770   2.269  0.00  0.00    -0.316 NA
ATOM      8  C   UNL     1       1.226   0.863  -0.235  0.00  0.00    +0.004 C 
ATOM      9  C   UNL     1      -0.050   0.204   0.342  0.00  0.00    +0.012 C 
ATOM     10  C   UNL     1       1.323   2.307   0.283  0.00  0.00    +0.019 C 
ATOM     11  C   UNL     1      -0.132   0.365   1.869  0.00  0.00    +0.085 C 
ATOM     13  C   UNL     1       1.194   2.392   1.804  0.00  0.00    +0.081 C 
ATOM     31  H   UNL     1      -0.094   1.836   3.285  0.00  0.00    +0.122 HD
ENDROOT
BRANCH   8  12
ATOM     12  C   UNL     1       2.516   0.088   0.062  0.00  0.00    +0.100 C 
BRANCH  12  15
ATOM      2  O   UNL     1       3.329   1.301  -1.805  0.00  0.00    -0.276 OA
ATOM      5  N   UNL     1       4.837  -0.121  -0.755  0.00  0.00    -0.299 N 
ATOM      6  N   UNL     1       7.551  -0.687  -0.033  0.00  0.00    -0.302 NA
ATOM     15  C   UNL     1       3.590   0.481  -0.920  0.00  0.00    +0.216 C 
ATOM     17  C   UNL     1       5.932   0.211  -1.665  0.00  0.00    +0.123 C 
ATOM     18  C   UNL     1       5.141  -1.192   0.198  0.00  0.00    +0.123 C 
ATOM     19  C   UNL     1       7.233   0.456  -0.901  0.00  0.00    +0.103 C 
ATOM     20  C   UNL     1       6.460  -0.925   0.924  0.00  0.00    +0.103 C 
ATOM     22  C   UNL     1       8.813  -0.463   0.670  0.00  0.00    +0.105 C 
ENDBRANCH  12  15
ENDBRANCH   8  12
BRANCH   9  14
ATOM     14  C   UNL     1      -0.196  -1.266  -0.052  0.00  0.00    +0.064 C 
BRANCH  14  16
ATOM      3  O   UNL     1      -3.416  -2.539   0.935  0.00  0.00    -0.359 OA
ATOM      7  N   UNL     1      -2.084  -2.232   1.188  0.00  0.00    -0.083 NA
ATOM     16  C   UNL     1      -1.624  -1.719   0.043  0.00  0.00    +0.084 A 
ATOM     21  C   UNL     1      -2.610  -1.678  -0.957  0.00  0.00    +0.071 A 
ATOM     23  C   UNL     1      -3.717  -2.204  -0.346  0.00  0.00    +0.148 A 
BRANCH  23  24
ATOM     24  C   UNL     1      -5.094  -2.463  -0.784  0.00  0.00    +0.151 C 
BRANCH  24   1
ATOM      1  S   UNL     1      -6.347  -1.598   0.228  0.00  0.00    -0.117 S 
BRANCH   1  25
ATOM     25  C   UNL     1      -5.949   0.109  -0.121  0.00  0.00    +0.008 A 
ATOM     26  C   UNL     1      -6.008   0.585  -1.431  0.00  0.00    +0.015 A 
ATOM     27  C   UNL     1      -5.579   0.965   0.916  0.00  0.00    +0.015 A 
ATOM     28  C   UNL     1      -5.697   1.917  -1.704  0.00  0.00    +0.001 A 
ATOM     29  C   UNL     1      -5.268   2.297   0.644  0.00  0.00    +0.001 A 
ATOM     30  C   UNL     1      -5.327   2.773  -0.666  0.00  0.00    +0.000 A 
ENDBRANCH   1  25
ENDBRANCH  24   1
ENDBRANCH  23  24
ENDBRANCH  14  16
ENDBRANCH   9  14
TORSDOF 7
