REMARK  Name = 7142490
REMARK  2 active torsions:
REMARK  status: ('A' for Active; 'I' for Inactive)
REMARK    1  A    between atoms: C_10  and  C_17
REMARK    2  A    between atoms: C_26  and  C_28
REMARK                            x       y       z     vdW  Elec       q    Type
REMARK                         _______ _______ _______ _____ _____    ______ ____
ROOT
ATOM      1  O   UNL     1      -5.601  -0.844   1.894  0.00  0.00    -0.275 OA
ATOM      2  O   UNL     1      -2.574  -2.342  -0.202  0.00  0.00    -0.273 OA
ATOM      3  O   UNL     1       0.439   1.880  -1.219  0.00  0.00    -0.270 OA
ATOM      6  N   UNL     1      -3.971   0.186   0.588  0.00  0.00    -0.298 N 
ATOM      7  N   UNL     1      -1.203   0.654  -0.146  0.00  0.00    -0.283 N 
ATOM      9  N   UNL     1      -0.316  -2.156  -0.416  0.00  0.00    -0.283 N 
ATOM     11  C   UNL     1      -1.547  -0.400   0.799  0.00  0.00    +0.180 C 
ATOM     12  C   UNL     1      -2.882  -0.144   1.510  0.00  0.00    +0.139 C 
ATOM     13  C   UNL     1      -3.615   0.939  -0.617  0.00  0.00    +0.127 C 
ATOM     14  C   UNL     1      -2.254   1.609  -0.499  0.00  0.00    +0.128 C 
ATOM     17  C   UNL     1      -5.276  -0.213   0.892  0.00  0.00    +0.219 C 
ATOM     20  C   UNL     1      -1.546  -1.692  -0.002  0.00  0.00    +0.239 C 
ATOM     21  C   UNL     1       0.100   0.884  -0.577  0.00  0.00    +0.249 C 
ATOM     22  C   UNL     1       1.147  -0.130  -0.280  0.00  0.00    +0.059 A 
ATOM     23  C   UNL     1       0.938  -1.518  -0.314  0.00  0.00    +0.046 A 
ATOM     24  C   UNL     1       2.456   0.366  -0.136  0.00  0.00    +0.023 A 
ATOM     25  C   UNL     1       2.052  -2.375  -0.271  0.00  0.00    +0.024 A 
ATOM     26  C   UNL     1       3.545  -0.500  -0.048  0.00  0.00    -0.017 A 
ATOM     27  C   UNL     1       3.344  -1.872  -0.129  0.00  0.00    +0.010 A 
ATOM     36  H   UNL     1      -0.301  -3.118  -0.749  0.00  0.00    +0.155 HD
ENDROOT
BRANCH  26  28
ATOM      4  O   UNL     1       8.395  -0.657  -0.709  0.00  0.00    -0.453 OA
ATOM      5  O   UNL     1       8.729   1.418   0.469  0.00  0.00    -0.453 OA
ATOM     28  C   UNL     1       4.883   0.029   0.105  0.00  0.00    -0.014 A 
ATOM     29  C   UNL     1       5.970  -0.667  -0.432  0.00  0.00    +0.058 A 
ATOM     30  C   UNL     1       5.079   1.240   0.793  0.00  0.00    +0.012 A 
ATOM     31  C   UNL     1       7.226  -0.123  -0.260  0.00  0.00    +0.167 A 
ATOM     32  C   UNL     1       7.417   1.062   0.413  0.00  0.00    +0.166 A 
ATOM     33  C   UNL     1       6.362   1.768   0.952  0.00  0.00    +0.050 A 
ATOM     34  C   UNL     1       9.343   0.326  -0.244  0.00  0.00    +0.466 C 
ENDBRANCH  26  28
BRANCH  17  10
ATOM      8  N   UNL     1      -9.152   0.896  -0.512  0.00  0.00    -0.316 NA
ATOM     10  C   UNL     1      -6.352   0.178  -0.076  0.00  0.00    +0.078 C 
ATOM     15  C   UNL     1      -6.906   1.559   0.279  0.00  0.00    +0.028 C 
ATOM     16  C   UNL     1      -7.471  -0.863  -0.073  0.00  0.00    +0.028 C 
ATOM     18  C   UNL     1      -8.107   1.917  -0.594  0.00  0.00    +0.081 C 
ATOM     19  C   UNL     1      -8.651  -0.413  -0.932  0.00  0.00    +0.081 C 
ATOM     35  H   UNL     1      -9.476   0.831   0.453  0.00  0.00    +0.122 HD
ENDBRANCH  17  10
TORSDOF 2
