REMARK  Name = 38029159
REMARK  14 active torsions:
REMARK  status: ('A' for Active; 'I' for Inactive)
REMARK    1  A    between atoms: N_3  and  C_14
REMARK    2  A    between atoms: N_4  and  C_21
REMARK    3  A    between atoms: N_4  and  C_22
REMARK    4  A    between atoms: N_5  and  C_23
REMARK    5  A    between atoms: C_7  and  C_11
REMARK    6  A    between atoms: C_8  and  C_14
REMARK    7  A    between atoms: C_10  and  C_15
REMARK    8  A    between atoms: C_11  and  C_16
REMARK    9  A    between atoms: C_11  and  C_17
REMARK   10  A    between atoms: C_12  and  C_18
REMARK   11  A    between atoms: C_15  and  C_19
REMARK   12  A    between atoms: C_21  and  C_24
REMARK   13  A    between atoms: C_23  and  C_25
REMARK   14  A    between atoms: C_23  and  C_26
REMARK                            x       y       z     vdW  Elec       q    Type
REMARK                         _______ _______ _______ _____ _____    ______ ____
ROOT
ATOM      7  C   UNL     1       1.791   1.317  -1.105  0.00  0.00    +0.000 C 
ATOM      8  C   UNL     1       3.220   1.571  -0.564  0.00  0.00    +0.032 C 
ATOM      9  C   UNL     1       0.820   2.384  -0.576  0.00  0.00    +0.012 C 
ATOM     10  C   UNL     1       0.763   2.407   0.963  0.00  0.00    +0.023 C 
ATOM     12  C   UNL     1       2.147   2.387   1.579  0.00  0.00    -0.073 C 
ATOM     13  C   UNL     1       3.235   2.023   0.877  0.00  0.00    -0.022 C 
ATOM     18  C   UNL     1       2.259   2.838   3.009  0.00  0.00    +0.039 C 
ENDROOT
BRANCH   7  11
ATOM     11  C   UNL     1       1.757   1.300  -2.636  0.00  0.00    -0.013 C 
ATOM     16  C   UNL     1       0.563   0.490  -3.133  0.00  0.00    +0.007 C 
ATOM     17  C   UNL     1       1.711   2.723  -3.184  0.00  0.00    +0.007 C 
ENDBRANCH   7  11
BRANCH   8  14
ATOM     14  C   UNL     1       4.098   0.324  -0.717  0.00  0.00    +0.113 C 
BRANCH  14   3
ATOM      2  O   UNL     1       3.207  -2.281  -1.582  0.00  0.00    -0.253 OA
ATOM      3  N   UNL     1       3.618  -0.740   0.108  0.00  0.00    -0.299 N 
ATOM      5  N   UNL     1       2.782  -2.832   0.632  0.00  0.00    -0.297 N 
ATOM     20  C   UNL     1       3.201  -1.982  -0.389  0.00  0.00    +0.300 C 
ATOM     31  H   UNL     1       3.640  -0.619   1.116  0.00  0.00    +0.150 HD
ATOM     32  H   UNL     1       2.740  -2.465   1.578  0.00  0.00    +0.150 HD
BRANCH   5  23
ATOM     23  C   UNL     1       2.303  -4.171   0.387  0.00  0.00    +0.068 C 
ATOM     25  C   UNL     1       0.803  -4.158   0.124  0.00  0.00    +0.027 C 
ATOM     26  C   UNL     1       2.651  -5.086   1.555  0.00  0.00    +0.027 C 
ENDBRANCH   5  23
ENDBRANCH  14   3
ENDBRANCH   8  14
BRANCH  10  15
ATOM     15  C   UNL     1      -0.094   1.256   1.501  0.00  0.00    +0.103 C 
BRANCH  15  19
ATOM      1  O   UNL     1      -1.981   2.527   0.746  0.00  0.00    -0.276 OA
ATOM      4  N   UNL     1      -2.429   0.490   1.760  0.00  0.00    -0.300 N 
ATOM     19  C   UNL     1      -1.578   1.498   1.294  0.00  0.00    +0.216 C 
ATOM     22  C   UNL     1      -1.929  -0.719   2.405  0.00  0.00    +0.132 C 
BRANCH   4  21
ATOM     21  C   UNL     1      -3.882   0.572   1.636  0.00  0.00    +0.144 C 
BRANCH  21  24
ATOM      6  N   UNL     1      -5.458  -1.946  -0.704  0.00  0.00    -0.263 NA
ATOM     24  C   UNL     1      -4.375  -0.071   0.372  0.00  0.00    -0.012 A 
ATOM     27  C   UNL     1      -4.225   0.558  -0.859  0.00  0.00    +0.008 A 
ATOM     28  C   UNL     1      -4.993  -1.311   0.395  0.00  0.00    +0.115 A 
ATOM     29  C   UNL     1      -4.691  -0.063  -2.012  0.00  0.00    +0.020 A 
ATOM     30  C   UNL     1      -5.294  -1.304  -1.882  0.00  0.00    +0.111 A 
ENDBRANCH  21  24
ENDBRANCH   4  21
ENDBRANCH  15  19
ENDBRANCH  10  15
TORSDOF 8
