REMARK  Name = 40779908
REMARK  9 active torsions:
REMARK  status: ('A' for Active; 'I' for Inactive)
REMARK    1  A    between atoms: O_4  and  C_22
REMARK    2  A    between atoms: O_4  and  C_25
REMARK    3  A    between atoms: N_7  and  C_16
REMARK    4  A    between atoms: N_8  and  C_17
REMARK    5  A    between atoms: C_10  and  C_16
REMARK    6  A    between atoms: C_12  and  C_17
REMARK    7  A    between atoms: C_18  and  C_22
REMARK    8  A    between atoms: C_23  and  C_24
REMARK    9  A    between atoms: C_30  and  C_31
REMARK                            x       y       z     vdW  Elec       q    Type
REMARK                         _______ _______ _______ _____ _____    ______ ____
ROOT
ATOM      6  N   UNL     1       2.074  -2.579   0.994  0.00  0.00    -0.298 NA
ATOM      9  C   UNL     1       2.291  -2.129  -1.558  0.00  0.00    -0.003 C 
ATOM     10  C   UNL     1       3.470  -1.496  -0.784  0.00  0.00    +0.020 C 
ATOM     11  C   UNL     1       0.964  -1.575  -1.008  0.00  0.00    +0.024 C 
ATOM     12  C   UNL     1       0.811  -1.991   0.472  0.00  0.00    +0.074 C 
ATOM     13  C   UNL     1       3.214  -1.669   0.730  0.00  0.00    +0.089 C 
ATOM     14  C   UNL     1       2.316  -3.639  -1.255  0.00  0.00    +0.019 C 
ATOM     15  C   UNL     1       2.319  -3.850   0.270  0.00  0.00    +0.085 C 
ENDROOT
BRANCH  10  16
ATOM     16  C   UNL     1       3.715  -0.034  -1.151  0.00  0.00    +0.089 C 
BRANCH  16   7
ATOM      7  N   UNL     1       4.892   0.484  -0.463  0.00  0.00    -0.297 NA
ATOM     18  C   UNL     1       4.957   1.952  -0.448  0.00  0.00    +0.082 C 
ATOM     19  C   UNL     1       6.129   0.058  -1.121  0.00  0.00    +0.085 C 
ATOM     20  C   UNL     1       6.417   2.219  -0.074  0.00  0.00    +0.022 C 
ATOM     21  C   UNL     1       7.180   0.977  -0.521  0.00  0.00    +0.017 C 
BRANCH  18  22
ATOM     22  C   UNL     1       3.994   2.590   0.545  0.00  0.00    +0.178 C 
BRANCH  22   4
ATOM      4  O   UNL     1       4.221   3.988   0.561  0.00  0.00    -0.381 OA
ATOM     25  C   UNL     1       3.352   4.652   1.472  0.00  0.00    +0.194 C 
ENDBRANCH  22   4
ENDBRANCH  18  22
ENDBRANCH  16   7
ENDBRANCH  10  16
BRANCH  12  17
ATOM     17  C   UNL     1       0.305  -0.835   1.338  0.00  0.00    +0.123 C 
BRANCH  17   8
ATOM      5  O   UNL     1      -2.239  -1.817   2.236  0.00  0.00    -0.270 OA
ATOM      8  N   UNL     1      -1.005  -0.391   0.890  0.00  0.00    -0.310 N 
ATOM     23  C   UNL     1      -2.174  -0.931   1.388  0.00  0.00    +0.244 C 
ATOM     32  H   UNL     1      -1.021   0.293   0.140  0.00  0.00    +0.149 HD
BRANCH  23  24
ATOM     24  C   UNL     1      -3.429  -0.388   0.808  0.00  0.00    +0.037 A 
ATOM     26  C   UNL     1      -4.581  -1.175   0.777  0.00  0.00    +0.013 A 
ATOM     27  C   UNL     1      -3.456   0.908   0.294  0.00  0.00    +0.013 A 
ATOM     28  C   UNL     1      -5.759  -0.665   0.232  0.00  0.00    +0.013 A 
ATOM     29  C   UNL     1      -4.635   1.418  -0.251  0.00  0.00    +0.013 A 
ATOM     30  C   UNL     1      -5.786   0.631  -0.282  0.00  0.00    +0.055 A 
BRANCH  30  31
ATOM      1  F   UNL     1      -7.503   2.296  -0.229  0.00  0.00    -0.166 F 
ATOM      2  F   UNL     1      -8.076   0.282  -0.818  0.00  0.00    -0.166 F 
ATOM      3  F   UNL     1      -6.931   1.535  -2.178  0.00  0.00    -0.166 F 
ATOM     31  C   UNL     1      -7.046   1.177  -0.865  0.00  0.00    +0.417 C 
ENDBRANCH  30  31
ENDBRANCH  23  24
ENDBRANCH  17   8
ENDBRANCH  12  17
TORSDOF 8
