REMARK  Name = 28961236
REMARK  10 active torsions:
REMARK  status: ('A' for Active; 'I' for Inactive)
REMARK    1  A    between atoms: O_4  and  C_10
REMARK    2  A    between atoms: O_5  and  C_17
REMARK    3  A    between atoms: N_6  and  C_8
REMARK    4  A    between atoms: N_7  and  C_14
REMARK    5  A    between atoms: N_7  and  C_18
REMARK    6  A    between atoms: N_7  and  C_19
REMARK    7  A    between atoms: C_9  and  C_14
REMARK    8  A    between atoms: C_11  and  C_17
REMARK    9  A    between atoms: C_18  and  C_20
REMARK   10  A    between atoms: C_19  and  C_21
REMARK                            x       y       z     vdW  Elec       q    Type
REMARK                         _______ _______ _______ _____ _____    ______ ____
ROOT
ATOM      7  N   UNL     1      -0.670   0.518  -0.707  0.00  0.00    -0.291 NA
ENDROOT
BRANCH   7  14
ATOM     14  C   UNL     1       0.784   0.586  -0.688  0.00  0.00    +0.118 C 
BRANCH  14   9
ATOM      3  O   UNL     1       0.879   0.082   1.647  0.00  0.00    -0.366 OA
ATOM      8  C   UNL     1       2.810   1.206   0.824  0.00  0.00    +0.118 C 
ATOM      9  C   UNL     1       1.290   1.062   0.668  0.00  0.00    +0.152 C 
ATOM     10  C   UNL     1       3.223  -0.139   1.402  0.00  0.00    +0.165 C 
ATOM     11  C   UNL     1       2.045  -0.422   2.327  0.00  0.00    +0.174 C 
BRANCH   8   6
ATOM      6  N   UNL     1       3.542   1.622  -0.363  0.00  0.00    -0.295 NA
ATOM     12  C   UNL     1       3.463   3.065  -0.590  0.00  0.00    +0.085 C 
ATOM     13  C   UNL     1       4.971   1.330  -0.269  0.00  0.00    +0.085 C 
ATOM     15  C   UNL     1       4.576   3.314  -1.597  0.00  0.00    +0.017 C 
ATOM     16  C   UNL     1       5.565   2.171  -1.389  0.00  0.00    +0.017 C 
ENDBRANCH   8   6
BRANCH  10   4
ATOM      4  O   UNL     1       3.310  -1.136   0.392  0.00  0.00    -0.388 OA
ATOM     32  H   UNL     1       3.677  -1.938   0.800  0.00  0.00    +0.210 HD
ENDBRANCH  10   4
BRANCH  11  17
ATOM     17  C   UNL     1       1.827  -1.882   2.679  0.00  0.00    +0.190 C 
BRANCH  17   5
ATOM      5  O   UNL     1       0.711  -1.982   3.549  0.00  0.00    -0.392 OA
ATOM     33  H   UNL     1       0.590  -2.925   3.752  0.00  0.00    +0.210 HD
ENDBRANCH  17   5
ENDBRANCH  11  17
ENDBRANCH  14   9
ENDBRANCH   7  14
BRANCH   7  18
ATOM     18  C   UNL     1      -1.250   1.855  -0.857  0.00  0.00    +0.120 C 
BRANCH  18  20
ATOM      1  F   UNL     1      -6.543   2.075   1.064  0.00  0.00    -0.205 F 
ATOM     20  C   UNL     1      -2.664   1.913  -0.344  0.00  0.00    -0.033 A 
ATOM     22  C   UNL     1      -3.576   2.802  -0.912  0.00  0.00    +0.008 A 
ATOM     24  C   UNL     1      -3.063   1.079   0.701  0.00  0.00    +0.008 A 
ATOM     26  C   UNL     1      -4.886   2.857  -0.437  0.00  0.00    +0.038 A 
ATOM     28  C   UNL     1      -4.373   1.133   1.176  0.00  0.00    +0.038 A 
ATOM     30  C   UNL     1      -5.285   2.023   0.607  0.00  0.00    +0.123 A 
ENDBRANCH  18  20
ENDBRANCH   7  18
BRANCH   7  19
ATOM     19  C   UNL     1      -1.134  -0.358  -1.786  0.00  0.00    +0.120 C 
BRANCH  19  21
ATOM      2  F   UNL     1      -0.551  -5.804  -0.464  0.00  0.00    -0.205 F 
ATOM     21  C   UNL     1      -0.978  -1.813  -1.432  0.00  0.00    -0.033 A 
ATOM     23  C   UNL     1      -0.751  -2.754  -2.437  0.00  0.00    +0.008 A 
ATOM     25  C   UNL     1      -1.060  -2.221  -0.101  0.00  0.00    +0.008 A 
ATOM     27  C   UNL     1      -0.607  -4.103  -2.110  0.00  0.00    +0.038 A 
ATOM     29  C   UNL     1      -0.916  -3.569   0.226  0.00  0.00    +0.038 A 
ATOM     31  C   UNL     1      -0.690  -4.510  -0.778  0.00  0.00    +0.123 A 
ENDBRANCH  19  21
ENDBRANCH   7  19
TORSDOF 10
