REMARK  Name = 11912492
REMARK  5 active torsions:
REMARK  status: ('A' for Active; 'I' for Inactive)
REMARK    1  A    between atoms: O_3  and  C_13
REMARK    2  A    between atoms: O_3  and  C_22
REMARK    3  A    between atoms: N_6  and  C_12
REMARK    4  A    between atoms: N_7  and  C_16
REMARK    5  A    between atoms: C_24  and  C_27
REMARK                            x       y       z     vdW  Elec       q    Type
REMARK                         _______ _______ _______ _____ _____    ______ ____
ROOT
ATOM      1  O   UNL     1       1.213  -0.351   1.134  0.00  0.00    -0.368 OA
ATOM      2  O   UNL     1      -0.602   2.029   0.458  0.00  0.00    -0.368 OA
ATOM     10  C   UNL     1      -0.652   0.643   0.059  0.00  0.00    +0.173 C 
ATOM     11  C   UNL     1       0.782   0.187  -0.126  0.00  0.00    +0.192 C 
ATOM     12  C   UNL     1      -1.161  -0.206   1.200  0.00  0.00    +0.130 C 
ATOM     13  C   UNL     1       1.494   1.476  -0.458  0.00  0.00    +0.235 C 
ATOM     14  C   UNL     1       0.093  -0.418   2.030  0.00  0.00    +0.185 C 
ATOM     15  C   UNL     1       0.760   2.477   0.406  0.00  0.00    +0.207 C 
ENDROOT
BRANCH  12   6
ATOM      6  N   UNL     1      -1.654  -1.473   0.703  0.00  0.00    -0.306 N 
ATOM      8  N   UNL     1      -3.776  -0.588   0.234  0.00  0.00    -0.211 NA
ATOM      9  N   UNL     1      -3.273  -2.902  -0.213  0.00  0.00    -0.223 NA
ATOM     23  C   UNL     1      -2.940  -1.660   0.227  0.00  0.00    +0.216 A 
ATOM     24  C   UNL     1      -5.022  -0.807  -0.237  0.00  0.00    +0.111 A 
ATOM     25  C   UNL     1      -4.534  -3.050  -0.670  0.00  0.00    +0.116 A 
ATOM     26  C   UNL     1      -5.461  -2.028  -0.707  0.00  0.00    +0.051 A 
ATOM     31  H   UNL     1      -1.024  -2.264   0.644  0.00  0.00    +0.149 HD
BRANCH  24  27
ATOM      5  O   UNL     1      -5.323   1.480   0.272  0.00  0.00    -0.461 OA
ATOM     27  C   UNL     1      -5.884   0.345  -0.216  0.00  0.00    +0.153 A 
ATOM     28  C   UNL     1      -7.187   0.567  -0.589  0.00  0.00    +0.051 A 
ATOM     29  C   UNL     1      -7.447   1.930  -0.311  0.00  0.00    +0.042 A 
ATOM     30  C   UNL     1      -6.282   2.442   0.211  0.00  0.00    +0.196 A 
ENDBRANCH  24  27
ENDBRANCH  12   6
BRANCH  13   3
ATOM      3  O   UNL     1       2.875   1.444  -0.176  0.00  0.00    -0.442 OA
BRANCH   3  22
ATOM      4  O   UNL     1       3.166  -0.228  -1.722  0.00  0.00    -0.226 OA
ATOM      7  N   UNL     1       4.955   0.612  -0.507  0.00  0.00    -0.278 N 
ATOM     22  C   UNL     1       3.630   0.535  -0.881  0.00  0.00    +0.401 C 
ATOM     32  H   UNL     1       5.193   1.260   0.237  0.00  0.00    +0.152 HD
BRANCH   7  16
ATOM     16  C   UNL     1       5.997  -0.217  -1.070  0.00  0.00    +0.076 C 
ATOM     17  C   UNL     1       7.333   0.533  -1.117  0.00  0.00    +0.022 C 
ATOM     18  C   UNL     1       6.128  -1.536  -0.301  0.00  0.00    +0.022 C 
ATOM     19  C   UNL     1       7.948   0.719   0.270  0.00  0.00    +0.002 C 
ATOM     20  C   UNL     1       6.745  -1.347   1.084  0.00  0.00    +0.002 C 
ATOM     21  C   UNL     1       8.078  -0.608   1.011  0.00  0.00    +0.000 C 
ENDBRANCH   7  16
ENDBRANCH   3  22
ENDBRANCH  13   3
TORSDOF 5
