REMARK  Name = 11883367
REMARK  9 active torsions:
REMARK  status: ('A' for Active; 'I' for Inactive)
REMARK    1  A    between atoms: O_3  and  C_13
REMARK    2  A    between atoms: O_3  and  C_17
REMARK    3  A    between atoms: O_6  and  C_27
REMARK    4  A    between atoms: O_6  and  C_30
REMARK    5  A    between atoms: O_7  and  C_28
REMARK    6  A    between atoms: O_7  and  C_31
REMARK    7  A    between atoms: N_8  and  C_12
REMARK    8  A    between atoms: N_9  and  C_21
REMARK    9  A    between atoms: C_16  and  C_18
REMARK                            x       y       z     vdW  Elec       q    Type
REMARK                         _______ _______ _______ _____ _____    ______ ____
ROOT
ATOM      1  O   UNL     1      -1.339   1.276   0.964  0.00  0.00    -0.368 OA
ATOM      2  O   UNL     1      -2.086   3.244  -1.266  0.00  0.00    -0.368 OA
ATOM     10  C   UNL     1      -2.438   1.861  -1.054  0.00  0.00    +0.173 C 
ATOM     11  C   UNL     1      -1.217   1.183  -0.465  0.00  0.00    +0.192 C 
ATOM     12  C   UNL     1      -3.477   1.750   0.037  0.00  0.00    +0.130 C 
ATOM     13  C   UNL     1      -0.086   2.035  -0.987  0.00  0.00    +0.235 C 
ATOM     14  C   UNL     1      -2.629   1.813   1.296  0.00  0.00    +0.185 C 
ATOM     15  C   UNL     1      -0.694   3.420  -0.966  0.00  0.00    +0.207 C 
ENDROOT
BRANCH  12   8
ATOM      4  O   UNL     1      -6.124   1.225   1.017  0.00  0.00    -0.270 OA
ATOM      8  N   UNL     1      -4.195   0.502  -0.049  0.00  0.00    -0.304 N 
ATOM     16  C   UNL     1      -5.478   0.344   0.456  0.00  0.00    +0.244 C 
ATOM     32  H   UNL     1      -3.685  -0.300  -0.402  0.00  0.00    +0.149 HD
BRANCH  16  18
ATOM     18  C   UNL     1      -6.071  -1.011   0.312  0.00  0.00    +0.037 A 
ATOM     19  C   UNL     1      -7.038  -1.449   1.217  0.00  0.00    +0.013 A 
ATOM     20  C   UNL     1      -5.662  -1.845  -0.729  0.00  0.00    +0.013 A 
ATOM     22  C   UNL     1      -7.596  -2.720   1.081  0.00  0.00    +0.001 A 
ATOM     23  C   UNL     1      -6.219  -3.116  -0.864  0.00  0.00    +0.001 A 
ATOM     24  C   UNL     1      -7.186  -3.554   0.041  0.00  0.00    +0.000 A 
ENDBRANCH  16  18
ENDBRANCH  12   8
BRANCH  13   3
ATOM      3  O   UNL     1       1.084   1.958  -0.205  0.00  0.00    -0.442 OA
BRANCH   3  17
ATOM      5  O   UNL     1       1.879   0.290  -1.553  0.00  0.00    -0.226 OA
ATOM      9  N   UNL     1       3.105   1.080   0.278  0.00  0.00    -0.251 N 
ATOM     17  C   UNL     1       2.028   1.026  -0.586  0.00  0.00    +0.405 C 
ATOM     33  H   UNL     1       3.046   1.764   1.028  0.00  0.00    +0.158 HD
BRANCH   9  21
ATOM     21  C   UNL     1       4.284   0.300   0.248  0.00  0.00    +0.043 A 
ATOM     25  C   UNL     1       5.274   0.496   1.211  0.00  0.00    +0.069 A 
ATOM     26  C   UNL     1       4.457  -0.665  -0.744  0.00  0.00    +0.069 A 
ATOM     27  C   UNL     1       5.620  -1.435  -0.772  0.00  0.00    +0.125 A 
ATOM     28  C   UNL     1       6.436  -0.274   1.183  0.00  0.00    +0.125 A 
ATOM     29  C   UNL     1       6.610  -1.239   0.191  0.00  0.00    +0.091 A 
BRANCH  27   6
ATOM      6  O   UNL     1       5.789  -2.377  -1.740  0.00  0.00    -0.495 OA
ATOM     30  C   UNL     1       7.002  -3.128  -1.710  0.00  0.00    +0.277 C 
ENDBRANCH  27   6
BRANCH  28   7
ATOM      7  O   UNL     1       7.402  -0.083   2.123  0.00  0.00    -0.495 OA
ATOM     31  C   UNL     1       8.566  -0.905   2.034  0.00  0.00    +0.277 C 
ENDBRANCH  28   7
ENDBRANCH   9  21
ENDBRANCH   3  17
ENDBRANCH  13   3
TORSDOF 7
