REMARK  Name = 38027134
REMARK  15 active torsions:
REMARK  status: ('A' for Active; 'I' for Inactive)
REMARK    1  A    between atoms: S_1  and  N_5
REMARK    2  A    between atoms: S_1  and  C_20
REMARK    3  A    between atoms: N_5  and  C_14
REMARK    4  A    between atoms: N_6  and  C_21
REMARK    5  A    between atoms: N_6  and  C_23
REMARK    6  A    between atoms: C_7  and  C_11
REMARK    7  A    between atoms: C_8  and  C_14
REMARK    8  A    between atoms: C_10  and  C_15
REMARK    9  A    between atoms: C_11  and  C_16
REMARK   10  A    between atoms: C_11  and  C_17
REMARK   11  A    between atoms: C_12  and  C_18
REMARK   12  A    between atoms: C_15  and  C_19
REMARK   13  A    between atoms: C_20  and  C_22
REMARK   14  A    between atoms: C_21  and  C_24
REMARK   15  A    between atoms: C_22  and  C_25
REMARK                            x       y       z     vdW  Elec       q    Type
REMARK                         _______ _______ _______ _____ _____    ______ ____
ROOT
ATOM      7  C   UNL     1      -1.135   1.069   1.308  0.00  0.00    +0.000 C 
ATOM      8  C   UNL     1      -2.461   1.746   0.881  0.00  0.00    +0.030 C 
ATOM      9  C   UNL     1       0.036   2.054   1.176  0.00  0.00    +0.012 C 
ATOM     10  C   UNL     1       0.197   2.579  -0.263  0.00  0.00    +0.023 C 
ATOM     12  C   UNL     1      -1.127   3.019  -0.853  0.00  0.00    -0.073 C 
ATOM     13  C   UNL     1      -2.305   2.648  -0.320  0.00  0.00    -0.023 C 
ATOM     18  C   UNL     1      -1.067   3.934  -2.045  0.00  0.00    +0.039 C 
ENDROOT
BRANCH   7  11
ATOM     11  C   UNL     1      -1.204   0.536   2.743  0.00  0.00    -0.013 C 
ATOM     16  C   UNL     1      -0.203  -0.597   2.938  0.00  0.00    +0.007 C 
ATOM     17  C   UNL     1      -0.951   1.661   3.742  0.00  0.00    +0.007 C 
ENDBRANCH   7  11
BRANCH   8  14
ATOM     14  C   UNL     1      -3.549   0.703   0.599  0.00  0.00    +0.113 C 
BRANCH  14   5
ATOM      5  N   UNL     1      -3.156  -0.096  -0.572  0.00  0.00    -0.194 NA
ATOM     31  H   UNL     1      -3.159   0.432  -1.455  0.00  0.00    +0.148 HD
BRANCH   5   1
ATOM      1  S   UNL     1      -3.671  -1.721  -0.686  0.00  0.00    +0.029 S 
ATOM      3  O   UNL     1      -3.168  -2.475   0.446  0.00  0.00    -0.158 OA
ATOM      4  O   UNL     1      -3.448  -2.183  -2.042  0.00  0.00    -0.158 OA
BRANCH   1  20
ATOM     20  C   UNL     1      -5.425  -1.522  -0.474  0.00  0.00    +0.185 C 
BRANCH  20  22
ATOM     22  C   UNL     1      -6.146  -2.858  -0.536  0.00  0.00    +0.021 C 
ATOM     25  C   UNL     1      -7.647  -2.688  -0.375  0.00  0.00    +0.005 C 
ENDBRANCH  20  22
ENDBRANCH   1  20
ENDBRANCH   5   1
ENDBRANCH  14   5
ENDBRANCH   8  14
BRANCH  10  15
ATOM     15  C   UNL     1       0.877   1.536  -1.158  0.00  0.00    +0.103 C 
BRANCH  15  19
ATOM      2  O   UNL     1       2.901   2.113  -0.010  0.00  0.00    -0.276 OA
ATOM      6  N   UNL     1       3.058   0.486  -1.655  0.00  0.00    -0.300 N 
ATOM     19  C   UNL     1       2.364   1.418  -0.876  0.00  0.00    +0.216 C 
ATOM     23  C   UNL     1       2.401  -0.325  -2.673  0.00  0.00    +0.132 C 
BRANCH   6  21
ATOM     21  C   UNL     1       4.492   0.254  -1.505  0.00  0.00    +0.142 C 
BRANCH  21  24
ATOM     24  C   UNL     1       4.785  -0.853  -0.534  0.00  0.00    -0.030 A 
ATOM     26  C   UNL     1       4.956  -0.566   0.820  0.00  0.00    +0.005 A 
ATOM     27  C   UNL     1       4.885  -2.169  -0.986  0.00  0.00    +0.005 A 
ATOM     28  C   UNL     1       5.228  -1.595   1.722  0.00  0.00    +0.000 A 
ATOM     29  C   UNL     1       5.156  -3.198  -0.084  0.00  0.00    +0.000 A 
ATOM     30  C   UNL     1       5.328  -2.910   1.270  0.00  0.00    +0.000 A 
ENDBRANCH  21  24
ENDBRANCH   6  21
ENDBRANCH  15  19
ENDBRANCH  10  15
TORSDOF 10
