REMARK  Name = 71694030
REMARK  8 active torsions:
REMARK  status: ('A' for Active; 'I' for Inactive)
REMARK    1  A    between atoms: O_1  and  C_7
REMARK    2  A    between atoms: O_2  and  C_9
REMARK    3  A    between atoms: O_3  and  C_22
REMARK    4  A    between atoms: O_3  and  C_23
REMARK    5  A    between atoms: N_4  and  C_5
REMARK    6  A    between atoms: N_4  and  C_11
REMARK    7  A    between atoms: C_6  and  C_10
REMARK    8  A    between atoms: C_11  and  C_14
REMARK                            x       y       z     vdW  Elec       q    Type
REMARK                         _______ _______ _______ _____ _____    ______ ____
ROOT
ATOM      5  C   UNL     1       1.276  -1.010  -0.044  0.00  0.00    +0.092 C 
ATOM      6  C   UNL     1       2.341  -0.391  -0.978  0.00  0.00    +0.041 C 
ATOM      7  C   UNL     1       1.399  -2.508  -0.321  0.00  0.00    +0.160 C 
ATOM      8  C   UNL     1       3.399  -1.507  -1.195  0.00  0.00    +0.043 C 
ATOM      9  C   UNL     1       2.909  -2.712  -0.391  0.00  0.00    +0.145 C 
ENDROOT
BRANCH   6  10
ATOM     10  C   UNL     1       2.911   0.909  -0.453  0.00  0.00    -0.043 A 
ATOM     12  C   UNL     1       2.301   2.120  -0.780  0.00  0.00    +0.004 A 
ATOM     13  C   UNL     1       4.046   0.896   0.358  0.00  0.00    +0.004 A 
ATOM     15  C   UNL     1       2.826   3.319  -0.296  0.00  0.00    +0.000 A 
ATOM     16  C   UNL     1       4.571   2.095   0.842  0.00  0.00    +0.000 A 
ATOM     17  C   UNL     1       3.961   3.306   0.515  0.00  0.00    +0.000 A 
ENDBRANCH   6  10
BRANCH   7   1
ATOM      1  O   UNL     1       0.805  -3.279   0.707  0.00  0.00    -0.388 OA
ATOM     25  H   UNL     1       1.008  -4.212   0.524  0.00  0.00    +0.210 HD
ENDBRANCH   7   1
BRANCH   9   2
ATOM      2  O   UNL     1       3.472  -2.672   0.918  0.00  0.00    -0.389 OA
ATOM     26  H   UNL     1       4.437  -2.751   0.822  0.00  0.00    +0.210 HD
ENDBRANCH   9   2
BRANCH   5   4
ATOM      4  N   UNL     1      -0.065  -0.514  -0.337  0.00  0.00    -0.306 NA
ATOM     24  H   UNL     1      -0.019   0.485  -0.532  0.00  0.00    +0.123 HD
BRANCH   4  11
ATOM     11  C   UNL     1      -0.956  -0.728   0.795  0.00  0.00    +0.116 C 
BRANCH  11  14
ATOM     14  C   UNL     1      -2.349  -0.231   0.513  0.00  0.00    -0.033 A 
ATOM     18  C   UNL     1      -2.622   1.137   0.549  0.00  0.00    +0.008 A 
ATOM     19  C   UNL     1      -3.365  -1.137   0.214  0.00  0.00    +0.008 A 
ATOM     20  C   UNL     1      -3.912   1.597   0.286  0.00  0.00    +0.046 A 
ATOM     21  C   UNL     1      -4.655  -0.677  -0.049  0.00  0.00    +0.046 A 
ATOM     22  C   UNL     1      -4.929   0.690  -0.013  0.00  0.00    +0.120 A 
BRANCH  22   3
ATOM      3  O   UNL     1      -6.187   1.139  -0.272  0.00  0.00    -0.495 OA
ATOM     23  C   UNL     1      -7.178   0.157  -0.571  0.00  0.00    +0.277 C 
ENDBRANCH  22   3
ENDBRANCH  11  14
ENDBRANCH   4  11
ENDBRANCH   5   4
TORSDOF 7
