REMARK  Name = 11879504
REMARK  10 active torsions:
REMARK  status: ('A' for Active; 'I' for Inactive)
REMARK    1  A    between atoms: O_2  and  C_15
REMARK    2  A    between atoms: O_3  and  C_20
REMARK    3  A    between atoms: N_7  and  C_28
REMARK    4  A    between atoms: C_10  and  C_18
REMARK    5  A    between atoms: C_12  and  C_20
REMARK    6  A    between atoms: C_12  and  C_21
REMARK    7  A    between atoms: C_13  and  C_23
REMARK    8  A    between atoms: C_23  and  C_24
REMARK    9  A    between atoms: C_26  and  C_27
REMARK   10  A    between atoms: C_28  and  C_34
REMARK                            x       y       z     vdW  Elec       q    Type
REMARK                         _______ _______ _______ _____ _____    ______ ____
ROOT
ATOM      1  S   UNL     1       0.673  -3.057   0.020  0.00  0.00    -0.057 S 
ATOM      5  O   UNL     1      -3.131  -0.378  -0.356  0.00  0.00    -0.275 OA
ATOM      6  N   UNL     1      -0.172  -0.619  -0.170  0.00  0.00    -0.229 NA
ATOM      8  N   UNL     1      -1.846  -2.353  -0.164  0.00  0.00    -0.264 N 
ATOM     10  C   UNL     1       3.463   0.546   0.374  0.00  0.00    -0.019 C 
ATOM     11  C   UNL     1       4.067  -0.750  -0.326  0.00  0.00    +0.011 C 
ATOM     12  C   UNL     1       5.636  -0.912  -0.304  0.00  0.00    +0.021 C 
ATOM     13  C   UNL     1       1.960   0.729  -0.138  0.00  0.00    +0.054 C 
ATOM     14  C   UNL     1       4.281   1.792  -0.056  0.00  0.00    +0.010 C 
ATOM     15  C   UNL     1       6.295   0.436  -0.714  0.00  0.00    +0.123 C 
ATOM     16  C   UNL     1       3.298  -2.036   0.099  0.00  0.00    +0.049 C 
ATOM     17  C   UNL     1       5.786   1.624   0.094  0.00  0.00    +0.032 C 
ATOM     18  C   UNL     1       3.473   0.455   1.920  0.00  0.00    +0.012 C 
ATOM     19  C   UNL     1       1.207  -0.576  -0.083  0.00  0.00    +0.058 A 
ATOM     21  C   UNL     1       6.052  -1.971  -1.363  0.00  0.00    +0.016 C 
ATOM     22  C   UNL     1       1.828  -1.805   0.005  0.00  0.00    +0.015 A 
ATOM     25  C   UNL     1      -0.564  -1.873  -0.119  0.00  0.00    +0.165 A 
ATOM     26  C   UNL     1      -3.025  -1.597  -0.277  0.00  0.00    +0.222 C 
ATOM     42  H   UNL     1      -1.924  -3.364  -0.104  0.00  0.00    +0.157 HD
ENDROOT
BRANCH  26  27
ATOM     27  C   UNL     1      -4.245  -2.470  -0.299  0.00  0.00    +0.075 C 
ATOM     29  C   UNL     1      -4.732  -2.722   1.130  0.00  0.00    +0.013 C 
ATOM     30  C   UNL     1      -5.334  -1.823  -1.157  0.00  0.00    +0.013 C 
ATOM     31  C   UNL     1      -6.026  -3.530   1.150  0.00  0.00    +0.001 C 
ATOM     32  C   UNL     1      -6.628  -2.633  -1.131  0.00  0.00    +0.001 C 
ATOM     33  C   UNL     1      -7.110  -2.878   0.296  0.00  0.00    +0.000 C 
ENDBRANCH  26  27
BRANCH  15   2
ATOM      2  O   UNL     1       7.714   0.363  -0.579  0.00  0.00    -0.391 OA
ATOM     39  H   UNL     1       8.083   1.207  -0.890  0.00  0.00    +0.210 HD
ENDBRANCH  15   2
BRANCH  12  20
ATOM     20  C   UNL     1       6.208  -1.419   1.038  0.00  0.00    +0.165 C 
BRANCH  20   3
ATOM      3  O   UNL     1       7.608  -1.521   0.899  0.00  0.00    -0.394 OA
ATOM     40  H   UNL     1       7.960  -1.850   1.743  0.00  0.00    +0.209 HD
ENDBRANCH  20   3
ENDBRANCH  12  20
BRANCH  13  23
ATOM     23  C   UNL     1       1.183   1.856   0.555  0.00  0.00    +0.106 C 
BRANCH  23  24
ATOM      4  O   UNL     1      -0.144   2.011  -1.462  0.00  0.00    -0.276 OA
ATOM      7  N   UNL     1      -0.610   3.418   0.328  0.00  0.00    -0.311 N 
ATOM     24  C   UNL     1       0.086   2.410  -0.324  0.00  0.00    +0.214 C 
ATOM     41  H   UNL     1      -0.345   3.671   1.276  0.00  0.00    +0.149 HD
BRANCH   7  28
ATOM     28  C   UNL     1      -1.712   4.133  -0.274  0.00  0.00    +0.141 C 
BRANCH  28  34
ATOM      9  N   UNL     1      -5.171   2.704  -0.821  0.00  0.00    -0.263 NA
ATOM     34  C   UNL     1      -3.030   3.469   0.003  0.00  0.00    -0.012 A 
ATOM     35  C   UNL     1      -3.348   3.011   1.277  0.00  0.00    +0.008 A 
ATOM     36  C   UNL     1      -3.967   3.293  -1.002  0.00  0.00    +0.115 A 
ATOM     37  C   UNL     1      -4.577   2.400   1.503  0.00  0.00    +0.020 A 
ATOM     38  C   UNL     1      -5.445   2.272   0.431  0.00  0.00    +0.111 A 
ENDBRANCH  28  34
ENDBRANCH   7  28
ENDBRANCH  23  24
ENDBRANCH  13  23
TORSDOF 8
