REMARK  Name = 25313506
REMARK  8 active torsions:
REMARK  status: ('A' for Active; 'I' for Inactive)
REMARK    1  A    between atoms: O_4  and  C_25
REMARK    2  A    between atoms: O_4  and  C_33
REMARK    3  A    between atoms: N_7  and  C_23
REMARK    4  A    between atoms: C_9  and  C_13
REMARK    5  A    between atoms: C_10  and  C_15
REMARK    6  A    between atoms: C_13  and  C_16
REMARK    7  A    between atoms: C_15  and  C_17
REMARK    8  A    between atoms: C_24  and  C_27
REMARK                            x       y       z     vdW  Elec       q    Type
REMARK                         _______ _______ _______ _____ _____    ______ ____
ROOT
ATOM      5  N   UNL     1      -1.672   2.315   2.544  0.00  0.00    -0.316 NA
ATOM      9  C   UNL     1      -0.363   2.087  -0.090  0.00  0.00    +0.004 C 
ATOM     10  C   UNL     1      -1.786   1.548   0.185  0.00  0.00    +0.012 C 
ATOM     11  C   UNL     1      -0.049   3.211   0.912  0.00  0.00    +0.019 C 
ATOM     12  C   UNL     1      -1.979   1.185   1.667  0.00  0.00    +0.085 C 
ATOM     14  C   UNL     1      -0.303   2.791   2.359  0.00  0.00    +0.081 C 
ATOM     37  H   UNL     1      -1.803   2.034   3.516  0.00  0.00    +0.122 HD
ENDROOT
BRANCH   9  13
ATOM     13  C   UNL     1       0.729   1.011  -0.061  0.00  0.00    +0.100 C 
BRANCH  13  16
ATOM      2  O   UNL     1       1.930   2.601  -1.344  0.00  0.00    -0.276 OA
ATOM      6  N   UNL     1       3.030   0.615  -0.859  0.00  0.00    -0.298 N 
ATOM      7  N   UNL     1       5.519  -0.405  -0.006  0.00  0.00    -0.324 N 
ATOM     16  C   UNL     1       1.945   1.487  -0.814  0.00  0.00    +0.216 C 
ATOM     18  C   UNL     1       3.087  -0.713  -0.244  0.00  0.00    +0.126 C 
ATOM     19  C   UNL     1       4.242   0.984  -1.587  0.00  0.00    +0.126 C 
ATOM     20  C   UNL     1       4.294  -0.825   0.688  0.00  0.00    +0.124 C 
ATOM     21  C   UNL     1       5.465   0.904  -0.676  0.00  0.00    +0.124 C 
BRANCH   7  23
ATOM     23  C   UNL     1       6.763  -0.845   0.461  0.00  0.00    +0.072 A 
ATOM     25  C   UNL     1       7.830  -1.021  -0.419  0.00  0.00    +0.141 A 
ATOM     26  C   UNL     1       6.930  -1.106   1.821  0.00  0.00    +0.027 A 
ATOM     28  C   UNL     1       9.065  -1.459   0.060  0.00  0.00    +0.047 A 
ATOM     29  C   UNL     1       8.165  -1.544   2.300  0.00  0.00    +0.002 A 
ATOM     30  C   UNL     1       9.232  -1.720   1.420  0.00  0.00    +0.004 A 
BRANCH  25   4
ATOM      4  O   UNL     1       7.687  -0.772  -1.752  0.00  0.00    -0.493 OA
ATOM     33  C   UNL     1       7.265  -1.859  -2.572  0.00  0.00    +0.277 C 
ENDBRANCH  25   4
ENDBRANCH   7  23
ENDBRANCH  13  16
ENDBRANCH   9  13
BRANCH  10  15
ATOM     15  C   UNL     1      -2.163   0.367  -0.710  0.00  0.00    +0.064 C 
BRANCH  15  17
ATOM      3  O   UNL     1      -5.652   0.492  -1.590  0.00  0.00    -0.354 OA
ATOM      8  N   UNL     1      -4.323   0.846  -1.782  0.00  0.00    -0.083 NA
ATOM     17  C   UNL     1      -3.653   0.213  -0.814  0.00  0.00    +0.085 A 
ATOM     22  C   UNL     1      -4.500  -0.549   0.010  0.00  0.00    +0.076 A 
ATOM     24  C   UNL     1      -5.745  -0.339  -0.520  0.00  0.00    +0.167 A 
BRANCH  24  27
ATOM      1  F   UNL     1     -10.873  -2.099   0.726  0.00  0.00    -0.205 F 
ATOM     27  C   UNL     1      -7.067  -0.792  -0.198  0.00  0.00    +0.020 A 
ATOM     31  C   UNL     1      -7.266  -1.649   0.884  0.00  0.00    +0.014 A 
ATOM     32  C   UNL     1      -8.154  -0.376  -0.968  0.00  0.00    +0.014 A 
ATOM     34  C   UNL     1      -8.552  -2.091   1.196  0.00  0.00    +0.039 A 
ATOM     35  C   UNL     1      -9.439  -0.818  -0.655  0.00  0.00    +0.039 A 
ATOM     36  C   UNL     1      -9.639  -1.675   0.427  0.00  0.00    +0.123 A 
ENDBRANCH  24  27
ENDBRANCH  15  17
ENDBRANCH  10  15
TORSDOF 7
