REMARK  Name = 44716695
REMARK  11 active torsions:
REMARK  status: ('A' for Active; 'I' for Inactive)
REMARK    1  A    between atoms: O_3  and  C_11
REMARK    2  A    between atoms: C_9  and  C_17
REMARK    3  A    between atoms: C_12  and  C_18
REMARK    4  A    between atoms: C_14  and  C_21
REMARK    5  A    between atoms: C_18  and  C_22
REMARK    6  A    between atoms: C_18  and  C_23
REMARK    7  A    between atoms: C_29  and  C_30
REMARK    8  A    between atoms: C_30  and  C_31
REMARK    9  A    between atoms: C_31  and  C_32
REMARK   10  A    between atoms: C_31  and  C_33
REMARK   11  A    between atoms: C_31  and  C_34
REMARK                            x       y       z     vdW  Elec       q    Type
REMARK                         _______ _______ _______ _____ _____    ______ ____
ROOT
ATOM      1  S   UNL     1       3.196   0.773   2.031  0.00  0.00    -0.057 S 
ATOM      5  O   UNL     1       5.855   0.112  -1.769  0.00  0.00    -0.275 OA
ATOM      6  N   UNL     1       3.118   0.392  -0.525  0.00  0.00    -0.229 NA
ATOM      8  N   UNL     1       5.300   0.465   0.496  0.00  0.00    -0.265 N 
ATOM      9  C   UNL     1      -0.749   1.296   0.991  0.00  0.00    -0.022 C 
ATOM     10  C   UNL     1      -0.720   0.320  -0.251  0.00  0.00    +0.033 C 
ATOM     11  C   UNL     1      -1.970   0.517  -1.155  0.00  0.00    +0.123 C 
ATOM     12  C   UNL     1      -3.296   0.447  -0.365  0.00  0.00    +0.029 C 
ATOM     13  C   UNL     1      -2.095   1.149   1.738  0.00  0.00    +0.008 C 
ATOM     14  C   UNL     1       0.649   0.407  -1.041  0.00  0.00    +0.042 C 
ATOM     15  C   UNL     1      -3.305   1.383   0.844  0.00  0.00    +0.007 C 
ATOM     16  C   UNL     1       0.385   0.910   1.992  0.00  0.00    +0.051 C 
ATOM     17  C   UNL     1      -0.565   2.778   0.571  0.00  0.00    +0.012 C 
ATOM     19  C   UNL     1       1.811   0.488  -0.081  0.00  0.00    +0.057 A 
ATOM     20  C   UNL     1       1.673   0.723   1.272  0.00  0.00    +0.015 A 
ATOM     21  C   UNL     1       0.859  -0.758  -2.020  0.00  0.00    +0.014 C 
ATOM     24  C   UNL     1       3.931   0.514   0.501  0.00  0.00    +0.165 A 
ATOM     29  C   UNL     1       6.181   0.273  -0.597  0.00  0.00    +0.219 C 
ATOM     36  H   UNL     1       5.721   0.587   1.414  0.00  0.00    +0.157 HD
ENDROOT
BRANCH  11   3
ATOM      3  O   UNL     1      -2.010  -0.514  -2.140  0.00  0.00    -0.391 OA
ATOM     35  H   UNL     1      -2.075  -1.368  -1.679  0.00  0.00    +0.210 HD
ENDBRANCH  11   3
BRANCH  12  18
ATOM     18  C   UNL     1      -4.507   0.749  -1.256  0.00  0.00    +0.078 C 
ATOM     22  C   UNL     1      -4.422   2.147  -1.841  0.00  0.00    +0.017 C 
BRANCH  18  23
ATOM      2  S   UNL     1      -6.584  -3.334   1.272  0.00  0.00    -0.158 S 
ATOM      4  O   UNL     1      -6.222   1.602   0.139  0.00  0.00    -0.275 OA
ATOM      7  N   UNL     1      -6.326  -0.665  -0.363  0.00  0.00    -0.300 N 
ATOM     23  C   UNL     1      -5.760   0.609  -0.430  0.00  0.00    +0.219 C 
ATOM     25  C   UNL     1      -5.737  -1.884  -0.930  0.00  0.00    +0.118 C 
ATOM     26  C   UNL     1      -7.544  -0.879   0.420  0.00  0.00    +0.118 C 
ATOM     27  C   UNL     1      -5.231  -2.812   0.169  0.00  0.00    +0.088 C 
ATOM     28  C   UNL     1      -7.258  -1.691   1.678  0.00  0.00    +0.088 C 
ENDBRANCH  18  23
ENDBRANCH  12  18
BRANCH  29  30
ATOM     30  C   UNL     1       7.653   0.288  -0.202  0.00  0.00    +0.102 C 
BRANCH  30  31
ATOM     31  C   UNL     1       8.250  -1.102   0.123  0.00  0.00    -0.029 C 
ATOM     32  C   UNL     1       7.515  -1.758   1.304  0.00  0.00    +0.011 C 
ATOM     33  C   UNL     1       8.194  -2.040  -1.094  0.00  0.00    +0.011 C 
ATOM     34  C   UNL     1       9.727  -0.906   0.518  0.00  0.00    +0.011 C 
ENDBRANCH  30  31
ENDBRANCH  29  30
TORSDOF 5
