REMARK  Name = 45784220
REMARK  4 active torsions:
REMARK  status: ('A' for Active; 'I' for Inactive)
REMARK    1  A    between atoms: N_2  and  C_10
REMARK    2  A    between atoms: C_5  and  C_9
REMARK    3  A    between atoms: C_10  and  C_12
REMARK    4  A    between atoms: C_17  and  C_21
REMARK                            x       y       z     vdW  Elec       q    Type
REMARK                         _______ _______ _______ _____ _____    ______ ____
ROOT
ATOM      2  N   UNL     1      -2.573   1.396   0.039  0.00  0.00    -0.297 NA
ATOM      5  C   UNL     1      -0.360   1.209   0.793  0.00  0.00    +0.070 C 
ATOM      6  C   UNL     1      -0.651   2.670   0.407  0.00  0.00    +0.028 C 
ATOM      7  C   UNL     1      -1.502   0.405   0.156  0.00  0.00    +0.096 C 
ATOM      8  C   UNL     1      -1.913   2.609  -0.443  0.00  0.00    +0.085 C 
ENDROOT
BRANCH   5   9
ATOM      3  N   UNL     1       1.899   0.254   1.327  0.00  0.00    -0.342 N 
ATOM      4  N   UNL     1       1.497   0.642  -0.825  0.00  0.00    -0.232 NA
ATOM      9  C   UNL     1       1.008   0.707   0.394  0.00  0.00    +0.113 A 
ATOM     11  C   UNL     1       3.038  -0.130   0.666  0.00  0.00    +0.066 A 
ATOM     13  C   UNL     1       2.762   0.122  -0.675  0.00  0.00    +0.089 A 
ATOM     14  C   UNL     1       4.249  -0.659   1.113  0.00  0.00    +0.031 A 
ATOM     15  C   UNL     1       3.741  -0.165  -1.641  0.00  0.00    +0.030 A 
ATOM     17  C   UNL     1       5.212  -0.939   0.138  0.00  0.00    -0.048 A 
ATOM     18  C   UNL     1       4.965  -0.697  -1.215  0.00  0.00    +0.005 A 
ATOM     21  C   UNL     1       6.529  -1.508   0.554  0.00  0.00    +0.044 C 
ATOM     22  H   UNL     1       1.748   0.208   2.326  0.00  0.00    +0.167 HD
ENDBRANCH   5   9
BRANCH   2  10
ATOM     10  C   UNL     1      -3.642   0.957  -0.846  0.00  0.00    +0.126 C 
BRANCH  10  12
ATOM      1  S   UNL     1      -4.332  -1.695  -1.319  0.00  0.00    -0.100 S 
ATOM     12  C   UNL     1      -4.312  -0.292  -0.339  0.00  0.00    +0.004 A 
ATOM     16  C   UNL     1      -4.952  -0.493   0.865  0.00  0.00    +0.012 A 
ATOM     19  C   UNL     1      -5.465  -1.817   0.983  0.00  0.00    +0.008 A 
ATOM     20  C   UNL     1      -5.198  -2.577  -0.134  0.00  0.00    +0.045 A 
ENDBRANCH  10  12
ENDBRANCH   2  10
TORSDOF 3
