REMARK  Name = 25389601
REMARK  12 active torsions:
REMARK  status: ('A' for Active; 'I' for Inactive)
REMARK    1  A    between atoms: O_1  and  C_16
REMARK    2  A    between atoms: O_1  and  C_21
REMARK    3  A    between atoms: O_3  and  C_22
REMARK    4  A    between atoms: O_3  and  C_30
REMARK    5  A    between atoms: N_5  and  C_19
REMARK    6  A    between atoms: N_7  and  C_26
REMARK    7  A    between atoms: C_9  and  C_15
REMARK    8  A    between atoms: C_10  and  C_16
REMARK    9  A    between atoms: C_18  and  C_20
REMARK   10  A    between atoms: C_31  and  C_34
REMARK   11  A    between atoms: C_34  and  C_35
REMARK   12  A    between atoms: C_34  and  C_36
REMARK                            x       y       z     vdW  Elec       q    Type
REMARK                         _______ _______ _______ _____ _____    ______ ____
ROOT
ATOM      4  N   UNL     1       1.839  -3.734   1.182  0.00  0.00    -0.296 NA
ATOM      8  C   UNL     1       2.659  -3.099  -1.207  0.00  0.00    +0.002 C 
ATOM      9  C   UNL     1       3.467  -2.322  -0.131  0.00  0.00    +0.055 C 
ATOM     10  C   UNL     1       0.678  -3.380   0.323  0.00  0.00    +0.095 C 
ATOM     11  C   UNL     1       1.155  -2.804  -1.028  0.00  0.00    +0.026 C 
ATOM     12  C   UNL     1       2.865  -4.602  -0.920  0.00  0.00    +0.019 C 
ATOM     13  C   UNL     1       2.791  -2.597   1.243  0.00  0.00    +0.094 C 
ATOM     14  C   UNL     1       2.533  -4.885   0.556  0.00  0.00    +0.085 C 
ENDROOT
BRANCH   9  15
ATOM      5  N   UNL     1       4.824  -0.373  -1.025  0.00  0.00    -0.270 N 
ATOM      6  N   UNL     1       4.872   0.966  -1.119  0.00  0.00    -0.171 NA
ATOM     15  C   UNL     1       3.729  -0.841  -0.359  0.00  0.00    +0.044 A 
ATOM     17  C   UNL     1       3.011   0.271   0.009  0.00  0.00    +0.053 A 
ATOM     18  C   UNL     1       3.761   1.354  -0.486  0.00  0.00    +0.096 A 
ATOM     19  C   UNL     1       5.887  -1.160  -1.608  0.00  0.00    +0.172 C 
BRANCH  18  20
ATOM     20  C   UNL     1       3.439   2.752  -0.364  0.00  0.00    +0.044 A 
ATOM     22  C   UNL     1       3.306   3.349   0.890  0.00  0.00    +0.129 A 
ATOM     23  C   UNL     1       3.259   3.510  -1.520  0.00  0.00    +0.014 A 
ATOM     24  C   UNL     1       2.993   4.705   0.987  0.00  0.00    +0.046 A 
ATOM     25  C   UNL     1       2.946   4.867  -1.423  0.00  0.00    +0.001 A 
ATOM     27  C   UNL     1       2.813   5.464  -0.170  0.00  0.00    +0.004 A 
BRANCH  22   3
ATOM      3  O   UNL     1       3.477   2.632   2.037  0.00  0.00    -0.494 OA
ATOM     30  C   UNL     1       4.796   2.578   2.576  0.00  0.00    +0.277 C 
ENDBRANCH  22   3
ENDBRANCH  18  20
ENDBRANCH   9  15
BRANCH  10  16
ATOM     16  C   UNL     1      -0.304  -2.442   1.028  0.00  0.00    +0.252 C 
BRANCH  16   1
ATOM      1  O   UNL     1      -1.422  -2.249   0.183  0.00  0.00    -0.449 OA
BRANCH   1  21
ATOM      2  O   UNL     1      -2.366  -0.876   1.749  0.00  0.00    -0.226 OA
ATOM      7  N   UNL     1      -3.430  -1.345  -0.283  0.00  0.00    -0.251 N 
ATOM     21  C   UNL     1      -2.420  -1.426   0.656  0.00  0.00    +0.405 C 
ATOM     37  H   UNL     1      -3.293  -1.878  -1.139  0.00  0.00    +0.158 HD
BRANCH   7  26
ATOM     26  C   UNL     1      -4.635  -0.611  -0.204  0.00  0.00    +0.036 A 
ATOM     28  C   UNL     1      -4.914   0.152   0.930  0.00  0.00    +0.024 A 
ATOM     29  C   UNL     1      -5.546  -0.649  -1.260  0.00  0.00    +0.024 A 
ATOM     31  C   UNL     1      -7.014   0.838  -0.047  0.00  0.00    -0.045 A 
ATOM     32  C   UNL     1      -6.104   0.876   1.009  0.00  0.00    +0.006 A 
ATOM     33  C   UNL     1      -6.735   0.075  -1.181  0.00  0.00    +0.006 A 
BRANCH  31  34
ATOM     34  C   UNL     1      -8.286   1.612   0.036  0.00  0.00    +0.013 C 
ATOM     35  C   UNL     1      -9.531   0.705  -0.003  0.00  0.00    +0.012 C 
ATOM     36  C   UNL     1      -8.392   2.692  -1.057  0.00  0.00    +0.012 C 
ENDBRANCH  31  34
ENDBRANCH   7  26
ENDBRANCH   1  21
ENDBRANCH  16   1
ENDBRANCH  10  16
TORSDOF 8
