REMARK  Name = 7134327
REMARK  15 active torsions:
REMARK  status: ('A' for Active; 'I' for Inactive)
REMARK    1  A    between atoms: O_4  and  C_25
REMARK    2  A    between atoms: O_4  and  C_32
REMARK    3  A    between atoms: O_7  and  C_34
REMARK    4  A    between atoms: N_10  and  C_15
REMARK    5  A    between atoms: N_11  and  C_22
REMARK    6  A    between atoms: C_16  and  C_20
REMARK    7  A    between atoms: C_21  and  C_25
REMARK    8  A    between atoms: C_22  and  C_23
REMARK    9  A    between atoms: C_22  and  C_27
REMARK   10  A    between atoms: C_23  and  C_24
REMARK   11  A    between atoms: C_24  and  C_28
REMARK   12  A    between atoms: C_24  and  C_29
REMARK   13  A    between atoms: C_26  and  C_30
REMARK   14  A    between atoms: C_31  and  C_33
REMARK   15  A    between atoms: C_32  and  C_34
REMARK                            x       y       z     vdW  Elec       q    Type
REMARK                         _______ _______ _______ _____ _____    ______ ____
ROOT
ATOM      3  O   UNL     1      -3.614   2.291   1.656  0.00  0.00    -0.273 OA
ATOM      9  N   UNL     1      -1.664   1.303   0.854  0.00  0.00    -0.288 N 
ATOM     15  C   UNL     1       1.254   1.291   0.747  0.00  0.00    +0.077 C 
ATOM     16  C   UNL     1      -0.991   0.377  -0.071  0.00  0.00    +0.164 C 
ATOM     17  C   UNL     1       0.422   0.825  -0.451  0.00  0.00    +0.054 C 
ATOM     18  C   UNL     1       0.482   2.332   1.555  0.00  0.00    +0.041 C 
ATOM     19  C   UNL     1      -0.871   1.787   1.991  0.00  0.00    +0.110 C 
ATOM     21  C   UNL     1      -3.026   1.623   0.801  0.00  0.00    +0.242 C 
ENDROOT
BRANCH  16  20
ATOM      2  O   UNL     1      -1.467  -1.149   1.704  0.00  0.00    -0.274 OA
ATOM     11  N   UNL     1      -0.407  -1.943  -0.210  0.00  0.00    -0.302 N 
ATOM     20  C   UNL     1      -0.998  -0.974   0.583  0.00  0.00    +0.234 C 
ATOM     36  H   UNL     1      -0.166  -1.717  -1.171  0.00  0.00    +0.150 HD
BRANCH  11  22
ATOM     22  C   UNL     1      -0.267  -3.322   0.199  0.00  0.00    +0.159 C 
BRANCH  22  27
ATOM      6  O   UNL     1      -2.215  -3.767  -1.187  0.00  0.00    -0.274 OA
ATOM     12  N   UNL     1      -1.888  -5.048   0.692  0.00  0.00    -0.328 N 
ATOM     27  C   UNL     1      -1.558  -4.034  -0.183  0.00  0.00    +0.231 C 
ATOM     37  H   UNL     1      -1.324  -5.272   1.505  0.00  0.00    +0.145 HD
ATOM     38  H   UNL     1      -2.719  -5.612   0.545  0.00  0.00    +0.145 HD
ENDBRANCH  22  27
BRANCH  22  23
ATOM     23  C   UNL     1       0.934  -4.006  -0.465  0.00  0.00    +0.034 C 
BRANCH  23  24
ATOM     24  C   UNL     1       2.292  -3.325  -0.205  0.00  0.00    -0.015 C 
ATOM     28  C   UNL     1       2.640  -3.268   1.283  0.00  0.00    +0.007 C 
ATOM     29  C   UNL     1       3.396  -4.066  -0.964  0.00  0.00    +0.007 C 
ENDBRANCH  23  24
ENDBRANCH  22  23
ENDBRANCH  11  22
ENDBRANCH  16  20
BRANCH  15  10
ATOM      5  O   UNL     1       3.624  -0.194   0.384  0.00  0.00    -0.270 OA
ATOM     10  N   UNL     1       2.524   1.822   0.315  0.00  0.00    -0.308 N 
ATOM     26  C   UNL     1       3.652   1.018   0.159  0.00  0.00    +0.254 C 
ATOM     35  H   UNL     1       2.578   2.805   0.064  0.00  0.00    +0.149 HD
BRANCH  26  30
ATOM      1  S   UNL     1       4.860   3.381  -0.657  0.00  0.00    +0.041 S 
ATOM     13  N   UNL     1       7.036   2.196  -1.032  0.00  0.00    -0.146 NA
ATOM     14  N   UNL     1       6.472   3.391  -1.114  0.00  0.00    -0.110 NA
ATOM     30  C   UNL     1       4.863   1.699  -0.320  0.00  0.00    +0.117 A 
ATOM     31  C   UNL     1       6.137   1.240  -0.586  0.00  0.00    +0.081 A 
ATOM     33  C   UNL     1       6.614  -0.150  -0.441  0.00  0.00    +0.069 C 
ENDBRANCH  26  30
ENDBRANCH  15  10
BRANCH  21  25
ATOM     25  C   UNL     1      -3.797   1.114  -0.391  0.00  0.00    +0.256 C 
BRANCH  25   4
ATOM      4  O   UNL     1      -5.131   1.522  -0.209  0.00  0.00    -0.359 OA
BRANCH   4  32
ATOM     32  C   UNL     1      -5.972   1.099  -1.281  0.00  0.00    +0.280 C 
BRANCH  32  34
ATOM      8  O   UNL     1      -7.770   2.183  -0.058  0.00  0.00    -0.248 OA
ATOM     34  C   UNL     1      -7.382   1.561  -1.035  0.00  0.00    +0.331 C 
BRANCH  34   7
ATOM      7  O   UNL     1      -8.183   1.189  -2.065  0.00  0.00    -0.479 OA
ATOM     39  H   UNL     1      -9.111   1.479  -1.930  0.00  0.00    +0.295 HD
ENDBRANCH  34   7
ENDBRANCH  32  34
ENDBRANCH   4  32
ENDBRANCH  25   4
ENDBRANCH  21  25
TORSDOF 12
