REMARK  Name = 11942591
REMARK  11 active torsions:
REMARK  status: ('A' for Active; 'I' for Inactive)
REMARK    1  A    between atoms: N_3  and  C_14
REMARK    2  A    between atoms: N_4  and  C_16
REMARK    3  A    between atoms: C_8  and  C_15
REMARK    4  A    between atoms: C_9  and  C_14
REMARK    5  A    between atoms: C_16  and  C_19
REMARK    6  A    between atoms: C_16  and  C_20
REMARK    7  A    between atoms: C_18  and  C_21
REMARK    8  A    between atoms: C_22  and  C_25
REMARK    9  A    between atoms: C_22  and  C_28
REMARK   10  A    between atoms: C_22  and  C_29
REMARK   11  A    between atoms: C_22  and  C_30
REMARK                            x       y       z     vdW  Elec       q    Type
REMARK                         _______ _______ _______ _____ _____    ______ ____
ROOT
ATOM     14  C   UNL     1       1.387   0.399  -1.324  0.00  0.00    +0.164 C 
ENDROOT
BRANCH  14   9
ATOM      2  N   UNL     1       3.189   2.132  -1.131  0.00  0.00    -0.297 NA
ATOM      7  C   UNL     1       3.705   1.597   1.363  0.00  0.00    +0.005 C 
ATOM      8  C   UNL     1       4.775   0.997   0.431  0.00  0.00    +0.092 C 
ATOM      9  C   UNL     1       1.995   1.525  -0.484  0.00  0.00    +0.078 C 
ATOM     10  C   UNL     1       2.321   1.058   0.951  0.00  0.00    +0.025 C 
ATOM     11  C   UNL     1       3.698   3.116   1.112  0.00  0.00    +0.020 C 
ATOM     12  C   UNL     1       4.350   1.213  -1.032  0.00  0.00    +0.097 C 
ATOM     13  C   UNL     1       3.521   3.378  -0.396  0.00  0.00    +0.085 C 
BRANCH   8  15
ATOM      1  O   UNL     1       4.372  -1.042   1.605  0.00  0.00    -0.275 OA
ATOM      4  N   UNL     1       6.008  -0.999  -0.051  0.00  0.00    -0.313 N 
ATOM     15  C   UNL     1       5.008  -0.452   0.735  0.00  0.00    +0.218 C 
ATOM     31  H   UNL     1       6.440  -0.425  -0.770  0.00  0.00    +0.149 HD
BRANCH   4  16
ATOM     16  C   UNL     1       6.439  -2.373   0.062  0.00  0.00    +0.067 C 
ATOM     19  C   UNL     1       7.920  -2.492  -0.272  0.00  0.00    +0.027 C 
ATOM     20  C   UNL     1       5.597  -3.273  -0.834  0.00  0.00    +0.027 C 
ENDBRANCH   4  16
ENDBRANCH   8  15
ENDBRANCH  14   9
BRANCH  14   3
ATOM      3  N   UNL     1       0.141  -0.087  -0.755  0.00  0.00    -0.250 N 
ATOM      5  N   UNL     1       0.152  -1.091   0.127  0.00  0.00    -0.065 NA
ATOM      6  N   UNL     1      -1.112  -1.316   0.469  0.00  0.00    -0.130 NA
ATOM     17  C   UNL     1      -1.108   0.365  -1.011  0.00  0.00    +0.138 A 
ATOM     18  C   UNL     1      -1.897  -0.433  -0.220  0.00  0.00    +0.113 A 
BRANCH  18  21
ATOM     21  C   UNL     1      -3.319  -0.362  -0.122  0.00  0.00    +0.004 A 
ATOM     23  C   UNL     1      -4.065  -1.510   0.166  0.00  0.00    +0.010 A 
ATOM     24  C   UNL     1      -3.980   0.856  -0.312  0.00  0.00    +0.010 A 
ATOM     25  C   UNL     1      -6.107  -0.223   0.071  0.00  0.00    -0.042 A 
ATOM     26  C   UNL     1      -5.455  -1.441   0.262  0.00  0.00    +0.005 A 
ATOM     27  C   UNL     1      -5.370   0.925  -0.216  0.00  0.00    +0.005 A 
BRANCH  25  22
ATOM     22  C   UNL     1      -7.593  -0.150   0.173  0.00  0.00    -0.013 C 
ATOM     28  C   UNL     1      -8.228   0.345  -1.164  0.00  0.00    +0.015 C 
ATOM     29  C   UNL     1      -8.035   0.838   1.297  0.00  0.00    +0.015 C 
ATOM     30  C   UNL     1      -8.312  -1.501   0.499  0.00  0.00    +0.015 C 
ENDBRANCH  25  22
ENDBRANCH  18  21
ENDBRANCH  14   3
TORSDOF 6
