REMARK  Name = 71693324
REMARK  11 active torsions:
REMARK  status: ('A' for Active; 'I' for Inactive)
REMARK    1  A    between atoms: O_2  and  C_12
REMARK    2  A    between atoms: O_5  and  C_24
REMARK    3  A    between atoms: O_5  and  C_25
REMARK    4  A    between atoms: N_6  and  C_10
REMARK    5  A    between atoms: N_7  and  C_22
REMARK    6  A    between atoms: C_8  and  C_12
REMARK    7  A    between atoms: C_9  and  C_14
REMARK    8  A    between atoms: C_10  and  C_11
REMARK    9  A    between atoms: C_11  and  C_16
REMARK   10  A    between atoms: C_11  and  C_17
REMARK   11  A    between atoms: C_23  and  C_24
REMARK                            x       y       z     vdW  Elec       q    Type
REMARK                         _______ _______ _______ _____ _____    ______ ____
ROOT
ATOM      1  O   UNL     1       1.733   1.798   0.771  0.00  0.00    -0.361 OA
ATOM      3  O   UNL     1       5.259   1.769   0.262  0.00  0.00    -0.273 OA
ATOM      6  N   UNL     1       3.680   0.166  -0.347  0.00  0.00    -0.291 N 
ATOM      8  C   UNL     1       2.263  -0.272  -0.327  0.00  0.00    +0.135 C 
ATOM      9  C   UNL     1       1.307   0.936  -0.285  0.00  0.00    +0.171 C 
ATOM     13  C   UNL     1       4.086   1.410   0.141  0.00  0.00    +0.242 C 
ATOM     15  C   UNL     1       2.974   2.388   0.466  0.00  0.00    +0.256 C 
ENDROOT
BRANCH   9  14
ATOM     14  C   UNL     1      -0.138   0.577  -0.009  0.00  0.00    -0.017 A 
ATOM     18  C   UNL     1      -1.136   0.966  -0.903  0.00  0.00    +0.008 A 
ATOM     19  C   UNL     1      -0.471  -0.142   1.139  0.00  0.00    +0.008 A 
ATOM     20  C   UNL     1      -2.467   0.636  -0.648  0.00  0.00    +0.023 A 
ATOM     21  C   UNL     1      -1.803  -0.472   1.393  0.00  0.00    +0.023 A 
ATOM     22  C   UNL     1      -2.800  -0.083   0.499  0.00  0.00    +0.033 A 
BRANCH  22   7
ATOM      4  O   UNL     1      -5.295   0.511  -1.075  0.00  0.00    -0.273 OA
ATOM      7  N   UNL     1      -4.132  -0.413   0.754  0.00  0.00    -0.284 N 
ATOM     23  C   UNL     1      -5.261  -0.112  -0.018  0.00  0.00    +0.243 C 
ATOM     27  H   UNL     1      -4.293  -0.939   1.611  0.00  0.00    +0.155 HD
BRANCH  23  24
ATOM     24  C   UNL     1      -6.536  -0.647   0.599  0.00  0.00    +0.255 C 
BRANCH  24   5
ATOM      5  O   UNL     1      -7.624  -0.300  -0.232  0.00  0.00    -0.374 OA
ATOM     25  C   UNL     1      -8.862  -0.774   0.290  0.00  0.00    +0.194 C 
ENDBRANCH  24   5
ENDBRANCH  23  24
ENDBRANCH  22   7
ENDBRANCH   9  14
BRANCH   6  10
ATOM     10  C   UNL     1       4.702  -0.828  -0.663  0.00  0.00    +0.111 C 
BRANCH  10  11
ATOM     11  C   UNL     1       5.014  -1.742   0.527  0.00  0.00    +0.000 C 
ATOM     16  C   UNL     1       5.522  -0.912   1.707  0.00  0.00    +0.009 C 
ATOM     17  C   UNL     1       6.043  -2.814   0.161  0.00  0.00    +0.009 C 
ENDBRANCH  10  11
ENDBRANCH   6  10
BRANCH   8  12
ATOM     12  C   UNL     1       1.916  -1.195  -1.503  0.00  0.00    +0.181 C 
BRANCH  12   2
ATOM      2  O   UNL     1       2.030  -0.449  -2.698  0.00  0.00    -0.393 OA
ATOM     26  H   UNL     1       1.786  -1.040  -3.430  0.00  0.00    +0.209 HD
ENDBRANCH  12   2
ENDBRANCH   8  12
TORSDOF 8
