REMARK  Name = 7135239
REMARK  9 active torsions:
REMARK  status: ('A' for Active; 'I' for Inactive)
REMARK    1  A    between atoms: O_3  and  C_17
REMARK    2  A    between atoms: O_4  and  C_22
REMARK    3  A    between atoms: C_12  and  C_20
REMARK    4  A    between atoms: C_14  and  C_22
REMARK    5  A    between atoms: C_14  and  C_23
REMARK    6  A    between atoms: C_15  and  C_25
REMARK    7  A    between atoms: C_25  and  C_26
REMARK    8  A    between atoms: C_32  and  C_34
REMARK    9  A    between atoms: C_33  and  C_35
REMARK                            x       y       z     vdW  Elec       q    Type
REMARK                         _______ _______ _______ _____ _____    ______ ____
ROOT
ATOM      1  S   UNL     1       0.913   3.622  -0.306  0.00  0.00    -0.057 S 
ATOM      6  O   UNL     1      -3.308   1.839   0.302  0.00  0.00    -0.269 OA
ATOM      8  N   UNL     1      -0.424   1.447   0.117  0.00  0.00    -0.229 NA
ATOM     10  N   UNL     1      -1.695   3.487  -0.071  0.00  0.00    -0.260 N 
ATOM     12  C   UNL     1       2.876  -0.506  -0.286  0.00  0.00    -0.019 C 
ATOM     13  C   UNL     1       3.749   0.696   0.288  0.00  0.00    +0.011 C 
ATOM     14  C   UNL     1       5.316   0.519   0.261  0.00  0.00    +0.021 C 
ATOM     15  C   UNL     1       1.376  -0.317   0.231  0.00  0.00    +0.054 C 
ATOM     16  C   UNL     1       3.419  -1.849   0.270  0.00  0.00    +0.010 C 
ATOM     17  C   UNL     1       5.682  -0.891   0.805  0.00  0.00    +0.123 C 
ATOM     18  C   UNL     1       3.263   2.067  -0.266  0.00  0.00    +0.049 C 
ATOM     19  C   UNL     1       4.923  -2.018   0.114  0.00  0.00    +0.032 C 
ATOM     20  C   UNL     1       2.884  -0.570  -1.833  0.00  0.00    +0.012 C 
ATOM     21  C   UNL     1       0.914   1.106   0.044  0.00  0.00    +0.058 A 
ATOM     23  C   UNL     1       5.961   1.565   1.214  0.00  0.00    +0.016 C 
ATOM     24  C   UNL     1       1.778   2.162  -0.160  0.00  0.00    +0.015 A 
ATOM     27  C   UNL     1      -0.543   2.745  -0.061  0.00  0.00    +0.165 A 
ATOM     32  C   UNL     1      -3.015   3.017   0.108  0.00  0.00    +0.256 C 
ATOM     41  H   UNL     1      -1.560   4.481  -0.232  0.00  0.00    +0.157 HD
ENDROOT
BRANCH  32  34
ATOM      2  S   UNL     1      -3.611   5.666  -0.323  0.00  0.00    -0.092 S 
ATOM     34  C   UNL     1      -4.064   4.046  -0.001  0.00  0.00    +0.074 A 
ATOM     36  C   UNL     1      -5.429   3.906   0.122  0.00  0.00    +0.021 A 
ATOM     37  C   UNL     1      -6.112   5.144  -0.051  0.00  0.00    +0.008 A 
ATOM     38  C   UNL     1      -5.244   6.184  -0.299  0.00  0.00    +0.046 A 
ENDBRANCH  32  34
BRANCH  17   3
ATOM      3  O   UNL     1       7.083  -1.133   0.674  0.00  0.00    -0.391 OA
ATOM     39  H   UNL     1       7.270  -2.002   1.068  0.00  0.00    +0.210 HD
ENDBRANCH  17   3
BRANCH  14  22
ATOM     22  C   UNL     1       5.965   0.761  -1.121  0.00  0.00    +0.165 C 
BRANCH  22   4
ATOM      4  O   UNL     1       7.356   0.578  -0.983  0.00  0.00    -0.394 OA
ATOM     40  H   UNL     1       7.757   0.742  -1.853  0.00  0.00    +0.209 HD
ENDBRANCH  22   4
ENDBRANCH  14  22
BRANCH  15  25
ATOM     25  C   UNL     1       0.369  -1.316  -0.353  0.00  0.00    +0.106 C 
BRANCH  25  26
ATOM      5  O   UNL     1      -0.772  -0.901   1.682  0.00  0.00    -0.276 OA
ATOM      7  O   UNL     1      -4.263  -6.262  -1.506  0.00  0.00    -0.276 OA
ATOM      9  N   UNL     1      -1.781  -2.390   0.213  0.00  0.00    -0.298 N 
ATOM     11  N   UNL     1      -3.223  -4.819  -0.013  0.00  0.00    -0.299 N 
ATOM     26  C   UNL     1      -0.775  -1.511   0.610  0.00  0.00    +0.216 C 
ATOM     28  C   UNL     1      -2.926  -2.637   1.093  0.00  0.00    +0.126 C 
ATOM     29  C   UNL     1      -1.851  -3.074  -1.085  0.00  0.00    +0.126 C 
ATOM     30  C   UNL     1      -3.154  -4.134   1.285  0.00  0.00    +0.126 C 
ATOM     31  C   UNL     1      -2.078  -4.572  -0.893  0.00  0.00    +0.126 C 
ATOM     33  C   UNL     1      -4.228  -5.699  -0.409  0.00  0.00    +0.213 C 
ATOM     35  C   UNL     1      -5.330  -5.958   0.587  0.00  0.00    +0.109 C 
ENDBRANCH  25  26
ENDBRANCH  15  25
TORSDOF 6
