REMARK  Name = 75536522
REMARK  13 active torsions:
REMARK  status: ('A' for Active; 'I' for Inactive)
REMARK    1  A    between atoms: O_2  and  C_9
REMARK    2  A    between atoms: N_5  and  C_8
REMARK    3  A    between atoms: N_5  and  C_14
REMARK    4  A    between atoms: N_6  and  C_12
REMARK    5  A    between atoms: N_7  and  C_25
REMARK    6  A    between atoms: C_10  and  C_12
REMARK    7  A    between atoms: C_13  and  C_15
REMARK    8  A    between atoms: C_13  and  C_17
REMARK    9  A    between atoms: C_13  and  C_18
REMARK   10  A    between atoms: C_13  and  C_19
REMARK   11  A    between atoms: C_14  and  C_20
REMARK   12  A    between atoms: C_15  and  C_16
REMARK   13  A    between atoms: C_26  and  C_27
REMARK                            x       y       z     vdW  Elec       q    Type
REMARK                         _______ _______ _______ _____ _____    ______ ____
ROOT
ATOM      1  O   UNL     1       2.522   0.088   0.141  0.00  0.00    -0.371 OA
ATOM      8  C   UNL     1       0.426  -1.007   0.364  0.00  0.00    +0.111 C 
ATOM      9  C   UNL     1       1.233  -1.700  -0.718  0.00  0.00    +0.164 C 
ATOM     10  C   UNL     1       2.645  -1.253  -0.362  0.00  0.00    +0.165 C 
ATOM     11  C   UNL     1       1.141   0.330   0.464  0.00  0.00    +0.181 C 
ENDROOT
BRANCH   9   2
ATOM      2  O   UNL     1       1.101  -3.107  -0.681  0.00  0.00    -0.388 OA
ATOM     30  H   UNL     1       1.358  -3.416   0.204  0.00  0.00    +0.210 HD
ENDBRANCH   9   2
BRANCH   8   5
ATOM      5  N   UNL     1      -0.985  -0.872   0.043  0.00  0.00    -0.305 NA
ATOM     28  H   UNL     1      -1.330  -1.759  -0.325  0.00  0.00    +0.123 HD
BRANCH   5  14
ATOM     14  C   UNL     1      -1.762  -0.518   1.226  0.00  0.00    +0.116 C 
BRANCH  14  20
ATOM     20  C   UNL     1      -3.224  -0.357   0.908  0.00  0.00    -0.033 A 
ATOM     21  C   UNL     1      -3.675   0.794   0.262  0.00  0.00    +0.007 A 
ATOM     22  C   UNL     1      -4.129  -1.359   1.261  0.00  0.00    +0.007 A 
ATOM     23  C   UNL     1      -5.030   0.944  -0.032  0.00  0.00    +0.023 A 
ATOM     24  C   UNL     1      -5.485  -1.209   0.967  0.00  0.00    +0.023 A 
ATOM     25  C   UNL     1      -5.935  -0.058   0.321  0.00  0.00    +0.033 A 
BRANCH  25   7
ATOM      4  O   UNL     1      -7.404   2.191  -1.040  0.00  0.00    -0.276 OA
ATOM      7  N   UNL     1      -7.291   0.092   0.028  0.00  0.00    -0.286 N 
ATOM     26  C   UNL     1      -7.925   1.167  -0.610  0.00  0.00    +0.214 C 
ATOM     27  C   UNL     1      -9.411   0.943  -0.738  0.00  0.00    +0.109 C 
ATOM     31  H   UNL     1      -7.886  -0.682   0.318  0.00  0.00    +0.155 HD
ENDBRANCH  25   7
ENDBRANCH  14  20
ENDBRANCH   5  14
ENDBRANCH   8   5
BRANCH  10  12
ATOM     12  C   UNL     1       3.597  -1.272  -1.545  0.00  0.00    +0.138 C 
BRANCH  12   6
ATOM      3  O   UNL     1       4.636   1.432  -1.577  0.00  0.00    -0.276 OA
ATOM      6  N   UNL     1       4.922  -0.837  -1.165  0.00  0.00    -0.313 N 
ATOM     16  C   UNL     1       5.330   0.484  -1.214  0.00  0.00    +0.214 C 
ATOM     29  H   UNL     1       5.571  -1.547  -0.839  0.00  0.00    +0.149 HD
BRANCH  16  15
ATOM     15  C   UNL     1       6.771   0.679  -0.771  0.00  0.00    +0.102 C 
BRANCH  15  13
ATOM     13  C   UNL     1       6.947   1.001   0.732  0.00  0.00    -0.029 C 
ATOM     17  C   UNL     1       6.354  -0.106   1.619  0.00  0.00    +0.011 C 
ATOM     18  C   UNL     1       8.431   1.194   1.087  0.00  0.00    +0.011 C 
ATOM     19  C   UNL     1       6.200   2.316   1.029  0.00  0.00    +0.011 C 
ENDBRANCH  15  13
ENDBRANCH  16  15
ENDBRANCH  12   6
ENDBRANCH  10  12
TORSDOF 9
