REMARK  Name = 11941197
REMARK  13 active torsions:
REMARK  status: ('A' for Active; 'I' for Inactive)
REMARK    1  A    between atoms: O_3  and  C_31
REMARK    2  A    between atoms: O_3  and  C_34
REMARK    3  A    between atoms: O_4  and  C_32
REMARK    4  A    between atoms: O_4  and  C_33
REMARK    5  A    between atoms: N_7  and  C_19
REMARK    6  A    between atoms: N_8  and  C_20
REMARK    7  A    between atoms: C_9  and  C_15
REMARK    8  A    between atoms: C_10  and  C_14
REMARK    9  A    between atoms: C_14  and  C_16
REMARK   10  A    between atoms: C_15  and  C_18
REMARK   11  A    between atoms: C_19  and  C_21
REMARK   12  A    between atoms: C_26  and  C_32
REMARK   13  A    between atoms: C_33  and  C_35
REMARK                            x       y       z     vdW  Elec       q    Type
REMARK                         _______ _______ _______ _____ _____    ______ ____
ROOT
ATOM      1  O   UNL     1      -2.978  -3.891  -0.075  0.00  0.00    -0.252 OA
ATOM      6  N   UNL     1      -0.990  -3.176   0.863  0.00  0.00    -0.285 N 
ATOM      8  N   UNL     1      -2.822  -1.702   0.678  0.00  0.00    -0.269 N 
ATOM      9  C   UNL     1       1.869  -3.262   0.428  0.00  0.00    +0.004 C 
ATOM     10  C   UNL     1       1.141  -1.920   0.703  0.00  0.00    +0.010 C 
ATOM     11  C   UNL     1       0.923  -4.313  -0.180  0.00  0.00    +0.023 C 
ATOM     12  C   UNL     1      -0.130  -2.184   1.527  0.00  0.00    +0.113 C 
ATOM     13  C   UNL     1      -0.347  -4.474   0.654  0.00  0.00    +0.109 C 
ATOM     17  C   UNL     1      -2.328  -2.987   0.457  0.00  0.00    +0.306 C 
ATOM     37  H   UNL     1      -2.447  -1.167   1.452  0.00  0.00    +0.156 HD
ENDROOT
BRANCH   8  20
ATOM     20  C   UNL     1      -3.809  -1.019  -0.076  0.00  0.00    +0.036 A 
ATOM     22  C   UNL     1      -4.192   0.273   0.285  0.00  0.00    +0.038 A 
ATOM     23  C   UNL     1      -4.396  -1.638  -1.179  0.00  0.00    +0.023 A 
ATOM     26  C   UNL     1      -5.163   0.945  -0.457  0.00  0.00    +0.061 A 
ATOM     27  C   UNL     1      -5.367  -0.966  -1.921  0.00  0.00    +0.003 A 
ATOM     28  C   UNL     1      -5.751   0.325  -1.560  0.00  0.00    +0.015 A 
BRANCH  26  32
ATOM      5  O   UNL     1      -6.690   2.768  -0.276  0.00  0.00    -0.245 OA
ATOM     32  C   UNL     1      -5.563   2.292  -0.082  0.00  0.00    +0.339 C 
BRANCH  32   4
ATOM      4  O   UNL     1      -4.537   2.974   0.514  0.00  0.00    -0.461 OA
BRANCH   4  33
ATOM     33  C   UNL     1      -4.809   4.316   0.931  0.00  0.00    +0.229 C 
ATOM     35  C   UNL     1      -3.562   4.898   1.563  0.00  0.00    +0.048 C 
ENDBRANCH   4  33
ENDBRANCH  32   4
ENDBRANCH  26  32
ENDBRANCH   8  20
BRANCH  10  14
ATOM     14  C   UNL     1       0.804  -1.122  -0.562  0.00  0.00    +0.002 C 
ATOM     16  C   UNL     1       0.182   0.214  -0.216  0.00  0.00    +0.004 C 
ENDBRANCH  10  14
BRANCH   9  15
ATOM     15  C   UNL     1       3.121  -3.100  -0.434  0.00  0.00    +0.099 C 
BRANCH  15  18
ATOM      2  O   UNL     1       4.229  -1.956   1.387  0.00  0.00    -0.276 OA
ATOM      7  N   UNL     1       4.870  -1.508  -0.802  0.00  0.00    -0.311 N 
ATOM     18  C   UNL     1       4.118  -2.140   0.178  0.00  0.00    +0.214 C 
ATOM     36  H   UNL     1       4.698  -1.720  -1.780  0.00  0.00    +0.149 HD
BRANCH   7  19
ATOM     19  C   UNL     1       5.897  -0.535  -0.504  0.00  0.00    +0.139 C 
BRANCH  19  21
ATOM     21  C   UNL     1       5.351   0.862  -0.456  0.00  0.00    -0.030 A 
ATOM     24  C   UNL     1       4.875   1.384   0.747  0.00  0.00    +0.009 A 
ATOM     25  C   UNL     1       5.320   1.640  -1.614  0.00  0.00    +0.009 A 
ATOM     29  C   UNL     1       4.369   2.683   0.792  0.00  0.00    +0.046 A 
ATOM     30  C   UNL     1       4.814   2.939  -1.568  0.00  0.00    +0.046 A 
ATOM     31  C   UNL     1       4.338   3.460  -0.365  0.00  0.00    +0.120 A 
BRANCH  31   3
ATOM      3  O   UNL     1       3.843   4.727  -0.321  0.00  0.00    -0.495 OA
ATOM     34  C   UNL     1       3.372   5.196   0.942  0.00  0.00    +0.277 C 
ENDBRANCH  31   3
ENDBRANCH  19  21
ENDBRANCH   7  19
ENDBRANCH  15  18
ENDBRANCH   9  15
TORSDOF 10
