REMARK  Name = 75536946
REMARK  5 active torsions:
REMARK  status: ('A' for Active; 'I' for Inactive)
REMARK    1  A    between atoms: O_2  and  C_6
REMARK    2  A    between atoms: O_2  and  C_12
REMARK    3  A    between atoms: O_4  and  C_18
REMARK    4  A    between atoms: O_4  and  C_19
REMARK    5  A    between atoms: C_11  and  C_13
REMARK                            x       y       z     vdW  Elec       q    Type
REMARK                         _______ _______ _______ _____ _____    ______ ____
ROOT
ATOM      1  O   UNL     1       2.722  -2.045   1.161  0.00  0.00    -0.375 OA
ATOM      3  O   UNL     1       1.809   2.686  -0.775  0.00  0.00    -0.276 OA
ATOM      5  N   UNL     1       2.850   0.674  -0.216  0.00  0.00    -0.296 N 
ATOM      6  C   UNL     1       0.987  -0.971  -0.220  0.00  0.00    +0.216 C 
ATOM      7  C   UNL     1       1.941  -0.115  -1.052  0.00  0.00    +0.154 C 
ATOM      8  C   UNL     1       3.900  -0.018   0.545  0.00  0.00    +0.136 C 
ATOM      9  C   UNL     1       1.624  -2.263   0.285  0.00  0.00    +0.206 C 
ATOM     10  C   UNL     1       3.881  -1.540   0.507  0.00  0.00    +0.179 C 
ATOM     11  C   UNL     1       2.675   2.064  -0.155  0.00  0.00    +0.213 C 
ATOM     13  C   UNL     1       3.625   2.819   0.746  0.00  0.00    +0.109 C 
ENDROOT
BRANCH   6   2
ATOM      2  O   UNL     1      -0.130  -1.307  -1.042  0.00  0.00    -0.485 OA
BRANCH   2  12
ATOM     12  C   UNL     1      -1.352  -0.858  -0.625  0.00  0.00    +0.121 A 
ATOM     14  C   UNL     1      -1.580   0.510  -0.478  0.00  0.00    +0.049 A 
ATOM     15  C   UNL     1      -2.372  -1.769  -0.346  0.00  0.00    +0.049 A 
ATOM     16  C   UNL     1      -2.827   0.968  -0.052  0.00  0.00    +0.049 A 
ATOM     17  C   UNL     1      -3.619  -1.311   0.079  0.00  0.00    +0.049 A 
ATOM     18  C   UNL     1      -3.846   0.057   0.226  0.00  0.00    +0.120 A 
BRANCH  18   4
ATOM      4  O   UNL     1      -5.063   0.504   0.641  0.00  0.00    -0.495 OA
ATOM     19  C   UNL     1      -5.227   1.915   0.770  0.00  0.00    +0.277 C 
ENDBRANCH  18   4
ENDBRANCH   2  12
ENDBRANCH   6   2
TORSDOF 3
