REMARK  Name = 25390362
REMARK  7 active torsions:
REMARK  status: ('A' for Active; 'I' for Inactive)
REMARK    1  A    between atoms: O_2  and  C_12
REMARK    2  A    between atoms: O_3  and  C_13
REMARK    3  A    between atoms: N_9  and  C_16
REMARK    4  A    between atoms: C_11  and  C_15
REMARK    5  A    between atoms: C_14  and  C_16
REMARK    6  A    between atoms: C_15  and  C_17
REMARK    7  A    between atoms: C_23  and  C_25
REMARK                            x       y       z     vdW  Elec       q    Type
REMARK                         _______ _______ _______ _____ _____    ______ ____
ROOT
ATOM      1  O   UNL     1      -3.610   0.732   0.936  0.00  0.00    -0.366 OA
ATOM     11  C   UNL     1      -3.203   1.770   0.016  0.00  0.00    +0.159 C 
ATOM     12  C   UNL     1      -4.213   1.750  -1.127  0.00  0.00    +0.175 C 
ATOM     13  C   UNL     1      -4.652   0.301  -1.134  0.00  0.00    +0.176 C 
ATOM     14  C   UNL     1      -4.693  -0.013   0.352  0.00  0.00    +0.167 C 
ENDROOT
BRANCH  12   2
ATOM      2  O   UNL     1      -5.304   2.597  -0.768  0.00  0.00    -0.387 OA
ATOM     32  H   UNL     1      -4.971   3.510  -0.752  0.00  0.00    +0.210 HD
ENDBRANCH  12   2
BRANCH  13   3
ATOM      3  O   UNL     1      -5.905   0.099  -1.753  0.00  0.00    -0.387 OA
ATOM     33  H   UNL     1      -5.839   0.438  -2.662  0.00  0.00    +0.210 HD
ENDBRANCH  13   3
BRANCH  11  15
ATOM     15  C   UNL     1      -1.783   1.461  -0.438  0.00  0.00    +0.130 C 
BRANCH  15  17
ATOM      4  O   UNL     1      -1.215   2.363   1.683  0.00  0.00    -0.276 OA
ATOM      7  N   UNL     1       0.542   1.589   0.375  0.00  0.00    -0.298 N 
ATOM      8  N   UNL     1       3.332   0.903   0.018  0.00  0.00    -0.312 N 
ATOM     10  N   UNL     1       5.355   1.044  -1.192  0.00  0.00    -0.240 NA
ATOM     17  C   UNL     1      -0.803   1.847   0.642  0.00  0.00    +0.218 C 
ATOM     18  C   UNL     1       1.554   1.940   1.369  0.00  0.00    +0.126 C 
ATOM     19  C   UNL     1       1.029   0.967  -0.858  0.00  0.00    +0.126 C 
ATOM     20  C   UNL     1       2.731   0.967   1.353  0.00  0.00    +0.125 C 
ATOM     21  C   UNL     1       2.502   1.270  -1.133  0.00  0.00    +0.125 C 
ATOM     22  C   UNL     1       4.666   0.538  -0.145  0.00  0.00    +0.121 A 
ATOM     24  C   UNL     1       5.204  -0.331   0.790  0.00  0.00    +0.043 A 
ATOM     26  C   UNL     1       6.535  -0.705   0.641  0.00  0.00    +0.005 A 
ATOM     27  C   UNL     1       6.646   0.657  -1.305  0.00  0.00    +0.113 A 
ATOM     28  C   UNL     1       7.276  -0.206  -0.424  0.00  0.00    +0.020 A 
ENDBRANCH  15  17
ENDBRANCH  11  15
BRANCH  14  16
ATOM     16  C   UNL     1      -4.524  -1.489   0.661  0.00  0.00    +0.138 C 
BRANCH  16   9
ATOM      5  O   UNL     1      -2.031  -1.543   2.084  0.00  0.00    -0.267 OA
ATOM      9  N   UNL     1      -3.269  -1.980   0.172  0.00  0.00    -0.306 N 
ATOM     23  C   UNL     1      -2.105  -1.968   0.934  0.00  0.00    +0.279 C 
ATOM     34  H   UNL     1      -3.234  -2.352  -0.773  0.00  0.00    +0.149 HD
BRANCH  23  25
ATOM      6  O   UNL     1      -0.989  -2.929  -1.008  0.00  0.00    -0.458 OA
ATOM     25  C   UNL     1      -0.880  -2.488   0.273  0.00  0.00    +0.189 A 
ATOM     29  C   UNL     1       0.413  -2.620   0.722  0.00  0.00    +0.054 A 
ATOM     30  C   UNL     1       1.147  -3.176  -0.353  0.00  0.00    +0.042 A 
ATOM     31  C   UNL     1       0.249  -3.346  -1.381  0.00  0.00    +0.196 A 
ENDBRANCH  23  25
ENDBRANCH  16   9
ENDBRANCH  14  16
TORSDOF 7
