REMARK  Name = 45783551
REMARK  8 active torsions:
REMARK  status: ('A' for Active; 'I' for Inactive)
REMARK    1  A    between atoms: O_2  and  C_19
REMARK    2  A    between atoms: O_2  and  C_20
REMARK    3  A    between atoms: O_3  and  C_21
REMARK    4  A    between atoms: O_3  and  C_22
REMARK    5  A    between atoms: N_4  and  C_13
REMARK    6  A    between atoms: C_8  and  C_12
REMARK    7  A    between atoms: C_14  and  C_15
REMARK    8  A    between atoms: C_20  and  C_21
REMARK                            x       y       z     vdW  Elec       q    Type
REMARK                         _______ _______ _______ _____ _____    ______ ____
ROOT
ATOM      1  O   UNL     1      -2.815  -1.883  -0.593  0.00  0.00    -0.336 OA
ATOM      5  N   UNL     1      -2.014   0.153  -0.115  0.00  0.00    -0.190 NA
ATOM      6  N   UNL     1      -1.423  -2.021  -0.512  0.00  0.00    -0.056 NA
ATOM     12  C   UNL     1      -3.078  -0.573  -0.346  0.00  0.00    +0.245 A 
ATOM     14  C   UNL     1      -1.023  -0.778  -0.227  0.00  0.00    +0.204 A 
ENDROOT
BRANCH  12   8
ATOM      4  N   UNL     1      -4.975   0.457   0.891  0.00  0.00    -0.294 NA
ATOM      8  C   UNL     1      -4.535  -0.161  -0.375  0.00  0.00    +0.146 C 
ATOM      9  C   UNL     1      -4.832   0.899  -1.452  0.00  0.00    +0.030 C 
ATOM     10  C   UNL     1      -5.492   2.050  -0.706  0.00  0.00    +0.017 C 
ATOM     11  C   UNL     1      -6.043   1.395   0.544  0.00  0.00    +0.085 C 
ATOM     13  C   UNL     1      -5.403  -0.516   1.888  0.00  0.00    +0.105 C 
ENDBRANCH  12   8
BRANCH  14  15
ATOM      7  N   UNL     1       2.672  -1.131  -0.010  0.00  0.00    -0.221 NA
ATOM     15  C   UNL     1       0.358  -0.433  -0.050  0.00  0.00    +0.041 A 
ATOM     16  C   UNL     1       0.738   0.871   0.244  0.00  0.00    +0.018 A 
ATOM     17  C   UNL     1       1.354  -1.389  -0.166  0.00  0.00    +0.126 A 
ATOM     18  C   UNL     1       2.084   1.176   0.411  0.00  0.00    +0.068 A 
ATOM     19  C   UNL     1       3.004   0.148   0.275  0.00  0.00    +0.215 A 
BRANCH  19   2
ATOM      2  O   UNL     1       4.337   0.423   0.435  0.00  0.00    -0.474 OA
BRANCH   2  20
ATOM     20  C   UNL     1       5.238  -0.667   0.285  0.00  0.00    +0.258 C 
BRANCH  20  21
ATOM     21  C   UNL     1       6.657  -0.167   0.473  0.00  0.00    +0.200 C 
BRANCH  21   3
ATOM      3  O   UNL     1       6.939   0.812  -0.519  0.00  0.00    -0.380 OA
ATOM     22  C   UNL     1       8.253   1.334  -0.377  0.00  0.00    +0.194 C 
ENDBRANCH  21   3
ENDBRANCH  20  21
ENDBRANCH   2  20
ENDBRANCH  19   2
ENDBRANCH  14  15
TORSDOF 6
