REMARK  Name = 45783667
REMARK  6 active torsions:
REMARK  status: ('A' for Active; 'I' for Inactive)
REMARK    1  A    between atoms: N_4  and  C_15
REMARK    2  A    between atoms: N_7  and  C_24
REMARK    3  A    between atoms: N_9  and  C_28
REMARK    4  A    between atoms: C_11  and  C_16
REMARK    5  A    between atoms: C_15  and  C_17
REMARK    6  A    between atoms: C_20  and  C_23
REMARK                            x       y       z     vdW  Elec       q    Type
REMARK                         _______ _______ _______ _____ _____    ______ ____
ROOT
ATOM      1  O   UNL     1      -2.210  -1.609   2.034  0.00  0.00    -0.336 OA
ATOM      5  N   UNL     1      -1.411  -1.236  -0.025  0.00  0.00    -0.190 NA
ATOM      6  N   UNL     1      -0.818  -1.536   2.164  0.00  0.00    -0.056 NA
ATOM     16  C   UNL     1      -2.475  -1.422   0.714  0.00  0.00    +0.245 A 
ATOM     20  C   UNL     1      -0.418  -1.314   0.908  0.00  0.00    +0.204 A 
ENDROOT
BRANCH  20  23
ATOM      8  N   UNL     1       3.280  -1.117   1.244  0.00  0.00    -0.237 NA
ATOM     23  C   UNL     1       0.964  -1.168   0.552  0.00  0.00    +0.041 A 
ATOM     25  C   UNL     1       1.344  -0.939  -0.765  0.00  0.00    +0.017 A 
ATOM     26  C   UNL     1       1.961  -1.248   1.511  0.00  0.00    +0.124 A 
ATOM     27  C   UNL     1       2.692  -0.800  -1.079  0.00  0.00    +0.047 A 
ATOM     28  C   UNL     1       3.612  -0.896  -0.048  0.00  0.00    +0.139 A 
BRANCH  28   9
ATOM      9  N   UNL     1       4.956  -0.758  -0.356  0.00  0.00    -0.290 N 
ATOM     10  N   UNL     1       7.156  -0.652  -0.071  0.00  0.00    -0.244 NA
ATOM     29  C   UNL     1       5.484  -0.531  -1.596  0.00  0.00    +0.114 A 
ATOM     30  C   UNL     1       5.998  -0.823   0.527  0.00  0.00    +0.205 A 
ATOM     31  C   UNL     1       6.842  -0.470  -1.395  0.00  0.00    +0.130 A 
ENDBRANCH  28   9
ENDBRANCH  20  23
BRANCH  16  11
ATOM      4  N   UNL     1      -4.204  -0.651  -0.901  0.00  0.00    -0.287 NA
ATOM     11  C   UNL     1      -3.933  -1.456   0.307  0.00  0.00    +0.146 C 
ATOM     12  C   UNL     1      -4.418  -2.873  -0.050  0.00  0.00    +0.030 C 
ATOM     13  C   UNL     1      -5.000  -2.753  -1.451  0.00  0.00    +0.017 C 
ATOM     14  C   UNL     1      -5.342  -1.282  -1.571  0.00  0.00    +0.085 C 
BRANCH   4  15
ATOM     15  C   UNL     1      -4.449   0.756  -0.611  0.00  0.00    +0.120 C 
BRANCH  15  17
ATOM     17  C   UNL     1      -3.168   1.512  -0.381  0.00  0.00    -0.033 A 
ATOM     18  C   UNL     1      -2.955   2.173   0.829  0.00  0.00    +0.007 A 
ATOM     19  C   UNL     1      -2.194   1.552  -1.378  0.00  0.00    +0.007 A 
ATOM     21  C   UNL     1      -1.768   2.874   1.041  0.00  0.00    +0.033 A 
ATOM     22  C   UNL     1      -1.007   2.254  -1.166  0.00  0.00    +0.033 A 
ATOM     24  C   UNL     1      -0.794   2.915   0.044  0.00  0.00    +0.126 A 
BRANCH  24   7
ATOM      2  O   UNL     1       0.585   4.217   1.355  0.00  0.00    -0.126 OA
ATOM      3  O   UNL     1       1.277   3.653  -0.650  0.00  0.00    -0.126 OA
ATOM      7  N   UNL     1       0.414   3.629   0.260  0.00  0.00    +0.056 N 
ENDBRANCH  24   7
ENDBRANCH  15  17
ENDBRANCH   4  15
ENDBRANCH  16  11
TORSDOF 6
