REMARK  Name = 11912302
REMARK  6 active torsions:
REMARK  status: ('A' for Active; 'I' for Inactive)
REMARK    1  A    between atoms: N_6  and  C_21
REMARK    2  A    between atoms: C_7  and  C_12
REMARK    3  A    between atoms: C_8  and  C_13
REMARK    4  A    between atoms: C_12  and  C_15
REMARK    5  A    between atoms: C_13  and  C_16
REMARK    6  A    between atoms: C_21  and  C_22
REMARK                            x       y       z     vdW  Elec       q    Type
REMARK                         _______ _______ _______ _____ _____    ______ ____
ROOT
ATOM      1  O   UNL     1      -3.630   1.237   1.494  0.00  0.00    -0.252 OA
ATOM      2  O   UNL     1      -6.107  -2.068  -0.589  0.00  0.00    -0.377 OA
ATOM      4  N   UNL     1      -2.267   1.112  -0.359  0.00  0.00    -0.285 N 
ATOM      5  N   UNL     1      -3.801  -0.642   0.174  0.00  0.00    -0.281 N 
ATOM      7  C   UNL     1       0.192   0.757  -0.235  0.00  0.00    +0.010 C 
ATOM      8  C   UNL     1       0.382   2.289  -0.381  0.00  0.00    +0.004 C 
ATOM      9  C   UNL     1      -0.842   3.061   0.139  0.00  0.00    +0.023 C 
ATOM     10  C   UNL     1      -1.141   0.321  -0.878  0.00  0.00    +0.113 C 
ATOM     11  C   UNL     1      -2.122   2.557  -0.521  0.00  0.00    +0.109 C 
ATOM     14  C   UNL     1      -3.256   0.606   0.497  0.00  0.00    +0.305 C 
ATOM     17  C   UNL     1      -4.590  -1.377   1.161  0.00  0.00    +0.137 C 
ATOM     18  C   UNL     1      -3.929  -1.165  -1.193  0.00  0.00    +0.137 C 
ATOM     19  C   UNL     1      -6.040  -1.467   0.708  0.00  0.00    +0.179 C 
ATOM     20  C   UNL     1      -5.407  -1.283  -1.559  0.00  0.00    +0.179 C 
ENDROOT
BRANCH   7  12
ATOM     12  C   UNL     1       0.274   0.259   1.214  0.00  0.00    +0.002 C 
ATOM     15  C   UNL     1       0.192  -1.251   1.277  0.00  0.00    +0.004 C 
ENDBRANCH   7  12
BRANCH   8  13
ATOM     13  C   UNL     1       1.662   2.802   0.276  0.00  0.00    +0.099 C 
BRANCH  13  16
ATOM      3  O   UNL     1       3.220   2.152  -1.457  0.00  0.00    -0.276 OA
ATOM      6  N   UNL     1       3.602   1.476   0.734  0.00  0.00    -0.311 N 
ATOM     16  C   UNL     1       2.899   2.124  -0.272  0.00  0.00    +0.214 C 
ATOM     28  H   UNL     1       3.262   1.508   1.690  0.00  0.00    +0.149 HD
BRANCH   6  21
ATOM     21  C   UNL     1       4.824   0.743   0.497  0.00  0.00    +0.139 C 
BRANCH  21  22
ATOM     22  C   UNL     1       4.560  -0.700   0.176  0.00  0.00    -0.030 A 
ATOM     23  C   UNL     1       4.501  -1.643   1.202  0.00  0.00    +0.005 A 
ATOM     24  C   UNL     1       4.372  -1.098  -1.148  0.00  0.00    +0.005 A 
ATOM     25  C   UNL     1       4.255  -2.984   0.905  0.00  0.00    +0.000 A 
ATOM     26  C   UNL     1       4.127  -2.438  -1.445  0.00  0.00    +0.000 A 
ATOM     27  C   UNL     1       4.068  -3.381  -0.419  0.00  0.00    +0.000 A 
ENDBRANCH  21  22
ENDBRANCH   6  21
ENDBRANCH  13  16
ENDBRANCH   8  13
TORSDOF 5
