REMARK  Name = 75368651
REMARK  4 active torsions:
REMARK  status: ('A' for Active; 'I' for Inactive)
REMARK    1  A    between atoms: N_2  and  C_6
REMARK    2  A    between atoms: N_4  and  C_17
REMARK    3  A    between atoms: C_17  and  C_18
REMARK    4  A    between atoms: C_19  and  C_22
REMARK                            x       y       z     vdW  Elec       q    Type
REMARK                         _______ _______ _______ _____ _____    ______ ____
ROOT
ATOM      1  O   UNL     1       2.875  -2.719  -0.012  0.00  0.00    -0.252 OA
ATOM      2  N   UNL     1       2.639  -0.378   0.158  0.00  0.00    -0.281 N 
ATOM      3  N   UNL     1       0.790  -1.652   0.166  0.00  0.00    -0.278 N 
ATOM      4  N   UNL     1      -1.908  -1.057  -0.362  0.00  0.00    -0.295 NA
ATOM      5  C   UNL     1       0.306  -0.308   0.408  0.00  0.00    +0.109 C 
ATOM      7  C   UNL     1       1.536   0.567   0.172  0.00  0.00    +0.133 C 
ATOM      8  C   UNL     1      -0.885  -0.001  -0.498  0.00  0.00    +0.109 C 
ATOM     11  C   UNL     1       2.188  -1.712   0.095  0.00  0.00    +0.305 C 
ATOM     12  C   UNL     1      -0.155  -2.749   0.130  0.00  0.00    +0.125 C 
ATOM     13  C   UNL     1      -1.358  -2.375  -0.739  0.00  0.00    +0.104 C 
ENDROOT
BRANCH   2   6
ATOM      6  C   UNL     1       4.014   0.053   0.067  0.00  0.00    +0.078 C 
ATOM      9  C   UNL     1       4.443   0.754   1.358  0.00  0.00    +0.022 C 
ATOM     10  C   UNL     1       4.219   0.955  -1.153  0.00  0.00    +0.022 C 
ATOM     14  C   UNL     1       5.878   1.267   1.269  0.00  0.00    +0.002 C 
ATOM     15  C   UNL     1       5.655   1.466  -1.238  0.00  0.00    +0.002 C 
ATOM     16  C   UNL     1       6.081   2.163   0.051  0.00  0.00    +0.000 C 
ENDBRANCH   2   6
BRANCH   4  17
ATOM     17  C   UNL     1      -3.079  -0.741  -1.179  0.00  0.00    +0.120 C 
BRANCH  17  18
ATOM     18  C   UNL     1      -3.941   0.315  -0.539  0.00  0.00    -0.030 A 
ATOM     19  C   UNL     1      -4.779   0.004   0.531  0.00  0.00    -0.046 A 
ATOM     20  C   UNL     1      -3.894   1.619  -1.032  0.00  0.00    +0.005 A 
ATOM     21  C   UNL     1      -5.570   0.998   1.109  0.00  0.00    +0.003 A 
ATOM     22  C   UNL     1      -4.848  -1.385   1.076  0.00  0.00    +0.044 C 
ATOM     23  C   UNL     1      -4.684   2.612  -0.455  0.00  0.00    +0.000 A 
ATOM     24  C   UNL     1      -5.522   2.302   0.616  0.00  0.00    +0.000 A 
ENDBRANCH  17  18
ENDBRANCH   4  17
TORSDOF 3
