REMARK  Name = 75368505
REMARK  4 active torsions:
REMARK  status: ('A' for Active; 'I' for Inactive)
REMARK    1  A    between atoms: O_4  and  C_24
REMARK    2  A    between atoms: O_4  and  C_27
REMARK    3  A    between atoms: N_5  and  C_11
REMARK    4  A    between atoms: N_8  and  C_21
REMARK                            x       y       z     vdW  Elec       q    Type
REMARK                         _______ _______ _______ _____ _____    ______ ____
ROOT
ATOM      2  O   UNL     1      -4.274  -2.425  -0.208  0.00  0.00    -0.252 OA
ATOM      3  O   UNL     1       2.631  -2.724  -0.220  0.00  0.00    -0.252 OA
ATOM      5  N   UNL     1      -3.666  -0.147  -0.141  0.00  0.00    -0.280 N 
ATOM      6  N   UNL     1      -2.043  -1.694  -0.300  0.00  0.00    -0.278 N 
ATOM      7  N   UNL     1       0.670  -1.616   0.297  0.00  0.00    -0.282 N 
ATOM      8  N   UNL     1       2.610  -0.405  -0.276  0.00  0.00    -0.269 N 
ATOM      9  C   UNL     1      -1.349  -0.420  -0.404  0.00  0.00    +0.112 C 
ATOM     10  C   UNL     1      -2.428   0.608  -0.074  0.00  0.00    +0.133 C 
ATOM     12  C   UNL     1      -0.143  -0.404   0.528  0.00  0.00    +0.133 C 
ATOM     13  C   UNL     1      -1.296  -2.937  -0.389  0.00  0.00    +0.128 C 
ATOM     14  C   UNL     1      -3.434  -1.535  -0.219  0.00  0.00    +0.305 C 
ATOM     15  C   UNL     1      -0.063  -2.874   0.513  0.00  0.00    +0.128 C 
ATOM     20  C   UNL     1       2.031  -1.656  -0.072  0.00  0.00    +0.307 C 
ATOM     28  H   UNL     1       2.011   0.354  -0.584  0.00  0.00    +0.156 HD
ENDROOT
BRANCH   5  11
ATOM      1  O   UNL     1      -6.510   2.894   0.239  0.00  0.00    -0.380 OA
ATOM     11  C   UNL     1      -4.954   0.484   0.004  0.00  0.00    +0.082 C 
ATOM     16  C   UNL     1      -5.259   1.383  -1.194  0.00  0.00    +0.050 C 
ATOM     17  C   UNL     1      -5.033   1.287   1.304  0.00  0.00    +0.050 C 
ATOM     18  C   UNL     1      -6.559   2.147  -0.976  0.00  0.00    +0.161 C 
ATOM     19  C   UNL     1      -6.346   2.054   1.382  0.00  0.00    +0.161 C 
ENDBRANCH   5  11
BRANCH   8  21
ATOM     21  C   UNL     1       3.965  -0.042  -0.074  0.00  0.00    +0.038 A 
ATOM     22  C   UNL     1       4.382   1.264  -0.329  0.00  0.00    +0.069 A 
ATOM     23  C   UNL     1       4.881  -0.991   0.380  0.00  0.00    +0.023 A 
ATOM     24  C   UNL     1       5.716   1.621  -0.131  0.00  0.00    +0.122 A 
ATOM     25  C   UNL     1       6.215  -0.634   0.578  0.00  0.00    +0.005 A 
ATOM     26  C   UNL     1       6.632   0.672   0.323  0.00  0.00    +0.046 A 
BRANCH  24   4
ATOM      4  O   UNL     1       6.123   2.896  -0.382  0.00  0.00    -0.495 OA
ATOM     27  C   UNL     1       7.501   3.192  -0.159  0.00  0.00    +0.277 C 
ENDBRANCH  24   4
ENDBRANCH   8  21
TORSDOF 3
