REMARK  Name = 44716834
REMARK  14 active torsions:
REMARK  status: ('A' for Active; 'I' for Inactive)
REMARK    1  A    between atoms: S_1  and  N_11
REMARK    2  A    between atoms: S_1  and  C_25
REMARK    3  A    between atoms: S_2  and  C_24
REMARK    4  A    between atoms: S_2  and  C_31
REMARK    5  A    between atoms: O_8  and  C_37
REMARK    6  A    between atoms: N_11  and  C_16
REMARK    7  A    between atoms: N_12  and  C_23
REMARK    8  A    between atoms: N_14  and  C_34
REMARK    9  A    between atoms: C_18  and  C_21
REMARK   10  A    between atoms: C_22  and  C_24
REMARK   11  A    between atoms: C_23  and  C_26
REMARK   12  A    between atoms: C_23  and  C_27
REMARK   13  A    between atoms: C_26  and  C_29
REMARK   14  A    between atoms: C_31  and  C_37
REMARK                            x       y       z     vdW  Elec       q    Type
REMARK                         _______ _______ _______ _____ _____    ______ ____
ROOT
ATOM      4  O   UNL     1      -3.243   3.735   1.388  0.00  0.00    -0.275 OA
ATOM     10  N   UNL     1      -1.378   2.543   0.666  0.00  0.00    -0.289 N 
ATOM     16  C   UNL     1       1.465   2.535   0.026  0.00  0.00    +0.080 C 
ATOM     17  C   UNL     1       0.492   1.631  -0.733  0.00  0.00    +0.052 C 
ATOM     18  C   UNL     1      -0.792   1.341   0.048  0.00  0.00    +0.163 C 
ATOM     19  C   UNL     1       0.757   3.796   0.510  0.00  0.00    +0.039 C 
ATOM     20  C   UNL     1      -0.450   3.440   1.367  0.00  0.00    +0.110 C 
ATOM     22  C   UNL     1      -2.751   2.797   0.754  0.00  0.00    +0.226 C 
ENDROOT
BRANCH  18  21
ATOM      3  O   UNL     1       0.189   0.579   2.089  0.00  0.00    -0.274 OA
ATOM     12  N   UNL     1      -1.291  -0.818   0.959  0.00  0.00    -0.302 N 
ATOM     21  C   UNL     1      -0.571   0.348   1.151  0.00  0.00    +0.234 C 
ATOM     40  H   UNL     1      -1.943  -0.881   0.183  0.00  0.00    +0.150 HD
BRANCH  12  23
ATOM     23  C   UNL     1      -1.236  -1.941   1.867  0.00  0.00    +0.163 C 
BRANCH  23  27
ATOM      7  O   UNL     1      -3.345  -1.130   2.760  0.00  0.00    -0.274 OA
ATOM     15  N   UNL     1      -1.891  -2.200   4.179  0.00  0.00    -0.328 N 
ATOM     27  C   UNL     1      -2.269  -1.689   2.955  0.00  0.00    +0.231 C 
ATOM     41  H   UNL     1      -1.007  -2.680   4.321  0.00  0.00    +0.145 HD
ATOM     42  H   UNL     1      -2.495  -2.113   4.989  0.00  0.00    +0.145 HD
ENDBRANCH  23  27
BRANCH  23  26
ATOM     26  C   UNL     1      -1.518  -3.272   1.161  0.00  0.00    +0.067 C 
BRANCH  26  29
ATOM     29  C   UNL     1      -0.540  -3.563   0.049  0.00  0.00    -0.045 A 
ATOM     32  C   UNL     1      -0.809  -3.128  -1.248  0.00  0.00    +0.004 A 
ATOM     33  C   UNL     1       0.634  -4.266   0.319  0.00  0.00    +0.004 A 
ATOM     35  C   UNL     1       0.095  -3.396  -2.276  0.00  0.00    +0.000 A 
ATOM     36  C   UNL     1       1.538  -4.535  -0.709  0.00  0.00    +0.000 A 
ATOM     38  C   UNL     1       1.269  -4.100  -2.006  0.00  0.00    +0.000 A 
ENDBRANCH  26  29
ENDBRANCH  23  26
ENDBRANCH  12  23
ENDBRANCH  18  21
BRANCH  16  11
ATOM     11  N   UNL     1       2.584   2.910  -0.872  0.00  0.00    -0.185 NA
ATOM     39  H   UNL     1       2.343   3.028  -1.864  0.00  0.00    +0.148 HD
BRANCH  11   1
ATOM      1  S   UNL     1       4.176   2.483  -0.463  0.00  0.00    +0.077 S 
ATOM      5  O   UNL     1       4.479   2.968   0.870  0.00  0.00    -0.152 OA
ATOM      6  O   UNL     1       5.048   2.810  -1.575  0.00  0.00    -0.152 OA
BRANCH   1  25
ATOM     13  N   UNL     1       3.900  -0.049  -1.514  0.00  0.00    -0.216 NA
ATOM     14  N   UNL     1       4.015  -1.344   0.286  0.00  0.00    -0.338 N 
ATOM     25  C   UNL     1       4.072   0.720  -0.391  0.00  0.00    +0.211 A 
ATOM     28  C   UNL     1       4.146  -0.062   0.739  0.00  0.00    +0.135 A 
ATOM     30  C   UNL     1       3.870  -1.287  -1.072  0.00  0.00    +0.201 A 
ATOM     34  C   UNL     1       4.028  -2.540   1.093  0.00  0.00    +0.150 C 
ENDBRANCH   1  25
ENDBRANCH  11   1
ENDBRANCH  16  11
BRANCH  22  24
ATOM     24  C   UNL     1      -3.666   1.856   0.009  0.00  0.00    +0.165 C 
BRANCH  24   2
ATOM      2  S   UNL     1      -3.907   2.523  -1.644  0.00  0.00    -0.140 S 
BRANCH   2  31
ATOM     31  C   UNL     1      -5.005   1.244  -2.303  0.00  0.00    +0.189 C 
BRANCH  31  37
ATOM      9  O   UNL     1      -3.038   0.122  -3.126  0.00  0.00    -0.250 OA
ATOM     37  C   UNL     1      -4.191   0.054  -2.722  0.00  0.00    +0.315 C 
BRANCH  37   8
ATOM      8  O   UNL     1      -4.867  -1.115  -2.590  0.00  0.00    -0.480 OA
ATOM     43  H   UNL     1      -4.321  -1.885  -2.857  0.00  0.00    +0.295 HD
ENDBRANCH  37   8
ENDBRANCH  31  37
ENDBRANCH   2  31
ENDBRANCH  24   2
ENDBRANCH  22  24
TORSDOF 13
