REMARK  Name = 26743344
REMARK  9 active torsions:
REMARK  status: ('A' for Active; 'I' for Inactive)
REMARK    1  A    between atoms: O_4  and  C_29
REMARK    2  A    between atoms: O_4  and  C_36
REMARK    3  A    between atoms: N_7  and  C_25
REMARK    4  A    between atoms: N_9  and  C_26
REMARK    5  A    between atoms: C_10  and  C_14
REMARK    6  A    between atoms: C_11  and  C_15
REMARK    7  A    between atoms: C_14  and  C_17
REMARK    8  A    between atoms: C_15  and  C_18
REMARK    9  A    between atoms: C_24  and  C_26
REMARK                            x       y       z     vdW  Elec       q    Type
REMARK                         _______ _______ _______ _____ _____    ______ ____
ROOT
ATOM      5  N   UNL     1       2.072  -1.414  -2.465  0.00  0.00    -0.316 NA
ATOM     10  C   UNL     1       0.537   0.953  -1.601  0.00  0.00    +0.004 C 
ATOM     11  C   UNL     1       1.939   0.615  -1.040  0.00  0.00    +0.012 C 
ATOM     12  C   UNL     1       0.385   0.311  -2.990  0.00  0.00    +0.019 C 
ATOM     13  C   UNL     1       2.229  -0.894  -1.106  0.00  0.00    +0.085 C 
ATOM     16  C   UNL     1       0.728  -1.178  -2.986  0.00  0.00    +0.081 C 
ATOM     37  H   UNL     1       2.264  -2.416  -2.467  0.00  0.00    +0.122 HD
ENDROOT
BRANCH  10  14
ATOM     14  C   UNL     1      -0.619   0.542  -0.681  0.00  0.00    +0.100 C 
BRANCH  14  17
ATOM      1  O   UNL     1      -1.811   2.164  -1.932  0.00  0.00    -0.276 OA
ATOM      6  N   UNL     1      -2.999   1.051  -0.278  0.00  0.00    -0.298 N 
ATOM      7  N   UNL     1      -5.473  -0.211   0.226  0.00  0.00    -0.324 N 
ATOM     17  C   UNL     1      -1.858   1.329  -1.025  0.00  0.00    +0.216 C 
ATOM     19  C   UNL     1      -3.095   0.070   0.805  0.00  0.00    +0.126 C 
ATOM     20  C   UNL     1      -4.239   1.782  -0.526  0.00  0.00    +0.126 C 
ATOM     21  C   UNL     1      -4.225  -0.924   0.534  0.00  0.00    +0.124 C 
ATOM     22  C   UNL     1      -5.386   0.818  -0.822  0.00  0.00    +0.124 C 
BRANCH   7  25
ATOM     25  C   UNL     1      -6.701  -0.860   0.400  0.00  0.00    +0.072 A 
ATOM     29  C   UNL     1      -7.846  -0.136   0.730  0.00  0.00    +0.141 A 
ATOM     30  C   UNL     1      -6.772  -2.244   0.240  0.00  0.00    +0.027 A 
ATOM     33  C   UNL     1      -9.063  -0.795   0.899  0.00  0.00    +0.047 A 
ATOM     34  C   UNL     1      -7.990  -2.903   0.410  0.00  0.00    +0.002 A 
ATOM     35  C   UNL     1      -9.135  -2.179   0.739  0.00  0.00    +0.004 A 
BRANCH  29   4
ATOM      4  O   UNL     1      -7.797   1.217   0.890  0.00  0.00    -0.493 OA
ATOM     36  C   UNL     1      -7.517   1.703   2.201  0.00  0.00    +0.277 C 
ENDBRANCH  29   4
ENDBRANCH   7  25
ENDBRANCH  14  17
ENDBRANCH  10  14
BRANCH  11  15
ATOM     15  C   UNL     1       2.160   1.143   0.378  0.00  0.00    +0.064 C 
BRANCH  15  18
ATOM      2  O   UNL     1       5.564   2.227   0.825  0.00  0.00    -0.358 OA
ATOM      8  N   UNL     1       4.250   2.434   0.423  0.00  0.00    -0.083 NA
ATOM     18  C   UNL     1       3.622   1.285   0.687  0.00  0.00    +0.084 A 
ATOM     23  C   UNL     1       4.481   0.325   1.252  0.00  0.00    +0.072 A 
ATOM     24  C   UNL     1       5.689   0.968   1.317  0.00  0.00    +0.151 A 
BRANCH  24  26
ATOM     26  C   UNL     1       7.022   0.579   1.791  0.00  0.00    +0.161 C 
BRANCH  26   9
ATOM      3  O   UNL     1       9.698  -1.993  -0.168  0.00  0.00    -0.377 OA
ATOM      9  N   UNL     1       7.570  -0.577   1.084  0.00  0.00    -0.291 NA
ATOM     27  C   UNL     1       8.081  -0.186  -0.237  0.00  0.00    +0.113 C 
ATOM     28  C   UNL     1       8.639  -1.211   1.869  0.00  0.00    +0.113 C 
ATOM     31  C   UNL     1       8.658  -1.405  -0.950  0.00  0.00    +0.175 C 
ATOM     32  C   UNL     1       9.203  -2.405   1.107  0.00  0.00    +0.175 C 
ENDBRANCH  26   9
ENDBRANCH  24  26
ENDBRANCH  15  18
ENDBRANCH  11  15
TORSDOF 8
