REMARK  Name = 11882965
REMARK  12 active torsions:
REMARK  status: ('A' for Active; 'I' for Inactive)
REMARK    1  A    between atoms: O_2  and  C_15
REMARK    2  A    between atoms: O_3  and  C_20
REMARK    3  A    between atoms: O_6  and  C_34
REMARK    4  A    between atoms: O_6  and  C_35
REMARK    5  A    between atoms: N_8  and  C_28
REMARK    6  A    between atoms: C_10  and  C_18
REMARK    7  A    between atoms: C_12  and  C_20
REMARK    8  A    between atoms: C_12  and  C_21
REMARK    9  A    between atoms: C_13  and  C_23
REMARK   10  A    between atoms: C_23  and  C_24
REMARK   11  A    between atoms: C_26  and  C_27
REMARK   12  A    between atoms: C_28  and  C_34
REMARK                            x       y       z     vdW  Elec       q    Type
REMARK                         _______ _______ _______ _____ _____    ______ ____
ROOT
ATOM      1  S   UNL     1      -0.324  -2.570  -0.231  0.00  0.00    -0.057 S 
ATOM      5  O   UNL     1      -3.659   0.550   0.733  0.00  0.00    -0.275 OA
ATOM      7  N   UNL     1      -0.775  -0.107   0.422  0.00  0.00    -0.229 NA
ATOM      9  N   UNL     1      -2.701  -1.531   0.154  0.00  0.00    -0.264 N 
ATOM     10  C   UNL     1       3.036   0.363   0.769  0.00  0.00    -0.019 C 
ATOM     11  C   UNL     1       3.351  -0.717  -0.358  0.00  0.00    +0.011 C 
ATOM     12  C   UNL     1       4.868  -1.073  -0.604  0.00  0.00    +0.021 C 
ATOM     13  C   UNL     1       1.541   0.883   0.549  0.00  0.00    +0.054 C 
ATOM     14  C   UNL     1       4.001   1.567   0.613  0.00  0.00    +0.010 C 
ATOM     15  C   UNL     1       5.696   0.240  -0.689  0.00  0.00    +0.123 C 
ATOM     16  C   UNL     1       2.428  -1.963  -0.225  0.00  0.00    +0.049 C 
ATOM     17  C   UNL     1       5.466   1.173   0.495  0.00  0.00    +0.032 C 
ATOM     18  C   UNL     1       3.178  -0.204   2.203  0.00  0.00    +0.012 C 
ATOM     19  C   UNL     1       0.595  -0.268   0.324  0.00  0.00    +0.058 A 
ATOM     21  C   UNL     1       5.003  -1.795  -1.974  0.00  0.00    +0.016 C 
ATOM     22  C   UNL     1       1.012  -1.531  -0.040  0.00  0.00    +0.015 A 
ATOM     25  C   UNL     1      -1.359  -1.256   0.159  0.00  0.00    +0.165 A 
ATOM     26  C   UNL     1      -3.747  -0.636   0.434  0.00  0.00    +0.222 C 
ATOM     39  H   UNL     1      -2.937  -2.491  -0.085  0.00  0.00    +0.157 HD
ENDROOT
BRANCH  26  27
ATOM     27  C   UNL     1      -5.088  -1.298   0.329  0.00  0.00    +0.075 C 
ATOM     29  C   UNL     1      -6.066  -0.656   1.315  0.00  0.00    +0.013 C 
ATOM     30  C   UNL     1      -5.603  -1.207  -1.109  0.00  0.00    +0.013 C 
ATOM     31  C   UNL     1      -7.471  -1.237   1.176  0.00  0.00    +0.001 C 
ATOM     32  C   UNL     1      -7.009  -1.786  -1.243  0.00  0.00    +0.001 C 
ATOM     33  C   UNL     1      -7.980  -1.141  -0.259  0.00  0.00    +0.000 C 
ENDBRANCH  26  27
BRANCH  15   2
ATOM      2  O   UNL     1       7.090  -0.049  -0.782  0.00  0.00    -0.391 OA
ATOM     36  H   UNL     1       7.275  -0.352  -1.686  0.00  0.00    +0.210 HD
ENDBRANCH  15   2
BRANCH  12  20
ATOM     20  C   UNL     1       5.476  -2.041   0.436  0.00  0.00    +0.165 C 
BRANCH  20   3
ATOM      3  O   UNL     1       6.820  -2.270   0.079  0.00  0.00    -0.394 OA
ATOM     37  H   UNL     1       6.843  -3.014  -0.546  0.00  0.00    +0.209 HD
ENDBRANCH  20   3
ENDBRANCH  12  20
BRANCH  13  23
ATOM     23  C   UNL     1       1.027   1.828   1.644  0.00  0.00    +0.106 C 
BRANCH  23  24
ATOM      4  O   UNL     1      -1.333   2.236   1.986  0.00  0.00    -0.276 OA
ATOM      8  N   UNL     1      -0.271   3.141   0.128  0.00  0.00    -0.313 N 
ATOM     24  C   UNL     1      -0.327   2.406   1.303  0.00  0.00    +0.214 C 
ATOM     38  H   UNL     1       0.618   3.272  -0.344  0.00  0.00    +0.149 HD
BRANCH   8  28
ATOM     28  C   UNL     1      -1.420   3.807  -0.443  0.00  0.00    +0.132 C 
BRANCH  28  34
ATOM     34  C   UNL     1      -2.169   2.902  -1.403  0.00  0.00    +0.178 C 
BRANCH  34   6
ATOM      6  O   UNL     1      -1.313   2.543  -2.480  0.00  0.00    -0.381 OA
ATOM     35  C   UNL     1      -1.973   1.698  -3.412  0.00  0.00    +0.194 C 
ENDBRANCH  34   6
ENDBRANCH  28  34
ENDBRANCH   8  28
ENDBRANCH  23  24
ENDBRANCH  13  23
TORSDOF 9
