REMARK  Name = 56775116
REMARK  8 active torsions:
REMARK  status: ('A' for Active; 'I' for Inactive)
REMARK    1  A    between atoms: O_3  and  C_15
REMARK    2  A    between atoms: O_3  and  C_20
REMARK    3  A    between atoms: N_4  and  C_10
REMARK    4  A    between atoms: N_5  and  C_13
REMARK    5  A    between atoms: C_10  and  C_14
REMARK    6  A    between atoms: C_13  and  C_15
REMARK    7  A    between atoms: C_14  and  C_16
REMARK    8  A    between atoms: C_16  and  C_17
REMARK                            x       y       z     vdW  Elec       q    Type
REMARK                         _______ _______ _______ _____ _____    ______ ____
ROOT
ATOM      1  O   UNL     1      -2.156   2.219  -0.351  0.00  0.00    -0.364 OA
ATOM      2  O   UNL     1      -5.340   1.296   0.845  0.00  0.00    -0.273 OA
ATOM      4  N   UNL     1       0.129  -0.090   0.197  0.00  0.00    -0.298 NA
ATOM      5  N   UNL     1      -3.518  -0.068   0.357  0.00  0.00    -0.291 N 
ATOM      6  C   UNL     1      -2.154  -0.186  -0.149  0.00  0.00    +0.120 C 
ATOM      7  C   UNL     1      -1.652   1.021  -0.936  0.00  0.00    +0.154 C 
ATOM      8  C   UNL     1      -1.104  -0.308   0.952  0.00  0.00    +0.109 C 
ATOM      9  C   UNL     1      -0.132   1.010  -0.741  0.00  0.00    +0.118 C 
ATOM     11  C   UNL     1      -4.225   1.131   0.346  0.00  0.00    +0.242 C 
ATOM     12  C   UNL     1      -3.563   2.258  -0.416  0.00  0.00    +0.256 C 
ENDROOT
BRANCH   4  10
ATOM     10  C   UNL     1       1.277   0.159   1.055  0.00  0.00    +0.085 C 
BRANCH  10  14
ATOM     14  C   UNL     1       2.576  -0.077   0.284  0.00  0.00    +0.020 C 
BRANCH  14  16
ATOM     16  C   UNL     1       3.797   0.201   1.165  0.00  0.00    +0.036 C 
BRANCH  16  17
ATOM     17  C   UNL     1       5.086  -0.063   0.429  0.00  0.00    -0.047 A 
ATOM     18  C   UNL     1       5.667  -1.331   0.472  0.00  0.00    +0.003 A 
ATOM     19  C   UNL     1       5.698   0.961  -0.293  0.00  0.00    +0.003 A 
ATOM     21  C   UNL     1       6.860  -1.574  -0.208  0.00  0.00    +0.000 A 
ATOM     22  C   UNL     1       6.891   0.717  -0.974  0.00  0.00    +0.000 A 
ATOM     23  C   UNL     1       7.472  -0.550  -0.931  0.00  0.00    +0.000 A 
ENDBRANCH  16  17
ENDBRANCH  14  16
ENDBRANCH  10  14
ENDBRANCH   4  10
BRANCH   5  13
ATOM     13  C   UNL     1      -4.098  -1.252   0.978  0.00  0.00    +0.136 C 
BRANCH  13  15
ATOM     15  C   UNL     1      -4.869  -2.088  -0.027  0.00  0.00    +0.178 C 
BRANCH  15   3
ATOM      3  O   UNL     1      -5.943  -1.320  -0.555  0.00  0.00    -0.381 OA
ATOM     20  C   UNL     1      -6.700  -2.064  -1.500  0.00  0.00    +0.194 C 
ENDBRANCH  15   3
ENDBRANCH  13  15
ENDBRANCH   5  13
TORSDOF 7
