REMARK  Name = 45360614
REMARK  12 active torsions:
REMARK  status: ('A' for Active; 'I' for Inactive)
REMARK    1  A    between atoms: S_1  and  N_7
REMARK    2  A    between atoms: S_1  and  C_16
REMARK    3  A    between atoms: O_4  and  C_17
REMARK    4  A    between atoms: O_4  and  C_32
REMARK    5  A    between atoms: O_6  and  C_35
REMARK    6  A    between atoms: O_6  and  C_38
REMARK    7  A    between atoms: N_8  and  C_18
REMARK    8  A    between atoms: N_10  and  C_25
REMARK    9  A    between atoms: N_10  and  C_36
REMARK   10  A    between atoms: N_10  and  C_37
REMARK   11  A    between atoms: C_11  and  C_17
REMARK   12  A    between atoms: C_18  and  C_23
REMARK                            x       y       z     vdW  Elec       q    Type
REMARK                         _______ _______ _______ _____ _____    ______ ____
ROOT
ATOM      7  N   UNL     1       2.287  -0.705  -0.028  0.00  0.00    -0.157 NA
ATOM      8  N   UNL     1       1.260   2.891   0.063  0.00  0.00    -0.328 N 
ATOM      9  N   UNL     1       2.446   3.043  -1.824  0.00  0.00    -0.240 NA
ATOM     11  C   UNL     1       3.538  -0.456  -0.833  0.00  0.00    +0.194 C 
ATOM     12  C   UNL     1       1.735   0.476   0.732  0.00  0.00    +0.165 C 
ATOM     13  C   UNL     1       3.341   0.674  -1.866  0.00  0.00    +0.089 C 
ATOM     14  C   UNL     1       1.837   1.671  -0.128  0.00  0.00    +0.057 A 
ATOM     15  C   UNL     1       2.561   1.791  -1.288  0.00  0.00    +0.066 A 
ATOM     19  C   UNL     1       1.656   3.683  -0.985  0.00  0.00    +0.200 A 
ENDROOT
BRANCH   7   1
ATOM      1  S   UNL     1       2.184  -2.210   0.783  0.00  0.00    +0.062 S 
ATOM      2  O   UNL     1       2.781  -2.081   2.095  0.00  0.00    -0.153 OA
ATOM      3  O   UNL     1       2.595  -3.261  -0.123  0.00  0.00    -0.153 OA
BRANCH   1  16
ATOM     16  C   UNL     1       0.436  -2.328   0.994  0.00  0.00    +0.113 A 
ATOM     20  C   UNL     1      -0.447  -2.544  -0.077  0.00  0.00    +0.010 A 
ATOM     21  C   UNL     1      -0.045  -2.195   2.297  0.00  0.00    +0.029 A 
ATOM     22  C   UNL     1      -1.837  -2.626   0.178  0.00  0.00    +0.005 A 
ATOM     24  C   UNL     1       0.018  -2.680  -1.395  0.00  0.00    +0.010 A 
ATOM     25  C   UNL     1      -2.720  -2.842  -0.892  0.00  0.00    +0.037 A 
ATOM     26  C   UNL     1      -1.411  -2.275   2.547  0.00  0.00    +0.003 A 
ATOM     27  C   UNL     1      -2.303  -2.490   1.496  0.00  0.00    +0.010 A 
ATOM     28  C   UNL     1      -0.873  -2.894  -2.446  0.00  0.00    +0.002 A 
ATOM     29  C   UNL     1      -2.240  -2.975  -2.196  0.00  0.00    +0.024 A 
BRANCH  25  10
ATOM     10  N   UNL     1      -4.119  -2.933  -0.693  0.00  0.00    -0.336 N 
ATOM     36  C   UNL     1      -4.941  -1.744  -0.747  0.00  0.00    +0.129 C 
ATOM     37  C   UNL     1      -4.735  -4.214  -0.426  0.00  0.00    +0.129 C 
ENDBRANCH  25  10
ENDBRANCH   1  16
ENDBRANCH   7   1
BRANCH  11  17
ATOM      5  O   UNL     1       4.548  -0.104   1.321  0.00  0.00    -0.249 OA
ATOM     17  C   UNL     1       4.667  -0.170   0.105  0.00  0.00    +0.326 C 
BRANCH  17   4
ATOM      4  O   UNL     1       5.818   0.000  -0.606  0.00  0.00    -0.467 OA
ATOM     32  C   UNL     1       6.985   0.282   0.172  0.00  0.00    +0.280 C 
ENDBRANCH  17   4
ENDBRANCH  11  17
BRANCH   8  18
ATOM     18  C   UNL     1       0.404   3.291   1.154  0.00  0.00    +0.158 C 
BRANCH  18  23
ATOM     23  C   UNL     1      -1.058   3.328   0.784  0.00  0.00    -0.028 A 
ATOM     30  C   UNL     1      -1.565   4.400   0.051  0.00  0.00    +0.009 A 
ATOM     31  C   UNL     1      -1.902   2.288   1.175  0.00  0.00    +0.009 A 
ATOM     33  C   UNL     1      -2.917   4.434  -0.291  0.00  0.00    +0.046 A 
ATOM     34  C   UNL     1      -3.254   2.322   0.833  0.00  0.00    +0.046 A 
ATOM     35  C   UNL     1      -3.761   3.394   0.100  0.00  0.00    +0.120 A 
BRANCH  35   6
ATOM      6  O   UNL     1      -5.080   3.427  -0.234  0.00  0.00    -0.495 OA
ATOM     38  C   UNL     1      -5.887   2.332   0.198  0.00  0.00    +0.277 C 
ENDBRANCH  35   6
ENDBRANCH  18  23
ENDBRANCH   8  18
TORSDOF 8
