REMARK  Name = 7143846
REMARK  7 active torsions:
REMARK  status: ('A' for Active; 'I' for Inactive)
REMARK    1  A    between atoms: S_1  and  N_6
REMARK    2  A    between atoms: S_1  and  C_17
REMARK    3  A    between atoms: S_2  and  C_27
REMARK    4  A    between atoms: S_2  and  C_28
REMARK    5  A    between atoms: C_17  and  C_20
REMARK    6  A    between atoms: C_18  and  C_21
REMARK    7  A    between atoms: C_20  and  C_22
REMARK                            x       y       z     vdW  Elec       q    Type
REMARK                         _______ _______ _______ _____ _____    ______ ____
ROOT
ATOM      5  O   UNL     1      -1.625   0.817  -1.742  0.00  0.00    -0.267 OA
ATOM      6  N   UNL     1       3.058  -0.006  -0.247  0.00  0.00    -0.180 NA
ATOM      7  N   UNL     1       0.197   1.327  -0.379  0.00  0.00    -0.311 N 
ATOM      8  C   UNL     1       2.430   2.160  -1.317  0.00  0.00    +0.025 C 
ATOM      9  C   UNL     1       2.156   1.874   1.107  0.00  0.00    +0.052 C 
ATOM     10  C   UNL     1       2.569   2.868   0.025  0.00  0.00    +0.017 C 
ATOM     11  C   UNL     1       3.346   0.926  -1.374  0.00  0.00    +0.114 C 
ATOM     12  C   UNL     1       3.110   0.665   1.086  0.00  0.00    +0.118 C 
ATOM     13  C   UNL     1       0.956   1.806  -1.543  0.00  0.00    +0.130 C 
ATOM     14  C   UNL     1       0.722   1.418   0.912  0.00  0.00    +0.026 A 
ATOM     15  C   UNL     1      -0.032   1.083   1.971  0.00  0.00    +0.022 A 
ATOM     16  C   UNL     1      -1.116   0.877  -0.621  0.00  0.00    +0.259 A 
ATOM     18  C   UNL     1      -1.925   0.474   0.582  0.00  0.00    +0.047 A 
ATOM     19  C   UNL     1      -1.373   0.599   1.798  0.00  0.00    +0.015 A 
ENDROOT
BRANCH  18  21
ATOM     21  C   UNL     1      -3.292  -0.055   0.441  0.00  0.00    -0.013 A 
ATOM     23  C   UNL     1      -4.383   0.814   0.460  0.00  0.00    +0.010 A 
ATOM     24  C   UNL     1      -3.498  -1.427   0.288  0.00  0.00    +0.010 A 
ATOM     25  C   UNL     1      -5.678   0.313   0.326  0.00  0.00    +0.015 A 
ATOM     26  C   UNL     1      -4.792  -1.928   0.154  0.00  0.00    +0.015 A 
ATOM     27  C   UNL     1      -5.883  -1.058   0.174  0.00  0.00    +0.008 A 
BRANCH  27   2
ATOM      2  S   UNL     1      -7.537  -1.699   0.005  0.00  0.00    -0.129 S 
ATOM     28  C   UNL     1      -8.110  -0.852  -1.495  0.00  0.00    +0.090 C 
ENDBRANCH  27   2
ENDBRANCH  18  21
BRANCH   6   1
ATOM      1  S   UNL     1       3.826  -1.533  -0.336  0.00  0.00    +0.032 S 
ATOM      3  O   UNL     1       3.840  -1.968  -1.715  0.00  0.00    -0.158 OA
ATOM      4  O   UNL     1       3.311  -2.376   0.722  0.00  0.00    -0.158 OA
BRANCH   1  17
ATOM     17  C   UNL     1       5.475  -1.049   0.104  0.00  0.00    +0.185 C 
BRANCH  17  20
ATOM     20  C   UNL     1       6.419  -2.240   0.109  0.00  0.00    +0.021 C 
ATOM     22  C   UNL     1       7.828  -1.831   0.504  0.00  0.00    +0.005 C 
ENDBRANCH  17  20
ENDBRANCH   1  17
ENDBRANCH   6   1
TORSDOF 5
