REMARK  Name = 11943404
REMARK  4 active torsions:
REMARK  status: ('A' for Active; 'I' for Inactive)
REMARK    1  A    between atoms: N_3  and  C_11
REMARK    2  A    between atoms: C_5  and  C_11
REMARK    3  A    between atoms: C_7  and  C_12
REMARK    4  A    between atoms: C_13  and  C_15
REMARK                            x       y       z     vdW  Elec       q    Type
REMARK                         _______ _______ _______ _____ _____    ______ ____
ROOT
ATOM      1  O   UNL     1       0.568   1.885   1.515  0.00  0.00    -0.270 OA
ATOM      3  N   UNL     1      -0.437  -0.159   1.095  0.00  0.00    -0.310 N 
ATOM     13  C   UNL     1       0.623   0.709   1.163  0.00  0.00    +0.244 C 
ATOM     25  H   UNL     1      -0.338  -1.096   0.721  0.00  0.00    +0.149 HD
ENDROOT
BRANCH  13  15
ATOM     15  C   UNL     1       1.928   0.139   0.739  0.00  0.00    +0.037 A 
ATOM     16  C   UNL     1       2.893   0.986   0.235  0.00  0.00    +0.021 A 
ATOM     17  C   UNL     1       2.131  -1.217   0.864  0.00  0.00    +0.013 A 
ATOM     18  C   UNL     1       4.131   0.462  -0.169  0.00  0.00    -0.017 A 
ATOM     19  C   UNL     1       4.367  -0.929  -0.051  0.00  0.00    -0.018 A 
ATOM     20  C   UNL     1       3.356  -1.754   0.468  0.00  0.00    +0.009 A 
ATOM     21  C   UNL     1       5.142   1.287  -0.688  0.00  0.00    +0.008 A 
ATOM     22  C   UNL     1       5.605  -1.453  -0.455  0.00  0.00    +0.008 A 
ATOM     23  C   UNL     1       6.367   0.750  -1.085  0.00  0.00    +0.001 A 
ATOM     24  C   UNL     1       6.598  -0.618  -0.969  0.00  0.00    +0.001 A 
ENDBRANCH  13  15
BRANCH   3  11
ATOM     11  C   UNL     1      -1.800   0.263   1.456  0.00  0.00    +0.123 C 
BRANCH  11   5
ATOM      2  N   UNL     1      -3.844   1.375   0.522  0.00  0.00    -0.297 NA
ATOM      4  C   UNL     1      -4.003  -0.197  -1.546  0.00  0.00    +0.008 C 
ATOM      5  C   UNL     1      -2.505   0.806   0.211  0.00  0.00    +0.074 C 
ATOM      6  C   UNL     1      -2.602  -0.258  -0.904  0.00  0.00    +0.025 C 
ATOM      7  C   UNL     1      -5.061  -0.572  -0.484  0.00  0.00    +0.081 C 
ATOM      8  C   UNL     1      -4.264   1.269  -1.940  0.00  0.00    +0.020 C 
ATOM      9  C   UNL     1      -4.819   0.285   0.777  0.00  0.00    +0.101 C 
ATOM     10  C   UNL     1      -4.302   2.135  -0.668  0.00  0.00    +0.085 C 
BRANCH   7  12
ATOM     12  C   UNL     1      -5.043  -2.010  -0.172  0.00  0.00    -0.101 C 
ATOM     14  C   UNL     1      -5.030  -3.183   0.083  0.00  0.00    +0.004 C 
ENDBRANCH   7  12
ENDBRANCH  11   5
ENDBRANCH   3  11
TORSDOF 4
