REMARK  Name = 75536245
REMARK  7 active torsions:
REMARK  status: ('A' for Active; 'I' for Inactive)
REMARK    1  A    between atoms: O_3  and  C_13
REMARK    2  A    between atoms: N_6  and  C_17
REMARK    3  A    between atoms: C_8  and  C_18
REMARK    4  A    between atoms: C_11  and  C_17
REMARK    5  A    between atoms: C_14  and  C_19
REMARK    6  A    between atoms: C_19  and  C_20
REMARK    7  A    between atoms: C_22  and  C_23
REMARK                            x       y       z     vdW  Elec       q    Type
REMARK                         _______ _______ _______ _____ _____    ______ ____
ROOT
ATOM      2  O   UNL     1       2.610  -0.795   0.657  0.00  0.00    -0.369 OA
ATOM     11  C   UNL     1       3.379   0.202   1.342  0.00  0.00    +0.164 C 
ATOM     13  C   UNL     1       4.874  -0.143   1.333  0.00  0.00    +0.145 C 
ATOM     14  C   UNL     1       3.015  -1.058  -0.688  0.00  0.00    +0.125 C 
ATOM     15  C   UNL     1       5.381  -0.494  -0.063  0.00  0.00    +0.036 C 
ATOM     16  C   UNL     1       4.471  -1.520  -0.732  0.00  0.00    +0.034 C 
ENDROOT
BRANCH  13   3
ATOM      3  O   UNL     1       5.090  -1.279   2.174  0.00  0.00    -0.389 OA
ATOM     30  H   UNL     1       6.047  -1.452   2.194  0.00  0.00    +0.210 HD
ENDBRANCH  13   3
BRANCH  11  17
ATOM     17  C   UNL     1       3.085   1.596   0.794  0.00  0.00    +0.138 C 
BRANCH  17   6
ATOM      4  O   UNL     1       1.410   2.209  -1.457  0.00  0.00    -0.276 OA
ATOM      6  N   UNL     1       1.680   1.871   0.819  0.00  0.00    -0.313 N 
ATOM     18  C   UNL     1       0.929   2.162  -0.320  0.00  0.00    +0.216 C 
ATOM     29  H   UNL     1       1.215   1.884   1.722  0.00  0.00    +0.149 HD
BRANCH  18   8
ATOM      8  C   UNL     1      -0.551   2.430  -0.033  0.00  0.00    +0.075 C 
ATOM      9  C   UNL     1      -0.919   3.727   0.735  0.00  0.00    +0.013 C 
ATOM     10  C   UNL     1      -1.418   2.980  -1.195  0.00  0.00    +0.013 C 
ATOM     12  C   UNL     1      -2.179   3.814  -0.147  0.00  0.00    +0.001 C 
ENDBRANCH  18   8
ENDBRANCH  17   6
ENDBRANCH  11  17
BRANCH  14  19
ATOM     19  C   UNL     1       2.088  -2.132  -1.244  0.00  0.00    +0.090 C 
BRANCH  19  20
ATOM      5  O   UNL     1      -1.214  -0.820  -1.843  0.00  0.00    -0.354 OA
ATOM      7  N   UNL     1       0.102  -1.055  -2.220  0.00  0.00    -0.083 NA
ATOM     20  C   UNL     1       0.646  -1.708  -1.189  0.00  0.00    +0.087 A 
ATOM     21  C   UNL     1      -0.271  -1.910  -0.143  0.00  0.00    +0.076 A 
ATOM     22  C   UNL     1      -1.425  -1.333  -0.605  0.00  0.00    +0.167 A 
BRANCH  22  23
ATOM      1  F   UNL     1      -6.562  -0.695   1.433  0.00  0.00    -0.205 F 
ATOM     23  C   UNL     1      -2.749  -1.168  -0.079  0.00  0.00    +0.020 A 
ATOM     24  C   UNL     1      -3.064  -1.665   1.186  0.00  0.00    +0.014 A 
ATOM     25  C   UNL     1      -3.721  -0.511  -0.833  0.00  0.00    +0.014 A 
ATOM     26  C   UNL     1      -4.352  -1.505   1.697  0.00  0.00    +0.039 A 
ATOM     27  C   UNL     1      -5.010  -0.352  -0.322  0.00  0.00    +0.039 A 
ATOM     28  C   UNL     1      -5.325  -0.848   0.943  0.00  0.00    +0.123 A 
ENDBRANCH  22  23
ENDBRANCH  19  20
ENDBRANCH  14  19
TORSDOF 7
