REMARK  Name = 51136741
REMARK  9 active torsions:
REMARK  status: ('A' for Active; 'I' for Inactive)
REMARK    1  A    between atoms: O_2  and  C_17
REMARK    2  A    between atoms: N_6  and  C_22
REMARK    3  A    between atoms: C_7  and  C_12
REMARK    4  A    between atoms: C_8  and  C_13
REMARK    5  A    between atoms: C_12  and  C_14
REMARK    6  A    between atoms: C_13  and  C_17
REMARK    7  A    between atoms: C_22  and  C_26
REMARK    8  A    between atoms: C_22  and  C_27
REMARK    9  A    between atoms: C_24  and  C_28
REMARK                            x       y       z     vdW  Elec       q    Type
REMARK                         _______ _______ _______ _____ _____    ______ ____
ROOT
ATOM      1  O   UNL     1      -4.498  -1.102  -0.657  0.00  0.00    -0.253 OA
ATOM      4  N   UNL     1      -2.524  -1.251   0.551  0.00  0.00    -0.285 N 
ATOM      6  N   UNL     1      -3.570   0.832   0.153  0.00  0.00    -0.297 N 
ATOM      7  C   UNL     1      -0.060  -0.998   0.650  0.00  0.00    +0.016 C 
ATOM      8  C   UNL     1       0.070  -2.531   0.451  0.00  0.00    +0.006 C 
ATOM      9  C   UNL     1      -1.155  -3.119  -0.273  0.00  0.00    +0.023 C 
ATOM     10  C   UNL     1      -1.408  -0.677   1.318  0.00  0.00    +0.113 C 
ATOM     11  C   UNL     1      -2.459  -2.706   0.407  0.00  0.00    +0.109 C 
ATOM     15  C   UNL     1      -3.594  -0.546  -0.025  0.00  0.00    +0.302 C 
ATOM     29  H   UNL     1      -2.753   1.292   0.531  0.00  0.00    +0.150 HD
ENDROOT
BRANCH   6  22
ATOM     22  C   UNL     1      -4.597   1.695  -0.387  0.00  0.00    +0.068 C 
ATOM     26  C   UNL     1      -4.239   2.120  -1.805  0.00  0.00    +0.027 C 
ATOM     27  C   UNL     1      -4.808   2.904   0.516  0.00  0.00    +0.027 C 
ENDBRANCH   6  22
BRANCH   7  12
ATOM     12  C   UNL     1       0.107  -0.185  -0.638  0.00  0.00    +0.061 C 
BRANCH  12  14
ATOM      5  N   UNL     1      -0.494   2.087  -0.140  0.00  0.00    -0.287 NA
ATOM     14  C   UNL     1       0.470   1.242  -0.302  0.00  0.00    +0.044 C 
ATOM     16  C   UNL     1       1.905   1.601  -0.168  0.00  0.00    -0.001 A 
ATOM     18  C   UNL     1       2.196   2.793   0.509  0.00  0.00    -0.037 A 
ATOM     19  C   UNL     1       1.060   3.606   1.056  0.00  0.00    +0.059 C 
ATOM     20  C   UNL     1      -0.140   3.485   0.127  0.00  0.00    +0.146 C 
ATOM     21  C   UNL     1       2.934   0.802  -0.668  0.00  0.00    +0.013 A 
ATOM     23  C   UNL     1       3.528   3.168   0.705  0.00  0.00    +0.004 A 
ATOM     24  C   UNL     1       4.261   1.193  -0.482  0.00  0.00    -0.050 A 
ATOM     25  C   UNL     1       4.557   2.370   0.205  0.00  0.00    +0.003 A 
ATOM     28  C   UNL     1       5.367   0.346  -1.015  0.00  0.00    +0.044 C 
ENDBRANCH  12  14
ENDBRANCH   7  12
BRANCH   8  13
ATOM     13  C   UNL     1       1.362  -2.937  -0.258  0.00  0.00    +0.124 C 
BRANCH  13  17
ATOM      3  O   UNL     1       1.111  -5.146   0.741  0.00  0.00    -0.251 OA
ATOM     17  C   UNL     1       1.732  -4.365   0.036  0.00  0.00    +0.305 C 
BRANCH  17   2
ATOM      2  O   UNL     1       2.885  -4.681  -0.608  0.00  0.00    -0.481 OA
ATOM     30  H   UNL     1       3.156  -5.608  -0.438  0.00  0.00    +0.295 HD
ENDBRANCH  17   2
ENDBRANCH  13  17
ENDBRANCH   8  13
TORSDOF 6
