REMARK  Name = 75536806
REMARK  7 active torsions:
REMARK  status: ('A' for Active; 'I' for Inactive)
REMARK    1  A    between atoms: O_2  and  C_9
REMARK    2  A    between atoms: N_4  and  C_7
REMARK    3  A    between atoms: N_4  and  C_8
REMARK    4  A    between atoms: N_5  and  C_17
REMARK    5  A    between atoms: N_6  and  C_16
REMARK    6  A    between atoms: C_10  and  C_16
REMARK    7  A    between atoms: C_18  and  C_19
REMARK                            x       y       z     vdW  Elec       q    Type
REMARK                         _______ _______ _______ _____ _____    ______ ____
ROOT
ATOM      1  O   UNL     1       1.785   1.267   0.403  0.00  0.00    -0.371 OA
ATOM      7  C   UNL     1      -0.141   0.060  -0.286  0.00  0.00    +0.111 C 
ATOM      9  C   UNL     1       1.055  -0.419  -1.087  0.00  0.00    +0.164 C 
ATOM     10  C   UNL     1       2.204   0.028  -0.193  0.00  0.00    +0.165 C 
ATOM     13  C   UNL     1       0.362   1.395   0.237  0.00  0.00    +0.181 C 
ENDROOT
BRANCH   9   2
ATOM      2  O   UNL     1       1.055  -1.820  -1.284  0.00  0.00    -0.388 OA
ATOM     21  H   UNL     1       1.012  -2.251  -0.414  0.00  0.00    +0.210 HD
ENDBRANCH   9   2
BRANCH   7   4
ATOM      4  N   UNL     1      -1.358   0.183  -1.073  0.00  0.00    -0.306 NA
ATOM     20  H   UNL     1      -1.465  -0.625  -1.685  0.00  0.00    +0.123 HD
BRANCH   4   8
ATOM      5  N   UNL     1      -5.321  -0.346   0.370  0.00  0.00    -0.305 NA
ATOM      8  C   UNL     1      -2.527   0.307  -0.204  0.00  0.00    +0.056 C 
ATOM     11  C   UNL     1      -3.691   0.974  -0.944  0.00  0.00    +0.034 C 
ATOM     12  C   UNL     1      -2.955  -1.071   0.308  0.00  0.00    +0.034 C 
ATOM     14  C   UNL     1      -4.949   1.005  -0.072  0.00  0.00    +0.085 C 
ATOM     15  C   UNL     1      -4.237  -0.973   1.139  0.00  0.00    +0.085 C 
ATOM     17  C   UNL     1      -6.552  -0.305   1.159  0.00  0.00    +0.104 C 
ENDBRANCH   4   8
ENDBRANCH   7   4
BRANCH  10  16
ATOM     16  C   UNL     1       3.506   0.235  -0.947  0.00  0.00    +0.138 C 
BRANCH  16   6
ATOM      3  O   UNL     1       5.368  -1.446   0.514  0.00  0.00    -0.276 OA
ATOM      6  N   UNL     1       4.556   0.659  -0.067  0.00  0.00    -0.313 N 
ATOM     18  C   UNL     1       5.406  -0.221   0.594  0.00  0.00    +0.210 C 
ATOM     19  C   UNL     1       6.434   0.488   1.434  0.00  0.00    +0.109 C 
ATOM     22  H   UNL     1       4.677   1.657   0.076  0.00  0.00    +0.149 HD
ENDBRANCH  16   6
ENDBRANCH  10  16
TORSDOF 5
