REMARK  Name = 75536874
REMARK  6 active torsions:
REMARK  status: ('A' for Active; 'I' for Inactive)
REMARK    1  A    between atoms: O_5  and  C_9
REMARK    2  A    between atoms: O_5  and  C_15
REMARK    3  A    between atoms: N_8  and  C_16
REMARK    4  A    between atoms: C_16  and  C_17
REMARK    5  A    between atoms: C_17  and  C_23
REMARK    6  A    between atoms: C_20  and  C_24
REMARK                            x       y       z     vdW  Elec       q    Type
REMARK                         _______ _______ _______ _____ _____    ______ ____
ROOT
ATOM      4  O   UNL     1      -2.281   2.816   1.557  0.00  0.00    -0.375 OA
ATOM      6  O   UNL     1      -2.253  -1.265  -1.694  0.00  0.00    -0.253 OA
ATOM      7  N   UNL     1      -2.895   0.649  -0.526  0.00  0.00    -0.280 N 
ATOM      8  N   UNL     1      -4.049  -1.402  -0.261  0.00  0.00    -0.299 N 
ATOM      9  C   UNL     1      -0.743   1.815  -0.086  0.00  0.00    +0.216 C 
ATOM     10  C   UNL     1      -1.809   1.438  -1.115  0.00  0.00    +0.156 C 
ATOM     11  C   UNL     1      -3.801   1.296   0.436  0.00  0.00    +0.137 C 
ATOM     12  C   UNL     1      -1.127   3.029   0.756  0.00  0.00    +0.206 C 
ATOM     13  C   UNL     1      -3.490   2.740   0.808  0.00  0.00    +0.179 C 
ATOM     14  C   UNL     1      -3.010  -0.716  -0.887  0.00  0.00    +0.302 C 
ATOM     25  H   UNL     1      -4.664  -0.922   0.385  0.00  0.00    +0.150 HD
ENDROOT
BRANCH   9   5
ATOM      5  O   UNL     1       0.459   2.117  -0.793  0.00  0.00    -0.485 OA
BRANCH   5  15
ATOM     15  C   UNL     1       1.540   1.322  -0.529  0.00  0.00    +0.121 A 
ATOM     18  C   UNL     1       2.711   1.883  -0.019  0.00  0.00    +0.046 A 
ATOM     19  C   UNL     1       1.473  -0.051  -0.771  0.00  0.00    +0.046 A 
ATOM     20  C   UNL     1       3.746  -0.299   0.007  0.00  0.00    +0.055 A 
ATOM     21  C   UNL     1       3.814   1.073   0.249  0.00  0.00    +0.016 A 
ATOM     22  C   UNL     1       2.576  -0.861  -0.503  0.00  0.00    +0.016 A 
BRANCH  20  24
ATOM      1  F   UNL     1       5.401  -1.825  -0.805  0.00  0.00    -0.166 F 
ATOM      2  F   UNL     1       4.675  -2.145   1.214  0.00  0.00    -0.166 F 
ATOM      3  F   UNL     1       5.987  -0.464   0.786  0.00  0.00    -0.166 F 
ATOM     24  C   UNL     1       4.925  -1.166   0.294  0.00  0.00    +0.417 C 
ENDBRANCH  20  24
ENDBRANCH   5  15
ENDBRANCH   9   5
BRANCH   8  16
ATOM     16  C   UNL     1      -4.331  -2.801  -0.497  0.00  0.00    +0.105 C 
BRANCH  16  17
ATOM     17  C   UNL     1      -3.577  -3.715   0.462  0.00  0.00    +0.015 C 
ATOM     23  C   UNL     1      -3.940  -3.467   1.919  0.00  0.00    +0.005 C 
ENDBRANCH  16  17
ENDBRANCH   8  16
TORSDOF 5
