REMARK  Name = 75536671
REMARK  9 active torsions:
REMARK  status: ('A' for Active; 'I' for Inactive)
REMARK    1  A    between atoms: S_1  and  N_7
REMARK    2  A    between atoms: S_1  and  C_16
REMARK    3  A    between atoms: O_3  and  C_10
REMARK    4  A    between atoms: N_6  and  C_9
REMARK    5  A    between atoms: N_6  and  C_14
REMARK    6  A    between atoms: N_7  and  C_13
REMARK    7  A    between atoms: C_11  and  C_13
REMARK    8  A    between atoms: C_14  and  C_15
REMARK    9  A    between atoms: C_19  and  C_22
REMARK                            x       y       z     vdW  Elec       q    Type
REMARK                         _______ _______ _______ _____ _____    ______ ____
ROOT
ATOM      2  O   UNL     1       2.275   0.008   1.266  0.00  0.00    -0.371 OA
ATOM      9  C   UNL     1       0.295  -1.042   0.478  0.00  0.00    +0.111 C 
ATOM     10  C   UNL     1       1.367  -1.139  -0.592  0.00  0.00    +0.164 C 
ATOM     11  C   UNL     1       2.627  -0.930   0.235  0.00  0.00    +0.164 C 
ATOM     12  C   UNL     1       0.841   0.079   1.349  0.00  0.00    +0.181 C 
ENDROOT
BRANCH  10   3
ATOM      3  O   UNL     1       1.369  -2.391  -1.250  0.00  0.00    -0.388 OA
ATOM     24  H   UNL     1       1.472  -3.088  -0.580  0.00  0.00    +0.210 HD
ENDBRANCH  10   3
BRANCH   9   6
ATOM      6  N   UNL     1      -1.030  -0.756  -0.047  0.00  0.00    -0.305 NA
ATOM     23  H   UNL     1      -1.205  -1.356  -0.854  0.00  0.00    +0.123 HD
BRANCH   6  14
ATOM     14  C   UNL     1      -2.058  -1.005   0.957  0.00  0.00    +0.116 C 
BRANCH  14  15
ATOM     15  C   UNL     1      -3.437  -0.699   0.435  0.00  0.00    -0.032 A 
ATOM     17  C   UNL     1      -3.862   0.625   0.320  0.00  0.00    +0.023 A 
ATOM     18  C   UNL     1      -4.289  -1.740   0.067  0.00  0.00    +0.005 A 
ATOM     19  C   UNL     1      -5.139   0.907  -0.165  0.00  0.00    +0.052 A 
ATOM     20  C   UNL     1      -5.566  -1.457  -0.418  0.00  0.00    +0.002 A 
ATOM     21  C   UNL     1      -5.991  -0.134  -0.533  0.00  0.00    +0.019 A 
BRANCH  19  22
ATOM      8  N   UNL     1      -5.930   3.364  -0.382  0.00  0.00    -0.191 NA
ATOM     22  C   UNL     1      -5.575   2.263  -0.284  0.00  0.00    +0.099 C 
ENDBRANCH  19  22
ENDBRANCH  14  15
ENDBRANCH   6  14
ENDBRANCH   9   6
BRANCH  11  13
ATOM     13  C   UNL     1       3.793  -0.389  -0.574  0.00  0.00    +0.139 C 
BRANCH  13   7
ATOM      7  N   UNL     1       4.968  -0.217   0.304  0.00  0.00    -0.192 NA
ATOM     25  H   UNL     1       5.346  -1.106   0.657  0.00  0.00    +0.148 HD
BRANCH   7   1
ATOM      1  S   UNL     1       6.110   0.995  -0.064  0.00  0.00    +0.027 S 
ATOM      4  O   UNL     1       7.310   0.797   0.724  0.00  0.00    -0.158 OA
ATOM      5  O   UNL     1       5.432   2.277  -0.073  0.00  0.00    -0.158 OA
ATOM     16  C   UNL     1       6.489   0.585  -1.752  0.00  0.00    +0.214 C 
ENDBRANCH   7   1
ENDBRANCH  13   7
ENDBRANCH  11  13
TORSDOF 8
