REMARK  Name = 45783592
REMARK  7 active torsions:
REMARK  status: ('A' for Active; 'I' for Inactive)
REMARK    1  A    between atoms: O_1  and  C_14
REMARK    2  A    between atoms: O_1  and  C_27
REMARK    3  A    between atoms: N_3  and  C_12
REMARK    4  A    between atoms: N_4  and  C_28
REMARK    5  A    between atoms: C_8  and  C_13
REMARK    6  A    between atoms: C_12  and  C_17
REMARK    7  A    between atoms: C_24  and  C_29
REMARK                            x       y       z     vdW  Elec       q    Type
REMARK                         _______ _______ _______ _____ _____    ______ ____
ROOT
ATOM      2  O   UNL     1       3.006  -2.395  -1.104  0.00  0.00    -0.336 OA
ATOM      5  N   UNL     1       1.739  -1.197   0.302  0.00  0.00    -0.190 NA
ATOM      6  N   UNL     1       1.680  -2.591  -1.512  0.00  0.00    -0.056 NA
ATOM     13  C   UNL     1       2.951  -1.563  -0.031  0.00  0.00    +0.245 A 
ATOM     24  C   UNL     1       0.993  -1.852  -0.635  0.00  0.00    +0.204 A 
ENDROOT
BRANCH  24  29
ATOM      7  N   UNL     1      -2.463  -0.839   0.286  0.00  0.00    -0.221 NA
ATOM     27  C   UNL     1      -3.154  -1.508  -0.663  0.00  0.00    +0.215 A 
ATOM     29  C   UNL     1      -0.436  -1.749  -0.666  0.00  0.00    +0.041 A 
ATOM     32  C   UNL     1      -2.567  -2.306  -1.633  0.00  0.00    +0.068 A 
ATOM     33  C   UNL     1      -1.181  -2.423  -1.627  0.00  0.00    +0.018 A 
ATOM     34  C   UNL     1      -1.118  -0.977   0.260  0.00  0.00    +0.126 A 
BRANCH  27   1
ATOM      1  O   UNL     1      -4.517  -1.377  -0.647  0.00  0.00    -0.473 OA
BRANCH   1  14
ATOM     14  C   UNL     1      -5.068  -0.546   0.369  0.00  0.00    +0.175 C 
ATOM     15  C   UNL     1      -5.131   0.898  -0.126  0.00  0.00    +0.044 C 
ATOM     16  C   UNL     1      -6.449  -1.067   0.764  0.00  0.00    +0.044 C 
ATOM     18  C   UNL     1      -5.805   1.812   0.892  0.00  0.00    +0.004 C 
ATOM     19  C   UNL     1      -7.123  -0.153   1.782  0.00  0.00    +0.004 C 
ATOM     20  C   UNL     1      -7.184   1.291   1.288  0.00  0.00    +0.000 C 
ENDBRANCH   1  14
ENDBRANCH  27   1
ENDBRANCH  24  29
BRANCH  13   8
ATOM      3  N   UNL     1       4.233   0.122   1.275  0.00  0.00    -0.287 NA
ATOM      8  C   UNL     1       4.274  -1.192   0.604  0.00  0.00    +0.146 C 
ATOM      9  C   UNL     1       4.704  -2.180   1.704  0.00  0.00    +0.030 C 
ATOM     10  C   UNL     1       5.201   0.058   2.370  0.00  0.00    +0.085 C 
ATOM     11  C   UNL     1       4.940  -1.322   2.939  0.00  0.00    +0.017 C 
BRANCH   3  12
ATOM     12  C   UNL     1       4.498   1.236   0.374  0.00  0.00    +0.122 C 
BRANCH  12  17
ATOM      4  N   UNL     1       1.941   1.992  -2.163  0.00  0.00    -0.349 N 
ATOM     17  C   UNL     1       3.284   1.601  -0.439  0.00  0.00    -0.008 A 
ATOM     21  C   UNL     1       2.015   2.001   0.067  0.00  0.00    +0.004 A 
ATOM     22  C   UNL     1       3.207   1.605  -1.812  0.00  0.00    +0.091 A 
ATOM     23  C   UNL     1       1.192   2.240  -1.035  0.00  0.00    +0.049 A 
ATOM     25  C   UNL     1       1.487   2.184   1.361  0.00  0.00    +0.010 A 
ATOM     26  C   UNL     1      -0.139   2.654  -0.908  0.00  0.00    +0.026 A 
ATOM     28  C   UNL     1       1.475   2.116  -3.527  0.00  0.00    +0.149 C 
ATOM     30  C   UNL     1       0.158   2.598   1.503  0.00  0.00    +0.001 A 
ATOM     31  C   UNL     1      -0.641   2.829   0.385  0.00  0.00    +0.002 A 
ENDBRANCH  12  17
ENDBRANCH   3  12
ENDBRANCH  13   8
TORSDOF 6
