REMARK  Name = 45361389
REMARK  10 active torsions:
REMARK  status: ('A' for Active; 'I' for Inactive)
REMARK    1  A    between atoms: O_1  and  C_10
REMARK    2  A    between atoms: O_4  and  C_33
REMARK    3  A    between atoms: O_4  and  C_34
REMARK    4  A    between atoms: N_5  and  C_14
REMARK    5  A    between atoms: C_7  and  C_17
REMARK    6  A    between atoms: C_9  and  C_19
REMARK    7  A    between atoms: C_12  and  C_18
REMARK    8  A    between atoms: C_18  and  C_20
REMARK    9  A    between atoms: C_18  and  C_21
REMARK   10  A    between atoms: C_22  and  C_25
REMARK                            x       y       z     vdW  Elec       q    Type
REMARK                         _______ _______ _______ _____ _____    ______ ____
ROOT
ATOM      7  C   UNL     1       0.886  -1.591   0.986  0.00  0.00    -0.027 C 
ATOM      8  C   UNL     1       0.764  -0.317   0.086  0.00  0.00    +0.028 C 
ATOM      9  C   UNL     1      -0.702  -0.153  -0.456  0.00  0.00    +0.012 C 
ATOM     10  C   UNL     1       1.883  -0.281  -0.994  0.00  0.00    +0.122 C 
ATOM     11  C   UNL     1       2.307  -1.660   1.593  0.00  0.00    +0.007 C 
ATOM     12  C   UNL     1       3.297  -0.454  -0.391  0.00  0.00    +0.029 C 
ATOM     13  C   UNL     1      -0.120  -1.480   2.155  0.00  0.00    +0.009 C 
ATOM     14  C   UNL     1      -1.712  -0.119   0.725  0.00  0.00    +0.076 C 
ATOM     15  C   UNL     1       3.404  -1.664   0.537  0.00  0.00    +0.007 C 
ATOM     16  C   UNL     1      -1.558  -1.293   1.691  0.00  0.00    +0.023 C 
ATOM     17  C   UNL     1       0.615  -2.901   0.203  0.00  0.00    +0.011 C 
ATOM     19  C   UNL     1      -0.900   1.098  -1.328  0.00  0.00    +0.010 C 
ENDROOT
BRANCH  14   5
ATOM      3  O   UNL     1      -3.931   1.169   2.013  0.00  0.00    -0.270 OA
ATOM      5  N   UNL     1      -3.082  -0.086   0.258  0.00  0.00    -0.308 N 
ATOM     22  C   UNL     1      -4.086   0.565   0.955  0.00  0.00    +0.244 C 
ATOM     35  H   UNL     1      -3.305  -0.660  -0.548  0.00  0.00    +0.149 HD
BRANCH  22  25
ATOM     25  C   UNL     1      -5.443   0.484   0.357  0.00  0.00    +0.037 A 
ATOM     29  C   UNL     1      -6.571   0.577   1.172  0.00  0.00    +0.016 A 
ATOM     30  C   UNL     1      -5.590   0.313  -1.020  0.00  0.00    +0.016 A 
ATOM     31  C   UNL     1      -7.846   0.499   0.612  0.00  0.00    +0.046 A 
ATOM     32  C   UNL     1      -6.865   0.235  -1.581  0.00  0.00    +0.046 A 
ATOM     33  C   UNL     1      -7.993   0.328  -0.765  0.00  0.00    +0.120 A 
BRANCH  33   4
ATOM      4  O   UNL     1      -9.236   0.252  -1.313  0.00  0.00    -0.495 OA
ATOM     34  C   UNL     1     -10.346   0.355  -0.421  0.00  0.00    +0.277 C 
ENDBRANCH  33   4
ENDBRANCH  22  25
ENDBRANCH  14   5
BRANCH  10   1
ATOM      1  O   UNL     1       1.873   0.988  -1.650  0.00  0.00    -0.391 OA
ATOM     36  H   UNL     1       2.033   1.675  -0.981  0.00  0.00    +0.210 HD
ENDBRANCH  10   1
BRANCH  12  18
ATOM     18  C   UNL     1       4.373  -0.547  -1.480  0.00  0.00    +0.078 C 
ATOM     20  C   UNL     1       4.138  -1.746  -2.381  0.00  0.00    +0.017 C 
BRANCH  18  21
ATOM      2  O   UNL     1       6.192  -1.770  -0.581  0.00  0.00    -0.275 OA
ATOM      6  N   UNL     1       6.362   0.546  -0.505  0.00  0.00    -0.301 N 
ATOM     21  C   UNL     1       5.722  -0.654  -0.817  0.00  0.00    +0.219 C 
ATOM     23  C   UNL     1       5.849   1.887  -0.812  0.00  0.00    +0.108 C 
ATOM     24  C   UNL     1       7.675   0.525   0.143  0.00  0.00    +0.108 C 
ATOM     26  C   UNL     1       5.808   2.752   0.446  0.00  0.00    +0.019 C 
ATOM     27  C   UNL     1       7.668   1.363   1.419  0.00  0.00    +0.019 C 
ATOM     28  C   UNL     1       7.165   2.779   1.146  0.00  0.00    +0.003 C 
ENDBRANCH  18  21
ENDBRANCH  12  18
TORSDOF 6
