REMARK  Name = 7144230
REMARK  8 active torsions:
REMARK  status: ('A' for Active; 'I' for Inactive)
REMARK    1  A    between atoms: S_1  and  C_22
REMARK    2  A    between atoms: S_1  and  C_28
REMARK    3  A    between atoms: S_2  and  C_27
REMARK    4  A    between atoms: S_2  and  C_30
REMARK    5  A    between atoms: O_5  and  C_29
REMARK    6  A    between atoms: C_16  and  C_21
REMARK    7  A    between atoms: C_18  and  C_22
REMARK    8  A    between atoms: C_28  and  C_29
REMARK                            x       y       z     vdW  Elec       q    Type
REMARK                         _______ _______ _______ _____ _____    ______ ____
ROOT
ATOM      3  O   UNL     1      -3.266   2.113   2.496  0.00  0.00    -0.268 OA
ATOM      4  O   UNL     1      -3.687  -1.494  -1.320  0.00  0.00    -0.275 OA
ATOM      7  N   UNL     1      -1.958  -0.023  -1.818  0.00  0.00    -0.300 N 
ATOM      8  N   UNL     1      -1.783   1.924   0.693  0.00  0.00    -0.311 N 
ATOM      9  C   UNL     1      -2.531   2.398  -1.713  0.00  0.00    +0.027 C 
ATOM     10  C   UNL     1      -0.225   1.676  -1.265  0.00  0.00    +0.054 C 
ATOM     11  C   UNL     1      -1.071   2.752  -1.944  0.00  0.00    +0.018 C 
ATOM     12  C   UNL     1      -2.860   1.019  -2.308  0.00  0.00    +0.113 C 
ATOM     13  C   UNL     1      -2.813   2.455  -0.211  0.00  0.00    +0.130 C 
ATOM     14  C   UNL     1      -0.529   0.304  -1.904  0.00  0.00    +0.117 C 
ATOM     15  C   UNL     1      -0.481   1.625   0.244  0.00  0.00    +0.034 A 
ATOM     16  C   UNL     1       0.481   1.282   1.140  0.00  0.00    +0.002 A 
ATOM     17  C   UNL     1      -2.149   1.850   2.049  0.00  0.00    +0.252 A 
ATOM     18  C   UNL     1      -2.481  -1.241  -1.383  0.00  0.00    +0.225 C 
ATOM     19  C   UNL     1       0.139   1.192   2.547  0.00  0.00    +0.015 A 
ATOM     20  C   UNL     1      -1.091   1.439   2.998  0.00  0.00    +0.071 A 
ENDROOT
BRANCH  16  21
ATOM     21  C   UNL     1       1.866   0.978   0.718  0.00  0.00    -0.016 A 
ATOM     23  C   UNL     1       2.212  -0.325   0.374  0.00  0.00    +0.009 A 
ATOM     24  C   UNL     1       2.812   1.997   0.669  0.00  0.00    +0.009 A 
ATOM     25  C   UNL     1       3.519  -0.612  -0.023  0.00  0.00    +0.015 A 
ATOM     26  C   UNL     1       4.118   1.710   0.272  0.00  0.00    +0.015 A 
ATOM     27  C   UNL     1       4.471   0.406  -0.074  0.00  0.00    +0.008 A 
BRANCH  27   2
ATOM      2  S   UNL     1       6.140   0.039  -0.580  0.00  0.00    -0.129 S 
ATOM     30  C   UNL     1       5.884  -0.608  -2.256  0.00  0.00    +0.090 C 
ENDBRANCH  27   2
ENDBRANCH  16  21
BRANCH  18  22
ATOM     22  C   UNL     1      -1.485  -2.292  -0.962  0.00  0.00    +0.165 C 
BRANCH  22   1
ATOM      1  S   UNL     1      -2.409  -3.745  -0.443  0.00  0.00    -0.140 S 
BRANCH   1  28
ATOM     28  C   UNL     1      -1.019  -4.817  -0.002  0.00  0.00    +0.189 C 
BRANCH  28  29
ATOM      6  O   UNL     1      -0.665  -3.874   2.187  0.00  0.00    -0.250 OA
ATOM     29  C   UNL     1      -0.215  -4.169   1.087  0.00  0.00    +0.315 C 
BRANCH  29   5
ATOM      5  O   UNL     1       1.077  -3.958   0.730  0.00  0.00    -0.480 OA
ATOM     31  H   UNL     1       1.593  -3.539   1.452  0.00  0.00    +0.295 HD
ENDBRANCH  29   5
ENDBRANCH  28  29
ENDBRANCH   1  28
ENDBRANCH  22   1
ENDBRANCH  18  22
TORSDOF 7
