REMARK  Name = 11912162
REMARK  3 active torsions:
REMARK  status: ('A' for Active; 'I' for Inactive)
REMARK    1  A    between atoms: C_17  and  C_20
REMARK    2  A    between atoms: C_18  and  C_21
REMARK    3  A    between atoms: C_25  and  C_30
REMARK                            x       y       z     vdW  Elec       q    Type
REMARK                         _______ _______ _______ _____ _____    ______ ____
ROOT
ATOM      1  O   UNL     1      -1.131   2.037  -1.521  0.00  0.00    -0.267 OA
ATOM      2  O   UNL     1       2.676  -1.109  -2.434  0.00  0.00    -0.268 OA
ATOM      3  N   UNL     1       3.337   0.120  -0.584  0.00  0.00    -0.295 N 
ATOM      4  N   UNL     1       0.748   1.869  -0.147  0.00  0.00    -0.311 N 
ATOM      8  C   UNL     1       3.087   2.571  -0.922  0.00  0.00    +0.027 C 
ATOM      9  C   UNL     1       2.777   1.608   1.323  0.00  0.00    +0.054 C 
ATOM     10  C   UNL     1       3.356   2.800   0.562  0.00  0.00    +0.018 C 
ATOM     11  C   UNL     1       3.756   1.266  -1.393  0.00  0.00    +0.113 C 
ATOM     12  C   UNL     1       1.570   2.560  -1.151  0.00  0.00    +0.130 C 
ATOM     13  C   UNL     1       3.482   0.312   0.870  0.00  0.00    +0.117 C 
ATOM     14  C   UNL     1       1.284   1.482   1.085  0.00  0.00    +0.027 A 
ATOM     15  C   UNL     1       0.491   0.956   2.033  0.00  0.00    +0.022 A 
ATOM     16  C   UNL     1      -0.618   1.703  -0.451  0.00  0.00    +0.259 A 
ATOM     17  C   UNL     1       2.769  -1.006  -1.210  0.00  0.00    +0.266 C 
ATOM     18  C   UNL     1      -1.470   1.081   0.621  0.00  0.00    +0.047 A 
ATOM     19  C   UNL     1      -0.910   0.754   1.794  0.00  0.00    +0.015 A 
ENDROOT
BRANCH  17  20
ATOM      5  N   UNL     1       0.967  -1.952   0.021  0.00  0.00    -0.247 NA
ATOM      6  N   UNL     1       2.594  -4.076   0.864  0.00  0.00    -0.259 NA
ATOM     20  C   UNL     1       2.256  -2.059  -0.346  0.00  0.00    +0.144 A 
ATOM     24  C   UNL     1       3.058  -3.096   0.064  0.00  0.00    +0.143 A 
ATOM     27  C   UNL     1       0.503  -2.932   0.821  0.00  0.00    +0.131 A 
ATOM     29  C   UNL     1       1.302  -3.975   1.236  0.00  0.00    +0.130 A 
ENDBRANCH  17  20
BRANCH  18  21
ATOM     21  C   UNL     1      -2.862   0.850   0.401  0.00  0.00    -0.011 A 
ATOM     22  C   UNL     1      -3.293  -0.364  -0.135  0.00  0.00    +0.027 A 
ATOM     23  C   UNL     1      -3.791   1.840   0.721  0.00  0.00    +0.009 A 
ATOM     25  C   UNL     1      -4.653  -0.587  -0.350  0.00  0.00    +0.052 A 
ATOM     26  C   UNL     1      -5.151   1.616   0.505  0.00  0.00    +0.002 A 
ATOM     28  C   UNL     1      -5.582   0.403  -0.030  0.00  0.00    +0.019 A 
BRANCH  25  30
ATOM      7  N   UNL     1      -5.455  -2.841  -1.345  0.00  0.00    -0.191 NA
ATOM     30  C   UNL     1      -5.095  -1.831  -0.899  0.00  0.00    +0.099 C 
ENDBRANCH  25  30
ENDBRANCH  18  21
TORSDOF 3
