REMARK  Name = 75536934
REMARK  5 active torsions:
REMARK  status: ('A' for Active; 'I' for Inactive)
REMARK    1  A    between atoms: O_2  and  C_9
REMARK    2  A    between atoms: O_2  and  C_17
REMARK    3  A    between atoms: N_3  and  C_11
REMARK    4  A    between atoms: N_4  and  C_18
REMARK    5  A    between atoms: C_11  and  C_14
REMARK                            x       y       z     vdW  Elec       q    Type
REMARK                         _______ _______ _______ _____ _____    ______ ____
ROOT
ATOM      1  O   UNL     1       3.594   1.057  -1.163  0.00  0.00    -0.375 OA
ATOM      3  N   UNL     1       2.055  -0.934   0.234  0.00  0.00    -0.292 NA
ATOM      8  C   UNL     1       1.472   0.273   0.817  0.00  0.00    +0.131 C 
ATOM      9  C   UNL     1       1.330   1.379  -0.237  0.00  0.00    +0.215 C 
ATOM     10  C   UNL     1       3.522  -0.955   0.220  0.00  0.00    +0.113 C 
ATOM     12  C   UNL     1       2.638   2.008  -0.709  0.00  0.00    +0.205 C 
ATOM     13  C   UNL     1       4.221   0.368  -0.088  0.00  0.00    +0.175 C 
ENDROOT
BRANCH   9   2
ATOM      2  O   UNL     1       0.505   2.407   0.312  0.00  0.00    -0.468 OA
BRANCH   2  17
ATOM      6  N   UNL     1      -1.283   1.162  -0.499  0.00  0.00    -0.219 NA
ATOM      7  N   UNL     1      -3.048   3.089   0.519  0.00  0.00    -0.256 NA
ATOM     17  C   UNL     1      -0.845   2.256   0.154  0.00  0.00    +0.234 A 
ATOM     19  C   UNL     1      -1.712   3.203   0.654  0.00  0.00    +0.177 A 
ATOM     20  C   UNL     1      -2.619   1.048  -0.634  0.00  0.00    +0.134 A 
ATOM     21  C   UNL     1      -3.486   1.995  -0.134  0.00  0.00    +0.130 A 
ENDBRANCH   2  17
ENDBRANCH   9   2
BRANCH   3  11
ATOM     11  C   UNL     1       1.545  -2.143   0.882  0.00  0.00    +0.122 C 
BRANCH  11  14
ATOM      4  N   UNL     1      -1.744  -2.819  -0.570  0.00  0.00    -0.274 N 
ATOM      5  N   UNL     1      -2.136  -2.772   0.715  0.00  0.00    -0.180 NA
ATOM     14  C   UNL     1       0.111  -2.415   0.510  0.00  0.00    +0.004 A 
ATOM     15  C   UNL     1      -0.407  -2.612  -0.747  0.00  0.00    +0.112 A 
ATOM     16  C   UNL     1      -0.998  -2.525   1.370  0.00  0.00    +0.139 A 
ATOM     18  C   UNL     1      -2.715  -3.071  -1.607  0.00  0.00    +0.172 C 
ENDBRANCH  11  14
ENDBRANCH   3  11
TORSDOF 4
