REMARK  Name = 11885248
REMARK  10 active torsions:
REMARK  status: ('A' for Active; 'I' for Inactive)
REMARK    1  A    between atoms: S_1  and  C_21
REMARK    2  A    between atoms: S_1  and  C_28
REMARK    3  A    between atoms: O_4  and  C_32
REMARK    4  A    between atoms: N_8  and  C_25
REMARK    5  A    between atoms: N_8  and  C_30
REMARK    6  A    between atoms: N_8  and  C_31
REMARK    7  A    between atoms: C_18  and  C_21
REMARK    8  A    between atoms: C_19  and  C_22
REMARK    9  A    between atoms: C_23  and  C_25
REMARK   10  A    between atoms: C_28  and  C_32
REMARK                            x       y       z     vdW  Elec       q    Type
REMARK                         _______ _______ _______ _____ _____    ______ ____
ROOT
ATOM      2  O   UNL     1       1.155   1.379   1.618  0.00  0.00    -0.267 OA
ATOM      3  O   UNL     1      -3.996   0.198   2.437  0.00  0.00    -0.275 OA
ATOM      6  N   UNL     1      -3.706   1.221   0.371  0.00  0.00    -0.300 N 
ATOM      7  N   UNL     1      -0.559   1.663   0.062  0.00  0.00    -0.311 N 
ATOM      9  C   UNL     1      -2.438   3.373   0.381  0.00  0.00    +0.027 C 
ATOM     10  C   UNL     1      -2.409   1.949  -1.623  0.00  0.00    +0.054 C 
ATOM     11  C   UNL     1      -2.487   3.396  -1.142  0.00  0.00    +0.018 C 
ATOM     12  C   UNL     1      -3.619   2.565   0.946  0.00  0.00    +0.113 C 
ATOM     13  C   UNL     1      -1.085   2.804   0.824  0.00  0.00    +0.130 C 
ATOM     14  C   UNL     1      -3.626   1.163  -1.096  0.00  0.00    +0.117 C 
ATOM     15  C   UNL     1      -1.127   1.285  -1.157  0.00  0.00    +0.027 A 
ATOM     16  C   UNL     1      -0.557   0.319  -1.894  0.00  0.00    +0.022 A 
ATOM     17  C   UNL     1       0.605   1.050   0.565  0.00  0.00    +0.259 A 
ATOM     18  C   UNL     1      -3.932   0.127   1.207  0.00  0.00    +0.225 C 
ATOM     19  C   UNL     1       1.200  -0.055  -0.267  0.00  0.00    +0.047 A 
ATOM     20  C   UNL     1       0.620  -0.362  -1.437  0.00  0.00    +0.015 A 
ENDROOT
BRANCH  19  22
ATOM     22  C   UNL     1       2.389  -0.796   0.187  0.00  0.00    -0.008 A 
ATOM     23  C   UNL     1       3.680  -0.376  -0.143  0.00  0.00    -0.026 A 
ATOM     24  C   UNL     1       2.212  -1.944   0.964  0.00  0.00    +0.009 A 
ATOM     26  C   UNL     1       4.787  -1.099   0.302  0.00  0.00    +0.005 A 
ATOM     27  C   UNL     1       3.319  -2.667   1.408  0.00  0.00    +0.001 A 
ATOM     29  C   UNL     1       4.606  -2.244   1.077  0.00  0.00    +0.000 A 
BRANCH  23  25
ATOM     25  C   UNL     1       3.911   0.846  -0.972  0.00  0.00    +0.119 C 
BRANCH  25   8
ATOM      8  N   UNL     1       4.971   1.693  -0.426  0.00  0.00    -0.304 NA
ATOM     30  C   UNL     1       5.205   2.845  -1.297  0.00  0.00    +0.104 C 
ATOM     31  C   UNL     1       4.627   2.136   0.925  0.00  0.00    +0.104 C 
ENDBRANCH  25   8
ENDBRANCH  23  25
ENDBRANCH  19  22
BRANCH  18  21
ATOM     21  C   UNL     1      -4.097  -1.213   0.536  0.00  0.00    +0.165 C 
BRANCH  21   1
ATOM      1  S   UNL     1      -2.466  -1.959   0.395  0.00  0.00    -0.140 S 
BRANCH   1  28
ATOM     28  C   UNL     1      -2.936  -3.506  -0.417  0.00  0.00    +0.189 C 
BRANCH  28  32
ATOM      5  O   UNL     1      -0.715  -4.310   0.061  0.00  0.00    -0.250 OA
ATOM     32  C   UNL     1      -1.709  -4.338  -0.654  0.00  0.00    +0.315 C 
BRANCH  32   4
ATOM      4  O   UNL     1      -1.822  -5.143  -1.741  0.00  0.00    -0.480 OA
ATOM     33  H   UNL     1      -1.017  -5.685  -1.880  0.00  0.00    +0.295 HD
ENDBRANCH  32   4
ENDBRANCH  28  32
ENDBRANCH   1  28
ENDBRANCH  21   1
ENDBRANCH  18  21
TORSDOF 8
