REMARK  Name = 75536784
REMARK  9 active torsions:
REMARK  status: ('A' for Active; 'I' for Inactive)
REMARK    1  A    between atoms: O_3  and  C_9
REMARK    2  A    between atoms: O_5  and  C_26
REMARK    3  A    between atoms: O_5  and  C_27
REMARK    4  A    between atoms: N_6  and  C_8
REMARK    5  A    between atoms: N_6  and  C_13
REMARK    6  A    between atoms: N_7  and  C_12
REMARK    7  A    between atoms: C_10  and  C_12
REMARK    8  A    between atoms: C_13  and  C_14
REMARK    9  A    between atoms: C_15  and  C_18
REMARK                            x       y       z     vdW  Elec       q    Type
REMARK                         _______ _______ _______ _____ _____    ______ ____
ROOT
ATOM      2  O   UNL     1       0.142   0.713  -0.071  0.00  0.00    -0.371 OA
ATOM      8  C   UNL     1      -1.965  -0.305   0.335  0.00  0.00    +0.111 C 
ATOM      9  C   UNL     1      -1.122  -1.235  -0.518  0.00  0.00    +0.164 C 
ATOM     10  C   UNL     1       0.278  -0.709  -0.231  0.00  0.00    +0.165 C 
ATOM     11  C   UNL     1      -1.248   1.020   0.134  0.00  0.00    +0.181 C 
ENDROOT
BRANCH   9   3
ATOM      3  O   UNL     1      -1.261  -2.592  -0.147  0.00  0.00    -0.388 OA
ATOM     29  H   UNL     1      -1.039  -2.676   0.796  0.00  0.00    +0.210 HD
ENDBRANCH   9   3
BRANCH   8   6
ATOM      6  N   UNL     1      -3.363  -0.258  -0.060  0.00  0.00    -0.305 NA
ATOM     28  H   UNL     1      -3.697  -1.209  -0.215  0.00  0.00    +0.123 HD
BRANCH   6  13
ATOM     13  C   UNL     1      -4.180   0.368   0.973  0.00  0.00    +0.116 C 
BRANCH  13  14
ATOM      1  F   UNL     1      -9.606   0.640  -0.521  0.00  0.00    -0.205 F 
ATOM     14  C   UNL     1      -5.630   0.440   0.574  0.00  0.00    -0.033 A 
ATOM     16  C   UNL     1      -6.494  -0.607   0.892  0.00  0.00    +0.008 A 
ATOM     17  C   UNL     1      -6.109   1.556  -0.113  0.00  0.00    +0.008 A 
ATOM     19  C   UNL     1      -7.838  -0.540   0.522  0.00  0.00    +0.038 A 
ATOM     20  C   UNL     1      -7.452   1.623  -0.483  0.00  0.00    +0.038 A 
ATOM     21  C   UNL     1      -8.316   0.576  -0.165  0.00  0.00    +0.123 A 
ENDBRANCH  13  14
ENDBRANCH   6  13
ENDBRANCH   8   6
BRANCH  10  12
ATOM     12  C   UNL     1       1.271  -1.009  -1.339  0.00  0.00    +0.138 C 
BRANCH  12   7
ATOM      4  O   UNL     1       3.370  -2.380   0.060  0.00  0.00    -0.270 OA
ATOM      7  N   UNL     1       2.573  -0.492  -1.027  0.00  0.00    -0.309 N 
ATOM     15  C   UNL     1       3.532  -1.231  -0.342  0.00  0.00    +0.244 C 
ATOM     30  H   UNL     1       2.746   0.478  -1.269  0.00  0.00    +0.149 HD
BRANCH  15  18
ATOM     18  C   UNL     1       4.822  -0.543  -0.074  0.00  0.00    +0.037 A 
ATOM     22  C   UNL     1       5.596  -0.916   1.025  0.00  0.00    +0.016 A 
ATOM     23  C   UNL     1       5.257   0.477  -0.919  0.00  0.00    +0.016 A 
ATOM     24  C   UNL     1       6.806  -0.270   1.278  0.00  0.00    +0.046 A 
ATOM     25  C   UNL     1       6.467   1.124  -0.666  0.00  0.00    +0.046 A 
ATOM     26  C   UNL     1       7.241   0.750   0.432  0.00  0.00    +0.120 A 
BRANCH  26   5
ATOM      5  O   UNL     1       8.422   1.381   0.679  0.00  0.00    -0.495 OA
ATOM     27  C   UNL     1       8.807   2.416  -0.226  0.00  0.00    +0.277 C 
ENDBRANCH  26   5
ENDBRANCH  15  18
ENDBRANCH  12   7
ENDBRANCH  10  12
TORSDOF 8
