REMARK  Name = 51137233
REMARK  6 active torsions:
REMARK  status: ('A' for Active; 'I' for Inactive)
REMARK    1  A    between atoms: O_3  and  C_24
REMARK    2  A    between atoms: N_5  and  C_12
REMARK    3  A    between atoms: C_8  and  C_13
REMARK    4  A    between atoms: C_12  and  C_14
REMARK    5  A    between atoms: C_17  and  C_20
REMARK    6  A    between atoms: C_21  and  C_24
REMARK                            x       y       z     vdW  Elec       q    Type
REMARK                         _______ _______ _______ _____ _____    ______ ____
ROOT
ATOM      5  N   UNL     1      -1.435  -0.856  -0.280  0.00  0.00    -0.297 NA
ATOM      8  C   UNL     1       0.503  -2.041   0.301  0.00  0.00    +0.092 C 
ATOM      9  C   UNL     1      -0.078  -1.359   1.552  0.00  0.00    +0.029 C 
ATOM     10  C   UNL     1      -0.192  -1.346  -0.878  0.00  0.00    +0.097 C 
ATOM     11  C   UNL     1      -1.039  -0.306   1.016  0.00  0.00    +0.085 C 
ENDROOT
BRANCH   8  13
ATOM      2  O   UNL     1       2.596  -0.776   0.167  0.00  0.00    -0.420 OA
ATOM      6  N   UNL     1       2.868  -2.996   0.139  0.00  0.00    -0.112 NA
ATOM      7  N   UNL     1       4.118  -2.412   0.058  0.00  0.00    -0.107 NA
ATOM     13  C   UNL     1       2.011  -2.005   0.201  0.00  0.00    +0.222 A 
ATOM     17  C   UNL     1       3.911  -1.116   0.077  0.00  0.00    +0.248 A 
BRANCH  17  20
ATOM      1 CL   UNL     1       7.756   3.412  -0.159  0.00  0.00    -0.084 Cl
ATOM     20  C   UNL     1       4.838  -0.023   0.020  0.00  0.00    +0.039 A 
ATOM     22  C   UNL     1       6.207  -0.275  -0.072  0.00  0.00    +0.014 A 
ATOM     23  C   UNL     1       4.372   1.291   0.057  0.00  0.00    +0.014 A 
ATOM     25  C   UNL     1       7.110   0.787  -0.127  0.00  0.00    +0.021 A 
ATOM     26  C   UNL     1       5.274   2.353   0.001  0.00  0.00    +0.021 A 
ATOM     27  C   UNL     1       6.643   2.101  -0.091  0.00  0.00    +0.041 A 
ENDBRANCH  17  20
ENDBRANCH   8  13
BRANCH   5  12
ATOM     12  C   UNL     1      -2.104   0.128  -1.119  0.00  0.00    +0.119 C 
BRANCH  12  14
ATOM     14  C   UNL     1      -3.551   0.299  -0.737  0.00  0.00    -0.033 A 
ATOM     15  C   UNL     1      -4.488  -0.664  -1.110  0.00  0.00    +0.006 A 
ATOM     16  C   UNL     1      -3.953   1.420  -0.011  0.00  0.00    +0.006 A 
ATOM     18  C   UNL     1      -5.828  -0.506  -0.757  0.00  0.00    +0.015 A 
ATOM     19  C   UNL     1      -5.293   1.578   0.342  0.00  0.00    +0.015 A 
ATOM     21  C   UNL     1      -6.231   0.615  -0.031  0.00  0.00    +0.059 A 
BRANCH  21  24
ATOM      4  O   UNL     1      -8.539  -0.007   0.062  0.00  0.00    -0.245 OA
ATOM     24  C   UNL     1      -7.628   0.780   0.338  0.00  0.00    +0.337 C 
BRANCH  24   3
ATOM      3  O   UNL     1      -7.849   1.924   1.042  0.00  0.00    -0.477 OA
ATOM     28  H   UNL     1      -8.794   2.025   1.286  0.00  0.00    +0.295 HD
ENDBRANCH  24   3
ENDBRANCH  21  24
ENDBRANCH  12  14
ENDBRANCH   5  12
TORSDOF 6
