REMARK  Name = 11884036
REMARK  8 active torsions:
REMARK  status: ('A' for Active; 'I' for Inactive)
REMARK    1  A    between atoms: O_3  and  C_14
REMARK    2  A    between atoms: O_3  and  C_18
REMARK    3  A    between atoms: O_6  and  C_30
REMARK    4  A    between atoms: O_6  and  C_32
REMARK    5  A    between atoms: N_7  and  C_13
REMARK    6  A    between atoms: N_8  and  C_19
REMARK    7  A    between atoms: N_9  and  C_20
REMARK    8  A    between atoms: C_25  and  C_31
REMARK                            x       y       z     vdW  Elec       q    Type
REMARK                         _______ _______ _______ _____ _____    ______ ____
ROOT
ATOM      1  O   UNL     1      -1.110  -2.245  -1.397  0.00  0.00    -0.368 OA
ATOM      2  O   UNL     1      -2.190  -3.940   0.919  0.00  0.00    -0.368 OA
ATOM     11  C   UNL     1      -2.418  -2.563   0.555  0.00  0.00    +0.173 C 
ATOM     12  C   UNL     1      -1.105  -2.025   0.024  0.00  0.00    +0.192 C 
ATOM     13  C   UNL     1      -3.348  -2.487  -0.633  0.00  0.00    +0.131 C 
ATOM     14  C   UNL     1      -0.089  -2.898   0.721  0.00  0.00    +0.235 C 
ATOM     15  C   UNL     1      -2.402  -2.725  -1.798  0.00  0.00    +0.185 C 
ATOM     16  C   UNL     1      -0.794  -4.235   0.766  0.00  0.00    +0.207 C 
ENDROOT
BRANCH  13   7
ATOM      4  O   UNL     1      -5.918  -1.755   0.400  0.00  0.00    -0.252 OA
ATOM      7  N   UNL     1      -3.977  -1.192  -0.724  0.00  0.00    -0.292 N 
ATOM      8  N   UNL     1      -5.590   0.417  -0.429  0.00  0.00    -0.269 N 
ATOM     17  C   UNL     1      -5.242  -0.915  -0.190  0.00  0.00    +0.304 C 
ATOM     38  H   UNL     1      -3.452  -0.428  -1.138  0.00  0.00    +0.151 HD
ATOM     39  H   UNL     1      -4.913   0.982  -0.936  0.00  0.00    +0.156 HD
BRANCH   8  19
ATOM     19  C   UNL     1      -6.779   1.085  -0.052  0.00  0.00    +0.036 A 
ATOM     21  C   UNL     1      -6.959   2.429  -0.379  0.00  0.00    +0.042 A 
ATOM     22  C   UNL     1      -7.772   0.398   0.647  0.00  0.00    +0.023 A 
ATOM     25  C   UNL     1      -8.131   3.086  -0.008  0.00  0.00    +0.054 A 
ATOM     26  C   UNL     1      -8.945   1.056   1.018  0.00  0.00    +0.003 A 
ATOM     29  C   UNL     1      -9.124   2.400   0.691  0.00  0.00    +0.019 A 
BRANCH  25  31
ATOM     10  N   UNL     1      -8.466   5.581  -0.614  0.00  0.00    -0.191 NA
ATOM     31  C   UNL     1      -8.316   4.463  -0.342  0.00  0.00    +0.099 C 
ENDBRANCH  25  31
ENDBRANCH   8  19
ENDBRANCH  13   7
BRANCH  14   3
ATOM      3  O   UNL     1       1.147  -2.972   0.047  0.00  0.00    -0.442 OA
BRANCH   3  18
ATOM      5  O   UNL     1       1.944  -1.241   1.310  0.00  0.00    -0.226 OA
ATOM      9  N   UNL     1       3.261  -2.279  -0.323  0.00  0.00    -0.251 N 
ATOM     18  C   UNL     1       2.121  -2.073   0.429  0.00  0.00    +0.405 C 
ATOM     40  H   UNL     1       3.216  -3.026  -1.013  0.00  0.00    +0.158 HD
BRANCH   9  20
ATOM     20  C   UNL     1       4.488  -1.580  -0.254  0.00  0.00    +0.037 A 
ATOM     23  C   UNL     1       5.539  -1.931  -1.101  0.00  0.00    +0.027 A 
ATOM     24  C   UNL     1       4.646  -0.539   0.660  0.00  0.00    +0.027 A 
ATOM     27  C   UNL     1       6.749  -1.240  -1.033  0.00  0.00    +0.048 A 
ATOM     28  C   UNL     1       5.856   0.152   0.728  0.00  0.00    +0.048 A 
ATOM     30  C   UNL     1       6.908  -0.199  -0.119  0.00  0.00    +0.129 A 
BRANCH  30   6
ATOM      6  O   UNL     1       8.089   0.475  -0.053  0.00  0.00    -0.456 OA
BRANCH   6  32
ATOM     32  C   UNL     1       8.038   1.857   0.018  0.00  0.00    +0.128 A 
ATOM     33  C   UNL     1       7.182   2.568  -0.823  0.00  0.00    +0.046 A 
ATOM     34  C   UNL     1       8.844   2.538   0.930  0.00  0.00    +0.046 A 
ATOM     35  C   UNL     1       7.131   3.960  -0.752  0.00  0.00    +0.004 A 
ATOM     36  C   UNL     1       8.794   3.930   1.001  0.00  0.00    +0.004 A 
ATOM     37  C   UNL     1       7.937   4.641   0.160  0.00  0.00    +0.000 A 
ENDBRANCH   6  32
ENDBRANCH  30   6
ENDBRANCH   9  20
ENDBRANCH   3  18
ENDBRANCH  14   3
TORSDOF 8
