REMARK  Name = 51136824
REMARK  5 active torsions:
REMARK  status: ('A' for Active; 'I' for Inactive)
REMARK    1  A    between atoms: N_3  and  C_14
REMARK    2  A    between atoms: C_10  and  C_15
REMARK    3  A    between atoms: C_14  and  C_16
REMARK    4  A    between atoms: C_22  and  C_23
REMARK    5  A    between atoms: C_27  and  C_31
REMARK                            x       y       z     vdW  Elec       q    Type
REMARK                         _______ _______ _______ _____ _____    ______ ____
ROOT
ATOM      1  O   UNL     1      -2.211   1.757  -1.503  0.00  0.00    -0.336 OA
ATOM      6  N   UNL     1      -2.285   0.713   0.478  0.00  0.00    -0.190 NA
ATOM      7  N   UNL     1      -0.891   1.397  -1.202  0.00  0.00    -0.056 NA
ATOM     15  C   UNL     1      -2.966   1.317  -0.462  0.00  0.00    +0.245 A 
ATOM     22  C   UNL     1      -1.016   0.786  -0.021  0.00  0.00    +0.202 A 
ENDROOT
BRANCH  22  23
ATOM      2  O   UNL     1       8.108   1.694  -0.769  0.00  0.00    -0.276 OA
ATOM      4  N   UNL     1       3.715  -0.107   0.324  0.00  0.00    -0.312 N 
ATOM      5  N   UNL     1       6.342   0.191  -0.664  0.00  0.00    -0.299 N 
ATOM      8  N   UNL     1       2.290  -0.822   2.073  0.00  0.00    -0.240 NA
ATOM     17  C   UNL     1       4.715  -1.143   0.615  0.00  0.00    +0.125 C 
ATOM     18  C   UNL     1       4.241   1.242   0.061  0.00  0.00    +0.125 C 
ATOM     19  C   UNL     1       5.801  -1.154  -0.461  0.00  0.00    +0.126 C 
ATOM     20  C   UNL     1       5.331   1.188  -1.007  0.00  0.00    +0.126 C 
ATOM     21  C   UNL     1       2.434  -0.208   0.877  0.00  0.00    +0.122 A 
ATOM     23  C   UNL     1       0.105   0.240   0.689  0.00  0.00    +0.027 A 
ATOM     25  C   UNL     1       1.385   0.334   0.152  0.00  0.00    +0.055 A 
ATOM     27  C   UNL     1       7.684   0.552  -0.574  0.00  0.00    +0.213 C 
ATOM     28  C   UNL     1      -0.083  -0.384   1.917  0.00  0.00    +0.031 A 
ATOM     30  C   UNL     1       1.032  -0.894   2.564  0.00  0.00    +0.113 A 
ATOM     31  C   UNL     1       8.653  -0.545  -0.212  0.00  0.00    +0.109 C 
ENDBRANCH  22  23
BRANCH  15  10
ATOM      3  N   UNL     1      -5.254   0.595   0.198  0.00  0.00    -0.287 NA
ATOM     10  C   UNL     1      -4.454   1.587  -0.547  0.00  0.00    +0.146 C 
ATOM     11  C   UNL     1      -4.848   2.945   0.062  0.00  0.00    +0.030 C 
ATOM     12  C   UNL     1      -5.917   2.622   1.097  0.00  0.00    +0.017 C 
ATOM     13  C   UNL     1      -6.467   1.287   0.636  0.00  0.00    +0.085 C 
BRANCH   3  14
ATOM     14  C   UNL     1      -5.556  -0.601  -0.579  0.00  0.00    +0.121 C 
BRANCH  14  16
ATOM      9  N   UNL     1      -2.807  -2.929   0.586  0.00  0.00    -0.263 NA
ATOM     16  C   UNL     1      -4.390  -1.553  -0.617  0.00  0.00    -0.015 A 
ATOM     24  C   UNL     1      -3.819  -1.939  -1.825  0.00  0.00    +0.008 A 
ATOM     26  C   UNL     1      -3.852  -2.072   0.550  0.00  0.00    +0.115 A 
ATOM     29  C   UNL     1      -2.743  -2.819  -1.829  0.00  0.00    +0.020 A 
ATOM     32  C   UNL     1      -2.278  -3.281  -0.608  0.00  0.00    +0.111 A 
ENDBRANCH  14  16
ENDBRANCH   3  14
ENDBRANCH  15  10
TORSDOF 4
