REMARK  Name = 75536988
REMARK  3 active torsions:
REMARK  status: ('A' for Active; 'I' for Inactive)
REMARK    1  A    between atoms: N_6  and  C_17
REMARK    2  A    between atoms: C_7  and  C_13
REMARK    3  A    between atoms: C_17  and  C_18
REMARK                            x       y       z     vdW  Elec       q    Type
REMARK                         _______ _______ _______ _____ _____    ______ ____
ROOT
ATOM      2  O   UNL     1      -5.187  -0.124  -1.464  0.00  0.00    -0.275 OA
ATOM      3  O   UNL     1       1.044  -2.901  -0.041  0.00  0.00    -0.252 OA
ATOM      4  N   UNL     1      -2.958   0.051  -0.819  0.00  0.00    -0.298 N 
ATOM      5  N   UNL     1      -0.807  -1.460   0.090  0.00  0.00    -0.278 N 
ATOM      6  N   UNL     1       1.063  -0.896   1.200  0.00  0.00    -0.279 N 
ATOM      8  C   UNL     1      -1.167  -0.264   0.832  0.00  0.00    +0.112 C 
ATOM     11  C   UNL     1      -1.881   0.733  -0.078  0.00  0.00    +0.132 C 
ATOM     12  C   UNL     1       0.163   0.226   1.399  0.00  0.00    +0.133 C 
ATOM     13  C   UNL     1      -4.299   0.440  -0.829  0.00  0.00    +0.219 C 
ATOM     14  C   UNL     1      -2.524  -1.112  -1.607  0.00  0.00    +0.127 C 
ATOM     15  C   UNL     1      -1.803  -2.130  -0.727  0.00  0.00    +0.128 C 
ATOM     16  C   UNL     1       0.500  -1.883   0.367  0.00  0.00    +0.306 C 
ENDROOT
BRANCH  13   7
ATOM      7  C   UNL     1      -4.673   1.628  -0.004  0.00  0.00    +0.075 C 
ATOM      9  C   UNL     1      -4.979   1.422   1.441  0.00  0.00    +0.013 C 
ATOM     10  C   UNL     1      -6.080   1.744   0.476  0.00  0.00    +0.013 C 
ENDBRANCH  13   7
BRANCH   6  17
ATOM     17  C   UNL     1       2.420  -0.887   1.702  0.00  0.00    +0.144 C 
BRANCH  17  18
ATOM      1  F   UNL     1       5.901   1.957  -1.688  0.00  0.00    -0.205 F 
ATOM     18  C   UNL     1       3.348  -0.129   0.798  0.00  0.00    -0.030 A 
ATOM     19  C   UNL     1       4.013  -0.791  -0.234  0.00  0.00    +0.008 A 
ATOM     20  C   UNL     1       3.547   1.239   0.990  0.00  0.00    +0.008 A 
ATOM     21  C   UNL     1       4.875  -0.087  -1.074  0.00  0.00    +0.038 A 
ATOM     22  C   UNL     1       4.409   1.943   0.150  0.00  0.00    +0.038 A 
ATOM     23  C   UNL     1       5.074   1.280  -0.881  0.00  0.00    +0.123 A 
ENDBRANCH  17  18
ENDBRANCH   6  17
TORSDOF 3
