REMARK  Name = 44716549
REMARK  17 active torsions:
REMARK  status: ('A' for Active; 'I' for Inactive)
REMARK    1  A    between atoms: O_5  and  C_16
REMARK    2  A    between atoms: O_6  and  C_17
REMARK    3  A    between atoms: O_9  and  C_28
REMARK    4  A    between atoms: O_9  and  C_33
REMARK    5  A    between atoms: O_11  and  C_36
REMARK    6  A    between atoms: O_11  and  C_37
REMARK    7  A    between atoms: N_12  and  C_19
REMARK    8  A    between atoms: C_15  and  C_19
REMARK    9  A    between atoms: C_18  and  C_20
REMARK   10  A    between atoms: C_20  and  C_23
REMARK   11  A    between atoms: C_21  and  C_22
REMARK   12  A    between atoms: C_21  and  C_25
REMARK   13  A    between atoms: C_21  and  C_26
REMARK   14  A    between atoms: C_21  and  C_27
REMARK   15  A    between atoms: C_22  and  C_24
REMARK   16  A    between atoms: C_25  and  C_28
REMARK   17  A    between atoms: C_29  and  C_30
REMARK                            x       y       z     vdW  Elec       q    Type
REMARK                         _______ _______ _______ _____ _____    ______ ____
ROOT
ATOM      4  O   UNL     1       3.384   0.358  -0.576  0.00  0.00    -0.366 OA
ATOM     15  C   UNL     1       4.603  -0.247  -1.065  0.00  0.00    +0.167 C 
ATOM     16  C   UNL     1       5.696   0.805  -0.911  0.00  0.00    +0.176 C 
ATOM     17  C   UNL     1       5.194   1.612   0.268  0.00  0.00    +0.175 C 
ATOM     18  C   UNL     1       3.697   1.637   0.004  0.00  0.00    +0.159 C 
ENDROOT
BRANCH  16   5
ATOM      5  O   UNL     1       5.709   1.607  -2.091  0.00  0.00    -0.387 OA
ATOM     39  H   UNL     1       6.001   1.039  -2.825  0.00  0.00    +0.210 HD
ENDBRANCH  16   5
BRANCH  17   6
ATOM      6  O   UNL     1       5.742   2.912   0.330  0.00  0.00    -0.387 OA
ATOM     40  H   UNL     1       6.708   2.818   0.383  0.00  0.00    +0.210 HD
ENDBRANCH  17   6
BRANCH  15  19
ATOM     19  C   UNL     1       4.863  -1.501  -0.242  0.00  0.00    +0.138 C 
BRANCH  19  12
ATOM      8  O   UNL     1       2.433  -1.709   1.291  0.00  0.00    -0.276 OA
ATOM     12  N   UNL     1       3.788  -2.446  -0.440  0.00  0.00    -0.313 N 
ATOM     24  C   UNL     1       2.648  -2.471   0.354  0.00  0.00    +0.214 C 
ATOM     38  H   UNL     1       3.877  -3.111  -1.203  0.00  0.00    +0.149 HD
BRANCH  24  22
ATOM     22  C   UNL     1       1.697  -3.579  -0.084  0.00  0.00    +0.102 C 
BRANCH  22  21
ATOM     21  C   UNL     1       0.415  -3.798   0.760  0.00  0.00    -0.017 C 
ATOM     26  C   UNL     1       0.782  -4.149   2.217  0.00  0.00    +0.012 C 
ATOM     27  C   UNL     1      -0.328  -5.021   0.172  0.00  0.00    +0.012 C 
BRANCH  21  25
ATOM     25  C   UNL     1      -0.532  -2.575   0.768  0.00  0.00    +0.127 C 
BRANCH  25  28
ATOM     10  O   UNL     1      -1.926  -2.597  -1.209  0.00  0.00    -0.251 OA
ATOM     28  C   UNL     1      -0.977  -2.117  -0.603  0.00  0.00    +0.307 C 
BRANCH  28   9
ATOM      9  O   UNL     1      -0.162  -1.118  -1.048  0.00  0.00    -0.468 OA
ATOM     33  C   UNL     1      -0.469  -0.604  -2.348  0.00  0.00    +0.280 C 
ENDBRANCH  28   9
ENDBRANCH  25  28
ENDBRANCH  21  25
ENDBRANCH  22  21
ENDBRANCH  24  22
ENDBRANCH  19  12
ENDBRANCH  15  19
BRANCH  18  20
ATOM     20  C   UNL     1       2.868   1.846   1.258  0.00  0.00    +0.133 C 
BRANCH  20  23
ATOM      7  O   UNL     1       1.256   3.537   0.562  0.00  0.00    -0.338 OA
ATOM     13  N   UNL     1       0.359   1.525   0.963  0.00  0.00    -0.191 NA
ATOM     14  N   UNL     1      -0.117   3.668   0.319  0.00  0.00    -0.056 NA
ATOM     23  C   UNL     1       1.451   2.246   0.936  0.00  0.00    +0.230 A 
ATOM     29  C   UNL     1      -0.577   2.440   0.577  0.00  0.00    +0.202 A 
BRANCH  29  30
ATOM     30  C   UNL     1      -1.964   2.095   0.457  0.00  0.00    +0.023 A 
ATOM     31  C   UNL     1      -2.816   2.885  -0.315  0.00  0.00    +0.015 A 
ATOM     32  C   UNL     1      -2.461   0.969   1.114  0.00  0.00    +0.015 A 
ATOM     34  C   UNL     1      -4.165   2.549  -0.429  0.00  0.00    +0.046 A 
ATOM     35  C   UNL     1      -3.810   0.633   1.000  0.00  0.00    +0.046 A 
ATOM     36  C   UNL     1      -4.662   1.424   0.228  0.00  0.00    +0.130 A 
BRANCH  36  11
ATOM     11  O   UNL     1      -5.978   1.096   0.116  0.00  0.00    -0.406 OA
BRANCH  11  37
ATOM      1  F   UNL     1      -7.493  -0.065  -1.090  0.00  0.00    -0.133 F 
ATOM      2  F   UNL     1      -5.381  -0.572  -1.331  0.00  0.00    -0.133 F 
ATOM      3  F   UNL     1      -6.453  -1.104   0.527  0.00  0.00    -0.133 F 
ATOM     37  C   UNL     1      -6.312  -0.172  -0.439  0.00  0.00    +0.575 C 
ENDBRANCH  11  37
ENDBRANCH  36  11
ENDBRANCH  29  30
ENDBRANCH  20  23
ENDBRANCH  18  20
TORSDOF 14
