REMARK  Name = 51136912
REMARK  5 active torsions:
REMARK  status: ('A' for Active; 'I' for Inactive)
REMARK    1  A    between atoms: N_2  and  C_13
REMARK    2  A    between atoms: C_9  and  C_14
REMARK    3  A    between atoms: C_13  and  C_15
REMARK    4  A    between atoms: C_16  and  C_18
REMARK    5  A    between atoms: C_25  and  C_26
REMARK                            x       y       z     vdW  Elec       q    Type
REMARK                         _______ _______ _______ _____ _____    ______ ____
ROOT
ATOM      1  O   UNL     1      -2.299  -0.430   2.020  0.00  0.00    -0.336 OA
ATOM      3  N   UNL     1      -1.359  -1.129   0.111  0.00  0.00    -0.190 NA
ATOM      4  N   UNL     1      -0.933  -0.140   2.130  0.00  0.00    -0.056 NA
ATOM     14  C   UNL     1      -2.464  -1.011   0.802  0.00  0.00    +0.245 A 
ATOM     16  C   UNL     1      -0.447  -0.581   0.966  0.00  0.00    +0.204 A 
ENDROOT
BRANCH  16  18
ATOM      6  N   UNL     1       3.182   0.183   1.246  0.00  0.00    -0.254 NA
ATOM     18  C   UNL     1       0.944  -0.491   0.627  0.00  0.00    +0.041 A 
ATOM     22  C   UNL     1       1.416  -0.962  -0.594  0.00  0.00    +0.015 A 
ATOM     23  C   UNL     1       1.859   0.068   1.504  0.00  0.00    +0.123 A 
ATOM     24  C   UNL     1       2.769  -0.861  -0.895  0.00  0.00    +0.029 A 
ATOM     25  C   UNL     1       3.603  -0.286   0.050  0.00  0.00    +0.074 A 
BRANCH  25  26
ATOM      7  N   UNL     1       6.850   0.143  -1.729  0.00  0.00    -0.243 NA
ATOM      8  N   UNL     1       7.277  -0.052   0.634  0.00  0.00    -0.243 NA
ATOM     26  C   UNL     1       5.019  -0.148  -0.194  0.00  0.00    +0.037 A 
ATOM     27  C   UNL     1       5.533   0.014  -1.464  0.00  0.00    +0.124 A 
ATOM     28  C   UNL     1       5.948  -0.175   0.827  0.00  0.00    +0.124 A 
ATOM     29  C   UNL     1       7.654   0.101  -0.649  0.00  0.00    +0.221 A 
ENDBRANCH  25  26
ENDBRANCH  16  18
BRANCH  14   9
ATOM      2  N   UNL     1      -4.343  -0.796  -0.815  0.00  0.00    -0.286 NA
ATOM      9  C   UNL     1      -3.874  -1.423   0.437  0.00  0.00    +0.146 C 
ATOM     10  C   UNL     1      -4.005  -2.937   0.189  0.00  0.00    +0.030 C 
ATOM     11  C   UNL     1      -4.611  -3.062  -1.202  0.00  0.00    +0.017 C 
ATOM     12  C   UNL     1      -5.300  -1.728  -1.411  0.00  0.00    +0.085 C 
BRANCH   2  13
ATOM     13  C   UNL     1      -4.919   0.527  -0.614  0.00  0.00    +0.140 C 
BRANCH  13  15
ATOM      5  N   UNL     1      -3.865   2.298   0.678  0.00  0.00    -0.259 NA
ATOM     15  C   UNL     1      -3.857   1.585  -0.470  0.00  0.00    +0.055 A 
ATOM     17  C   UNL     1      -2.943   1.774  -1.494  0.00  0.00    +0.024 A 
ATOM     19  C   UNL     1      -1.975   2.759  -1.330  0.00  0.00    +0.003 A 
ATOM     20  C   UNL     1      -2.909   3.247   0.802  0.00  0.00    +0.111 A 
ATOM     21  C   UNL     1      -1.952   3.514  -0.162  0.00  0.00    +0.020 A 
ENDBRANCH  13  15
ENDBRANCH   2  13
ENDBRANCH  14   9
TORSDOF 5
