REMARK  Name = 71693898
REMARK  8 active torsions:
REMARK  status: ('A' for Active; 'I' for Inactive)
REMARK    1  A    between atoms: O_1  and  C_9
REMARK    2  A    between atoms: O_2  and  C_11
REMARK    3  A    between atoms: O_4  and  C_18
REMARK    4  A    between atoms: O_4  and  C_25
REMARK    5  A    between atoms: N_5  and  C_8
REMARK    6  A    between atoms: C_7  and  C_12
REMARK    7  A    between atoms: C_15  and  C_19
REMARK    8  A    between atoms: C_22  and  C_26
REMARK                            x       y       z     vdW  Elec       q    Type
REMARK                         _______ _______ _______ _____ _____    ______ ____
ROOT
ATOM      7  C   UNL     1       1.886   1.098   0.977  0.00  0.00    +0.044 C 
ATOM      8  C   UNL     1       1.030   1.843  -0.072  0.00  0.00    +0.112 C 
ATOM      9  C   UNL     1       1.434   3.305   0.112  0.00  0.00    +0.164 C 
ATOM     10  C   UNL     1       3.101   2.018   1.262  0.00  0.00    +0.044 C 
ATOM     11  C   UNL     1       2.940   3.221   0.335  0.00  0.00    +0.145 C 
ENDROOT
BRANCH   7  12
ATOM     12  C   UNL     1       2.254  -0.308   0.551  0.00  0.00    -0.042 A 
ATOM     13  C   UNL     1       1.859  -1.398   1.327  0.00  0.00    +0.007 A 
ATOM     14  C   UNL     1       2.989  -0.512  -0.617  0.00  0.00    +0.007 A 
ATOM     16  C   UNL     1       2.198  -2.693   0.934  0.00  0.00    +0.046 A 
ATOM     17  C   UNL     1       3.328  -1.807  -1.010  0.00  0.00    +0.046 A 
ATOM     18  C   UNL     1       2.932  -2.897  -0.235  0.00  0.00    +0.120 A 
BRANCH  18   4
ATOM      4  O   UNL     1       3.263  -4.161  -0.618  0.00  0.00    -0.495 OA
ATOM     25  C   UNL     1       2.826  -5.229   0.221  0.00  0.00    +0.277 C 
ENDBRANCH  18   4
ENDBRANCH   7  12
BRANCH   8   5
ATOM      3  O   UNL     1      -0.623  -0.167  -1.286  0.00  0.00    -0.270 OA
ATOM      5  N   UNL     1      -0.381   1.644   0.142  0.00  0.00    -0.305 N 
ATOM     15  C   UNL     1      -1.100   0.640  -0.493  0.00  0.00    +0.244 C 
ATOM     27  H   UNL     1      -0.824   2.212   0.858  0.00  0.00    +0.149 HD
BRANCH  15  19
ATOM     19  C   UNL     1      -2.552   0.585  -0.185  0.00  0.00    +0.038 A 
ATOM     20  C   UNL     1      -3.240  -0.626  -0.278  0.00  0.00    +0.032 A 
ATOM     21  C   UNL     1      -3.229   1.744   0.196  0.00  0.00    +0.013 A 
ATOM     22  C   UNL     1      -4.603  -0.677   0.010  0.00  0.00    +0.052 A 
ATOM     23  C   UNL     1      -4.593   1.692   0.484  0.00  0.00    +0.002 A 
ATOM     24  C   UNL     1      -5.280   0.481   0.391  0.00  0.00    +0.019 A 
BRANCH  22  26
ATOM      6  N   UNL     1      -5.879  -2.924  -0.158  0.00  0.00    -0.191 NA
ATOM     26  C   UNL     1      -5.307  -1.917  -0.083  0.00  0.00    +0.099 C 
ENDBRANCH  22  26
ENDBRANCH  15  19
ENDBRANCH   8   5
BRANCH   9   1
ATOM      1  O   UNL     1       1.129   4.093  -1.023  0.00  0.00    -0.387 OA
ATOM     28  H   UNL     1       1.498   4.980  -0.870  0.00  0.00    +0.210 HD
ENDBRANCH   9   1
BRANCH  11   2
ATOM      2  O   UNL     1       3.622   2.951  -0.886  0.00  0.00    -0.389 OA
ATOM     29  H   UNL     1       4.569   2.870  -0.679  0.00  0.00    +0.210 HD
ENDBRANCH  11   2
TORSDOF 7
