REMARK  Name = 56774893
REMARK  8 active torsions:
REMARK  status: ('A' for Active; 'I' for Inactive)
REMARK    1  A    between atoms: O_2  and  C_9
REMARK    2  A    between atoms: O_4  and  C_21
REMARK    3  A    between atoms: O_4  and  C_22
REMARK    4  A    between atoms: N_6  and  C_14
REMARK    5  A    between atoms: N_7  and  C_19
REMARK    6  A    between atoms: C_8  and  C_9
REMARK    7  A    between atoms: C_9  and  C_11
REMARK    8  A    between atoms: C_20  and  C_21
REMARK                            x       y       z     vdW  Elec       q    Type
REMARK                         _______ _______ _______ _____ _____    ______ ____
ROOT
ATOM     11  C   UNL     1       0.602   0.601  -0.358  0.00  0.00    -0.017 A 
ATOM     15  C   UNL     1      -0.241  -0.300  -1.008  0.00  0.00    +0.008 A 
ATOM     16  C   UNL     1       0.076   1.510   0.561  0.00  0.00    +0.008 A 
ATOM     17  C   UNL     1      -1.610  -0.293  -0.739  0.00  0.00    +0.023 A 
ATOM     18  C   UNL     1      -1.292   1.517   0.830  0.00  0.00    +0.023 A 
ATOM     19  C   UNL     1      -2.135   0.615   0.180  0.00  0.00    +0.033 A 
ENDROOT
BRANCH  19   7
ATOM      5  O   UNL     1      -4.353  -1.086  -0.935  0.00  0.00    -0.273 OA
ATOM      7  N   UNL     1      -3.504   0.622   0.449  0.00  0.00    -0.284 N 
ATOM     20  C   UNL     1      -4.498  -0.199  -0.100  0.00  0.00    +0.243 C 
ATOM     24  H   UNL     1      -3.809   1.314   1.131  0.00  0.00    +0.155 HD
BRANCH  20  21
ATOM     21  C   UNL     1      -5.872   0.120   0.451  0.00  0.00    +0.255 C 
BRANCH  21   4
ATOM      4  O   UNL     1      -6.815  -0.742  -0.152  0.00  0.00    -0.374 OA
ATOM     22  C   UNL     1      -8.136  -0.496   0.322  0.00  0.00    +0.194 C 
ENDBRANCH  21   4
ENDBRANCH  20  21
ENDBRANCH  19   7
BRANCH  11   9
ATOM      9  C   UNL     1       2.081   0.594  -0.650  0.00  0.00    +0.167 C 
BRANCH   9   8
ATOM      1  O   UNL     1       2.912  -2.038   0.347  0.00  0.00    -0.369 OA
ATOM      3  O   UNL     1       6.195  -0.790  -0.494  0.00  0.00    -0.273 OA
ATOM      6  N   UNL     1       4.344   0.372   0.307  0.00  0.00    -0.295 N 
ATOM      8  C   UNL     1       2.909   0.338   0.613  0.00  0.00    +0.134 C 
ATOM     10  C   UNL     1       2.543  -0.999   1.247  0.00  0.00    +0.185 C 
ATOM     12  C   UNL     1       5.041  -0.777  -0.061  0.00  0.00    +0.241 C 
ATOM     13  C   UNL     1       4.311  -2.093   0.186  0.00  0.00    +0.255 C 
ATOM     14  C   UNL     1       4.982   1.679   0.220  0.00  0.00    +0.132 C 
ENDBRANCH   9   8
BRANCH   9   2
ATOM      2  O   UNL     1       2.460   1.845  -1.215  0.00  0.00    -0.385 OA
ATOM     23  H   UNL     1       2.359   2.535  -0.538  0.00  0.00    +0.210 HD
ENDBRANCH   9   2
ENDBRANCH  11   9
TORSDOF 6
