REMARK  Name = 56775625
REMARK  10 active torsions:
REMARK  status: ('A' for Active; 'I' for Inactive)
REMARK    1  A    between atoms: N_4  and  C_7
REMARK    2  A    between atoms: N_4  and  C_12
REMARK    3  A    between atoms: N_6  and  C_16
REMARK    4  A    between atoms: N_6  and  C_19
REMARK    5  A    between atoms: N_6  and  C_22
REMARK    6  A    between atoms: C_7  and  C_10
REMARK    7  A    between atoms: C_10  and  C_11
REMARK    8  A    between atoms: C_12  and  C_14
REMARK    9  A    between atoms: C_15  and  C_16
REMARK   10  A    between atoms: C_19  and  C_23
REMARK                            x       y       z     vdW  Elec       q    Type
REMARK                         _______ _______ _______ _____ _____    ______ ____
ROOT
ATOM     10  C   UNL     1      -0.844   3.323   0.473  0.00  0.00    +0.085 C 
ENDROOT
BRANCH  10  11
ATOM      3  O   UNL     1       2.713   3.033   0.345  0.00  0.00    -0.358 OA
ATOM      5  N   UNL     1       1.517   3.646  -0.007  0.00  0.00    -0.083 NA
ATOM     11  C   UNL     1       0.571   2.944   0.623  0.00  0.00    +0.086 A 
ATOM     13  C   UNL     1       1.105   1.887   1.380  0.00  0.00    +0.072 A 
ATOM     15  C   UNL     1       2.455   1.987   1.171  0.00  0.00    +0.151 A 
BRANCH  15  16
ATOM     16  C   UNL     1       3.645   1.202   1.656  0.00  0.00    +0.161 C 
BRANCH  16   6
ATOM      6  N   UNL     1       3.557  -0.208   1.281  0.00  0.00    -0.294 NA
ATOM     22  C   UNL     1       4.430  -1.018   2.130  0.00  0.00    +0.105 C 
BRANCH   6  19
ATOM     19  C   UNL     1       3.906  -0.385  -0.128  0.00  0.00    +0.119 C 
BRANCH  19  23
ATOM     23  C   UNL     1       3.330  -1.656  -0.694  0.00  0.00    -0.033 A 
ATOM     25  C   UNL     1       4.062  -2.842  -0.633  0.00  0.00    +0.005 A 
ATOM     26  C   UNL     1       2.063  -1.647  -1.278  0.00  0.00    +0.005 A 
ATOM     27  C   UNL     1       3.527  -4.019  -1.157  0.00  0.00    +0.000 A 
ATOM     28  C   UNL     1       1.529  -2.824  -1.802  0.00  0.00    +0.000 A 
ATOM     29  C   UNL     1       2.261  -4.010  -1.742  0.00  0.00    +0.000 A 
ENDBRANCH  19  23
ENDBRANCH   6  19
ENDBRANCH  16   6
ENDBRANCH  15  16
ENDBRANCH  10  11
BRANCH  10   7
ATOM      2  O   UNL     1      -2.165   3.239  -2.637  0.00  0.00    -0.376 OA
ATOM      7  C   UNL     1      -1.488   2.599  -0.716  0.00  0.00    +0.072 C 
ATOM      8  C   UNL     1      -0.896   2.792  -2.108  0.00  0.00    +0.184 C 
ATOM      9  C   UNL     1      -2.765   3.170  -1.323  0.00  0.00    +0.184 C 
BRANCH   7   4
ATOM      4  N   UNL     1      -1.678   1.175  -0.479  0.00  0.00    -0.302 NA
ATOM     30  H   UNL     1      -0.820   0.627  -0.424  0.00  0.00    +0.123 HD
BRANCH   4  12
ATOM     12  C   UNL     1      -2.470   0.977   0.732  0.00  0.00    +0.117 C 
BRANCH  12  14
ATOM      1  F   UNL     1      -5.178  -3.964   0.681  0.00  0.00    -0.205 F 
ATOM     14  C   UNL     1      -3.194  -0.344   0.718  0.00  0.00    -0.033 A 
ATOM     17  C   UNL     1      -2.581  -1.480   1.246  0.00  0.00    +0.008 A 
ATOM     18  C   UNL     1      -4.477  -0.430   0.178  0.00  0.00    +0.008 A 
ATOM     20  C   UNL     1      -3.252  -2.703   1.233  0.00  0.00    +0.038 A 
ATOM     21  C   UNL     1      -5.147  -1.653   0.165  0.00  0.00    +0.038 A 
ATOM     24  C   UNL     1      -4.535  -2.790   0.693  0.00  0.00    +0.123 A 
ENDBRANCH  12  14
ENDBRANCH   4  12
ENDBRANCH   7   4
ENDBRANCH  10   7
TORSDOF 9
