REMARK  Name = 7049032
REMARK  13 active torsions:
REMARK  status: ('A' for Active; 'I' for Inactive)
REMARK    1  A    between atoms: O_1  and  C_11
REMARK    2  A    between atoms: O_2  and  C_12
REMARK    3  A    between atoms: N_7  and  C_13
REMARK    4  A    between atoms: N_8  and  C_17
REMARK    5  A    between atoms: N_9  and  C_25
REMARK    6  A    between atoms: C_15  and  C_18
REMARK    7  A    between atoms: C_17  and  C_19
REMARK    8  A    between atoms: C_17  and  C_24
REMARK    9  A    between atoms: C_19  and  C_20
REMARK   10  A    between atoms: C_20  and  C_22
REMARK   11  A    between atoms: C_20  and  C_23
REMARK   12  A    between atoms: C_30  and  C_31
REMARK   13  A    between atoms: C_31  and  C_32
REMARK                            x       y       z     vdW  Elec       q    Type
REMARK                         _______ _______ _______ _____ _____    ______ ____
ROOT
ATOM     11  C   UNL     1       0.417  -1.878  -1.337  0.00  0.00    +0.167 C 
ATOM     12  C   UNL     1       1.750  -2.636  -1.310  0.00  0.00    +0.149 C 
ATOM     13  C   UNL     1       0.105  -1.234   0.027  0.00  0.00    +0.129 C 
ATOM     14  C   UNL     1       2.917  -1.738  -0.866  0.00  0.00    +0.074 C 
ATOM     15  C   UNL     1       2.549  -0.781   0.232  0.00  0.00    +0.015 C 
ATOM     16  C   UNL     1       1.294  -0.552   0.648  0.00  0.00    +0.006 C 
ENDROOT
BRANCH  13   7
ATOM      4  O   UNL     1      -2.688  -1.794   0.320  0.00  0.00    -0.252 OA
ATOM      7  N   UNL     1      -0.979  -0.287  -0.067  0.00  0.00    -0.290 N 
ATOM      9  N   UNL     1      -3.144   0.478  -0.053  0.00  0.00    -0.269 N 
ATOM     21  C   UNL     1      -2.323  -0.644   0.090  0.00  0.00    +0.304 C 
ATOM     33  H   UNL     1      -0.763   0.678  -0.302  0.00  0.00    +0.151 HD
ATOM     37  H   UNL     1      -2.679   1.362  -0.242  0.00  0.00    +0.156 HD
BRANCH   9  25
ATOM     25  C   UNL     1      -4.555   0.538   0.034  0.00  0.00    +0.035 A 
ATOM     26  C   UNL     1      -5.269  -0.621   0.291  0.00  0.00    +0.024 A 
ATOM     27  C   UNL     1      -5.193   1.756  -0.137  0.00  0.00    +0.024 A 
ATOM     28  C   UNL     1      -6.660  -0.561   0.379  0.00  0.00    +0.013 A 
ATOM     29  C   UNL     1      -6.584   1.816  -0.050  0.00  0.00    +0.013 A 
ATOM     30  C   UNL     1      -7.317   0.657   0.208  0.00  0.00    +0.017 A 
BRANCH  30  31
ATOM      6  O   UNL     1      -9.383   1.794   0.151  0.00  0.00    -0.292 OA
ATOM     31  C   UNL     1      -8.767   0.720   0.298  0.00  0.00    +0.160 C 
ATOM     32  C   UNL     1      -9.575  -0.543   0.578  0.00  0.00    +0.091 C 
ENDBRANCH  30  31
ENDBRANCH   9  25
ENDBRANCH  13   7
BRANCH  15  18
ATOM      3  O   UNL     1       3.521   0.261   2.090  0.00  0.00    -0.271 OA
ATOM      8  N   UNL     1       4.714   0.183   0.088  0.00  0.00    -0.300 N 
ATOM     18  C   UNL     1       3.630  -0.062   0.912  0.00  0.00    +0.241 C 
ATOM     34  H   UNL     1       4.768  -0.245  -0.828  0.00  0.00    +0.150 HD
BRANCH   8  17
ATOM     17  C   UNL     1       5.895   0.877   0.532  0.00  0.00    +0.159 C 
BRANCH  17  24
ATOM      5  O   UNL     1       6.912  -1.321   0.752  0.00  0.00    -0.274 OA
ATOM     10  N   UNL     1       7.571   0.343   2.192  0.00  0.00    -0.328 N 
ATOM     24  C   UNL     1       6.816  -0.164   1.155  0.00  0.00    +0.231 C 
ATOM     38  H   UNL     1       7.497   1.308   2.500  0.00  0.00    +0.145 HD
ATOM     39  H   UNL     1       8.236  -0.242   2.686  0.00  0.00    +0.145 HD
ENDBRANCH  17  24
BRANCH  17  19
ATOM     19  C   UNL     1       6.611   1.600  -0.616  0.00  0.00    +0.034 C 
BRANCH  19  20
ATOM     20  C   UNL     1       5.746   2.631  -1.370  0.00  0.00    -0.015 C 
ATOM     22  C   UNL     1       4.471   2.013  -1.945  0.00  0.00    +0.007 C 
ATOM     23  C   UNL     1       5.381   3.784  -0.431  0.00  0.00    +0.007 C 
ENDBRANCH  19  20
ENDBRANCH  17  19
ENDBRANCH   8  17
ENDBRANCH  15  18
BRANCH  11   1
ATOM      1  O   UNL     1       0.485  -0.864  -2.342  0.00  0.00    -0.387 OA
ATOM     35  H   UNL     1      -0.368  -0.398  -2.343  0.00  0.00    +0.210 HD
ENDBRANCH  11   1
BRANCH  12   2
ATOM      2  O   UNL     1       1.652  -3.771  -0.453  0.00  0.00    -0.389 OA
ATOM     36  H   UNL     1       0.919  -4.321  -0.778  0.00  0.00    +0.210 HD
ENDBRANCH  12   2
TORSDOF 10
