REMARK  Name = 26763581
REMARK  12 active torsions:
REMARK  status: ('A' for Active; 'I' for Inactive)
REMARK    1  A    between atoms: S_1  and  N_8
REMARK    2  A    between atoms: S_1  and  C_19
REMARK    3  A    between atoms: O_6  and  C_25
REMARK    4  A    between atoms: O_6  and  C_35
REMARK    5  A    between atoms: N_10  and  C_20
REMARK    6  A    between atoms: N_11  and  C_22
REMARK    7  A    between atoms: C_13  and  C_17
REMARK    8  A    between atoms: C_20  and  C_21
REMARK    9  A    between atoms: C_20  and  C_25
REMARK   10  A    between atoms: C_21  and  C_26
REMARK   11  A    between atoms: C_22  and  C_27
REMARK   12  A    between atoms: C_22  and  C_28
REMARK                            x       y       z     vdW  Elec       q    Type
REMARK                         _______ _______ _______ _____ _____    ______ ____
ROOT
ATOM      5  O   UNL     1       0.810   3.237  -1.065  0.00  0.00    -0.253 OA
ATOM      8  N   UNL     1      -2.254  -0.144   0.964  0.00  0.00    -0.162 NA
ATOM      9  N   UNL     1      -1.048   2.233  -0.096  0.00  0.00    -0.282 N 
ATOM     11  N   UNL     1      -0.498   4.480   0.362  0.00  0.00    -0.297 N 
ATOM     13  C   UNL     1      -1.040  -0.252   0.107  0.00  0.00    +0.183 C 
ATOM     14  C   UNL     1      -0.829   0.964  -0.793  0.00  0.00    +0.139 C 
ATOM     15  C   UNL     1      -3.092   1.054   0.701  0.00  0.00    +0.129 C 
ATOM     16  C   UNL     1      -2.221   2.300   0.783  0.00  0.00    +0.126 C 
ATOM     18  C   UNL     1      -0.173   3.312  -0.322  0.00  0.00    +0.303 C 
ATOM     38  H   UNL     1      -1.244   4.476   1.048  0.00  0.00    +0.150 HD
ENDROOT
BRANCH  13  17
ATOM      4  O   UNL     1       0.065   0.123   2.186  0.00  0.00    -0.274 OA
ATOM     10  N   UNL     1       1.119  -1.174   0.565  0.00  0.00    -0.301 N 
ATOM     17  C   UNL     1       0.087  -0.406   1.078  0.00  0.00    +0.234 C 
ATOM     37  H   UNL     1       1.042  -1.543  -0.378  0.00  0.00    +0.150 HD
BRANCH  10  20
ATOM     20  C   UNL     1       2.333  -1.454   1.296  0.00  0.00    +0.186 C 
BRANCH  20  25
ATOM      7  O   UNL     1       2.369  -3.587   0.161  0.00  0.00    -0.249 OA
ATOM     25  C   UNL     1       2.868  -2.851   1.005  0.00  0.00    +0.328 C 
BRANCH  25   6
ATOM      6  O   UNL     1       3.931  -3.169   1.796  0.00  0.00    -0.467 OA
ATOM     35  C   UNL     1       4.483  -4.474   1.599  0.00  0.00    +0.280 C 
ENDBRANCH  25   6
ENDBRANCH  20  25
BRANCH  20  21
ATOM     21  C   UNL     1       3.400  -0.372   1.071  0.00  0.00    +0.070 C 
BRANCH  21  26
ATOM     12  N   UNL     1       5.481  -0.948  -2.045  0.00  0.00    -0.263 NA
ATOM     26  C   UNL     1       3.897  -0.262  -0.353  0.00  0.00    -0.027 A 
ATOM     32  C   UNL     1       3.278   0.585  -1.265  0.00  0.00    +0.006 A 
ATOM     33  C   UNL     1       4.985  -1.000  -0.789  0.00  0.00    +0.114 A 
ATOM     34  C   UNL     1       3.759   0.667  -2.567  0.00  0.00    +0.020 A 
ATOM     36  C   UNL     1       4.854  -0.113  -2.904  0.00  0.00    +0.111 A 
ENDBRANCH  21  26
ENDBRANCH  20  21
ENDBRANCH  10  20
ENDBRANCH  13  17
BRANCH   8   1
ATOM      1  S   UNL     1      -3.097  -1.596   1.288  0.00  0.00    +0.062 S 
ATOM      2  O   UNL     1      -4.045  -1.366   2.358  0.00  0.00    -0.153 OA
ATOM      3  O   UNL     1      -2.148  -2.688   1.357  0.00  0.00    -0.153 OA
BRANCH   1  19
ATOM     19  C   UNL     1      -4.010  -1.767  -0.214  0.00  0.00    +0.106 A 
ATOM     23  C   UNL     1      -3.462  -2.469  -1.288  0.00  0.00    +0.028 A 
ATOM     24  C   UNL     1      -5.278  -1.196  -0.328  0.00  0.00    +0.028 A 
ATOM     29  C   UNL     1      -4.181  -2.600  -2.475  0.00  0.00    +0.002 A 
ATOM     30  C   UNL     1      -5.997  -1.328  -1.515  0.00  0.00    +0.002 A 
ATOM     31  C   UNL     1      -5.449  -2.030  -2.589  0.00  0.00    +0.000 A 
ENDBRANCH   1  19
ENDBRANCH   8   1
BRANCH  11  22
ATOM     22  C   UNL     1       0.290   5.687   0.251  0.00  0.00    +0.068 C 
ATOM     27  C   UNL     1       1.407   5.686   1.287  0.00  0.00    +0.027 C 
ATOM     28  C   UNL     1      -0.595   6.919   0.394  0.00  0.00    +0.027 C 
ENDBRANCH  11  22
TORSDOF 9
