REMARK  Name = 45783481
REMARK  11 active torsions:
REMARK  status: ('A' for Active; 'I' for Inactive)
REMARK    1  A    between atoms: O_2  and  C_24
REMARK    2  A    between atoms: O_2  and  C_25
REMARK    3  A    between atoms: N_3  and  C_12
REMARK    4  A    between atoms: N_7  and  C_22
REMARK    5  A    between atoms: N_7  and  C_23
REMARK    6  A    between atoms: C_8  and  C_14
REMARK    7  A    between atoms: C_12  and  C_13
REMARK    8  A    between atoms: C_13  and  C_15
REMARK    9  A    between atoms: C_13  and  C_16
REMARK   10  A    between atoms: C_17  and  C_18
REMARK   11  A    between atoms: C_23  and  C_24
REMARK                            x       y       z     vdW  Elec       q    Type
REMARK                         _______ _______ _______ _____ _____    ______ ____
ROOT
ATOM      1  O   UNL     1      -2.471   0.311  -2.040  0.00  0.00    -0.336 OA
ATOM      4  N   UNL     1      -1.480   0.739  -0.078  0.00  0.00    -0.190 NA
ATOM      5  N   UNL     1      -1.096   0.148  -2.254  0.00  0.00    -0.056 NA
ATOM     14  C   UNL     1      -2.610   0.659  -0.734  0.00  0.00    +0.245 A 
ATOM     17  C   UNL     1      -0.580   0.417  -1.051  0.00  0.00    +0.204 A 
ENDROOT
BRANCH  17  18
ATOM      6  N   UNL     1       3.072  -0.011  -1.609  0.00  0.00    -0.240 NA
ATOM     18  C   UNL     1       0.830   0.375  -0.790  0.00  0.00    +0.041 A 
ATOM     19  C   UNL     1       1.334   0.663   0.473  0.00  0.00    +0.016 A 
ATOM     20  C   UNL     1       1.733   0.047  -1.788  0.00  0.00    +0.124 A 
ATOM     21  C   UNL     1       2.705   0.614   0.697  0.00  0.00    +0.044 A 
ATOM     22  C   UNL     1       3.524   0.275  -0.368  0.00  0.00    +0.119 A 
BRANCH  22   7
ATOM      7  N   UNL     1       4.919   0.230  -0.125  0.00  0.00    -0.327 N 
ATOM     26  H   UNL     1       5.507  -0.023  -0.911  0.00  0.00    +0.148 HD
BRANCH   7  23
ATOM     23  C   UNL     1       5.488   0.518   1.152  0.00  0.00    +0.131 C 
BRANCH  23  24
ATOM     24  C   UNL     1       7.003   0.419   1.080  0.00  0.00    +0.178 C 
BRANCH  24   2
ATOM      2  O   UNL     1       7.374  -0.907   0.723  0.00  0.00    -0.381 OA
ATOM     25  C   UNL     1       8.786  -1.050   0.649  0.00  0.00    +0.194 C 
ENDBRANCH  24   2
ENDBRANCH  23  24
ENDBRANCH   7  23
ENDBRANCH  22   7
ENDBRANCH  17  18
BRANCH  14   8
ATOM      3  N   UNL     1      -4.381   0.028   0.896  0.00  0.00    -0.291 NA
ATOM      8  C   UNL     1      -4.023   0.895  -0.245  0.00  0.00    +0.146 C 
ATOM      9  C   UNL     1      -4.242   2.329   0.270  0.00  0.00    +0.030 C 
ATOM     10  C   UNL     1      -5.366   0.769   1.684  0.00  0.00    +0.085 C 
ATOM     11  C   UNL     1      -4.781   2.167   1.684  0.00  0.00    +0.017 C 
BRANCH   3  12
ATOM     12  C   UNL     1      -4.877  -1.281   0.490  0.00  0.00    +0.088 C 
BRANCH  12  13
ATOM     13  C   UNL     1      -3.739  -2.268   0.175  0.00  0.00    -0.003 C 
ATOM     15  C   UNL     1      -2.865  -2.462   1.417  0.00  0.00    +0.008 C 
ATOM     16  C   UNL     1      -4.256  -3.625  -0.308  0.00  0.00    +0.008 C 
ENDBRANCH  12  13
ENDBRANCH   3  12
ENDBRANCH  14   8
TORSDOF 8
