REMARK  Name = 45783456
REMARK  10 active torsions:
REMARK  status: ('A' for Active; 'I' for Inactive)
REMARK    1  A    between atoms: O_5  and  C_27
REMARK    2  A    between atoms: O_5  and  C_30
REMARK    3  A    between atoms: O_6  and  C_31
REMARK    4  A    between atoms: O_6  and  C_32
REMARK    5  A    between atoms: N_7  and  C_15
REMARK    6  A    between atoms: C_11  and  C_16
REMARK    7  A    between atoms: C_15  and  C_17
REMARK    8  A    between atoms: C_20  and  C_24
REMARK    9  A    between atoms: C_23  and  C_25
REMARK   10  A    between atoms: C_30  and  C_31
REMARK                            x       y       z     vdW  Elec       q    Type
REMARK                         _______ _______ _______ _____ _____    ______ ____
ROOT
ATOM      7  N   UNL     1      -3.698   0.249  -1.398  0.00  0.00    -0.287 NA
ATOM     11  C   UNL     1      -3.995  -0.598  -0.226  0.00  0.00    +0.146 C 
ATOM     12  C   UNL     1      -4.798  -1.783  -0.792  0.00  0.00    +0.030 C 
ATOM     13  C   UNL     1      -4.953  -1.485  -2.277  0.00  0.00    +0.017 C 
ATOM     14  C   UNL     1      -4.777   0.018  -2.359  0.00  0.00    +0.085 C 
ENDROOT
BRANCH  11  16
ATOM      4  O   UNL     1      -2.881  -1.295   1.835  0.00  0.00    -0.336 OA
ATOM      8  N   UNL     1      -1.530  -1.203   0.051  0.00  0.00    -0.189 NA
ATOM      9  N   UNL     1      -1.611  -1.675   2.288  0.00  0.00    -0.054 NA
ATOM     16  C   UNL     1      -2.745  -1.035   0.508  0.00  0.00    +0.245 A 
ATOM     20  C   UNL     1      -0.870  -1.595   1.179  0.00  0.00    +0.221 A 
BRANCH  20  24
ATOM     10  N   UNL     1       1.061  -2.279   2.349  0.00  0.00    -0.252 NA
ATOM     24  C   UNL     1       0.531  -1.903   1.163  0.00  0.00    +0.115 A 
ATOM     26  C   UNL     1       1.255  -1.807  -0.014  0.00  0.00    +0.077 A 
ATOM     27  C   UNL     1       2.610  -2.116   0.028  0.00  0.00    +0.124 A 
ATOM     28  C   UNL     1       2.381  -2.572   2.351  0.00  0.00    +0.115 A 
ATOM     29  C   UNL     1       3.191  -2.507   1.229  0.00  0.00    +0.065 A 
BRANCH  27   5
ATOM      5  O   UNL     1       3.364  -2.038  -1.102  0.00  0.00    -0.490 OA
BRANCH   5  30
ATOM     30  C   UNL     1       2.973  -1.073  -2.078  0.00  0.00    +0.257 C 
BRANCH  30  31
ATOM     31  C   UNL     1       4.207  -0.581  -2.809  0.00  0.00    +0.200 C 
BRANCH  31   6
ATOM      6  O   UNL     1       5.088   0.031  -1.875  0.00  0.00    -0.380 OA
ATOM     32  C   UNL     1       6.276   0.492  -2.503  0.00  0.00    +0.194 C 
ENDBRANCH  31   6
ENDBRANCH  30  31
ENDBRANCH   5  30
ENDBRANCH  27   5
ENDBRANCH  20  24
ENDBRANCH  11  16
BRANCH   7  15
ATOM     15  C   UNL     1      -3.553   1.661  -1.066  0.00  0.00    +0.120 C 
BRANCH  15  17
ATOM     17  C   UNL     1      -2.196   1.964  -0.489  0.00  0.00    -0.033 A 
ATOM     18  C   UNL     1      -2.089   2.523   0.784  0.00  0.00    +0.005 A 
ATOM     19  C   UNL     1      -1.046   1.686  -1.228  0.00  0.00    +0.005 A 
ATOM     21  C   UNL     1      -0.831   2.804   1.319  0.00  0.00    +0.012 A 
ATOM     22  C   UNL     1       0.211   1.967  -0.693  0.00  0.00    +0.012 A 
ATOM     23  C   UNL     1       0.319   2.526   0.580  0.00  0.00    +0.055 A 
BRANCH  23  25
ATOM      1  F   UNL     1       2.462   1.723   1.274  0.00  0.00    -0.166 F 
ATOM      2  F   UNL     1       1.592   3.364   2.405  0.00  0.00    -0.166 F 
ATOM      3  F   UNL     1       2.389   3.711   0.412  0.00  0.00    -0.166 F 
ATOM     25  C   UNL     1       1.663   2.823   1.153  0.00  0.00    +0.417 C 
ENDBRANCH  23  25
ENDBRANCH  15  17
ENDBRANCH   7  15
TORSDOF 9
