REMARK  Name = 51136916
REMARK  6 active torsions:
REMARK  status: ('A' for Active; 'I' for Inactive)
REMARK    1  A    between atoms: N_2  and  C_12
REMARK    2  A    between atoms: C_8  and  C_13
REMARK    3  A    between atoms: C_12  and  C_14
REMARK    4  A    between atoms: C_12  and  C_15
REMARK    5  A    between atoms: C_16  and  C_17
REMARK    6  A    between atoms: C_21  and  C_22
REMARK                            x       y       z     vdW  Elec       q    Type
REMARK                         _______ _______ _______ _____ _____    ______ ____
ROOT
ATOM      1  O   UNL     1      -2.659   2.126  -0.745  0.00  0.00    -0.336 OA
ATOM      3  N   UNL     1      -1.767   0.282   0.161  0.00  0.00    -0.190 NA
ATOM      4  N   UNL     1      -1.272   2.251  -0.894  0.00  0.00    -0.056 NA
ATOM     13  C   UNL     1      -2.865   0.940  -0.115  0.00  0.00    +0.245 A 
ATOM     16  C   UNL     1      -0.816   1.125  -0.336  0.00  0.00    +0.204 A 
ENDROOT
BRANCH  16  17
ATOM      5  N   UNL     1       2.361  -0.451   0.780  0.00  0.00    -0.254 NA
ATOM     17  C   UNL     1       0.582   0.814  -0.258  0.00  0.00    +0.041 A 
ATOM     18  C   UNL     1       1.501   1.434  -1.097  0.00  0.00    +0.015 A 
ATOM     19  C   UNL     1       1.058  -0.113   0.655  0.00  0.00    +0.123 A 
ATOM     20  C   UNL     1       2.851   1.112  -0.998  0.00  0.00    +0.029 A 
ATOM     21  C   UNL     1       3.226   0.172  -0.052  0.00  0.00    +0.074 A 
BRANCH  21  22
ATOM      6  N   UNL     1       6.629  -1.147  -0.809  0.00  0.00    -0.243 NA
ATOM      7  N   UNL     1       6.578  -0.392   1.479  0.00  0.00    -0.243 NA
ATOM     22  C   UNL     1       4.609  -0.211   0.106  0.00  0.00    +0.037 A 
ATOM     23  C   UNL     1       5.337  -0.774  -0.922  0.00  0.00    +0.124 A 
ATOM     24  C   UNL     1       5.287  -0.042   1.296  0.00  0.00    +0.124 A 
ATOM     25  C   UNL     1       7.179  -0.930   0.401  0.00  0.00    +0.221 A 
ENDBRANCH  21  22
ENDBRANCH  16  17
BRANCH  13   8
ATOM      2  N   UNL     1      -4.510  -0.895   0.232  0.00  0.00    -0.289 NA
ATOM      8  C   UNL     1      -4.305   0.566   0.167  0.00  0.00    +0.146 C 
ATOM      9  C   UNL     1      -4.801   1.092   1.526  0.00  0.00    +0.030 C 
ATOM     10  C   UNL     1      -5.630  -1.115   1.147  0.00  0.00    +0.085 C 
ATOM     11  C   UNL     1      -5.321  -0.135   2.261  0.00  0.00    +0.017 C 
BRANCH   2  12
ATOM     12  C   UNL     1      -4.740  -1.502  -1.072  0.00  0.00    +0.051 C 
ATOM     14  C   UNL     1      -3.557  -1.203  -1.988  0.00  0.00    +0.024 C 
ATOM     15  C   UNL     1      -4.954  -3.006  -0.926  0.00  0.00    +0.024 C 
ENDBRANCH   2  12
ENDBRANCH  13   8
TORSDOF 4
