REMARK  Name = 45783938
REMARK  12 active torsions:
REMARK  status: ('A' for Active; 'I' for Inactive)
REMARK    1  A    between atoms: N_5  and  C_16
REMARK    2  A    between atoms: N_8  and  C_32
REMARK    3  A    between atoms: C_9  and  C_13
REMARK    4  A    between atoms: C_10  and  C_16
REMARK    5  A    between atoms: C_12  and  C_17
REMARK    6  A    between atoms: C_13  and  C_18
REMARK    7  A    between atoms: C_13  and  C_19
REMARK    8  A    between atoms: C_14  and  C_20
REMARK    9  A    between atoms: C_17  and  C_21
REMARK   10  A    between atoms: C_22  and  C_24
REMARK   11  A    between atoms: C_23  and  C_25
REMARK   12  A    between atoms: C_36  and  C_37
REMARK                            x       y       z     vdW  Elec       q    Type
REMARK                         _______ _______ _______ _____ _____    ______ ____
ROOT
ATOM      9  C   UNL     1      -0.953   2.720  -0.627  0.00  0.00    +0.000 C 
ATOM     10  C   UNL     1       0.069   3.871  -0.447  0.00  0.00    +0.032 C 
ATOM     11  C   UNL     1      -1.913   2.664   0.570  0.00  0.00    +0.012 C 
ATOM     12  C   UNL     1      -1.170   2.453   1.903  0.00  0.00    +0.024 C 
ATOM     14  C   UNL     1       0.023   3.378   2.035  0.00  0.00    -0.073 C 
ATOM     15  C   UNL     1       0.555   4.013   0.976  0.00  0.00    -0.022 C 
ATOM     20  C   UNL     1       0.563   3.592   3.422  0.00  0.00    +0.039 C 
ENDROOT
BRANCH   9  13
ATOM     13  C   UNL     1      -1.751   2.867  -1.926  0.00  0.00    -0.013 C 
ATOM     18  C   UNL     1      -2.898   3.854  -1.737  0.00  0.00    +0.007 C 
ATOM     19  C   UNL     1      -2.276   1.510  -2.385  0.00  0.00    +0.007 C 
ENDBRANCH   9  13
BRANCH  10  16
ATOM     16  C   UNL     1       1.272   3.694  -1.382  0.00  0.00    +0.112 C 
BRANCH  16   5
ATOM      3  O   UNL     1       1.788   1.415  -3.050  0.00  0.00    -0.270 OA
ATOM      5  N   UNL     1       2.022   2.530  -1.028  0.00  0.00    -0.311 N 
ATOM     22  C   UNL     1       2.225   1.464  -1.904  0.00  0.00    +0.244 C 
ATOM     38  H   UNL     1       2.407   2.497  -0.091  0.00  0.00    +0.149 HD
BRANCH  22  24
ATOM     24  C   UNL     1       3.006   0.315  -1.376  0.00  0.00    +0.037 A 
ATOM     26  C   UNL     1       2.804  -0.963  -1.896  0.00  0.00    +0.015 A 
ATOM     27  C   UNL     1       3.941   0.516  -0.360  0.00  0.00    +0.015 A 
ATOM     28  C   UNL     1       3.538  -2.041  -1.401  0.00  0.00    +0.024 A 
ATOM     29  C   UNL     1       4.674  -0.562   0.135  0.00  0.00    +0.024 A 
ATOM     32  C   UNL     1       4.473  -1.841  -0.385  0.00  0.00    +0.033 A 
BRANCH  32   8
ATOM      4  O   UNL     1       6.575  -1.950   1.768  0.00  0.00    -0.276 OA
ATOM      8  N   UNL     1       5.205  -2.919   0.112  0.00  0.00    -0.286 N 
ATOM     36  C   UNL     1       6.179  -2.913   1.120  0.00  0.00    +0.214 C 
ATOM     37  C   UNL     1       6.738  -4.293   1.365  0.00  0.00    +0.109 C 
ATOM     39  H   UNL     1       5.000  -3.819  -0.319  0.00  0.00    +0.155 HD
ENDBRANCH  32   8
ENDBRANCH  22  24
ENDBRANCH  16   5
ENDBRANCH  10  16
BRANCH  12  17
ATOM     17  C   UNL     1      -0.751   0.989   2.077  0.00  0.00    +0.105 C 
BRANCH  17  21
ATOM      2  O   UNL     1      -2.079  -0.628   0.821  0.00  0.00    -0.420 OA
ATOM      6  N   UNL     1      -2.870  -0.185   2.866  0.00  0.00    -0.112 NA
ATOM      7  N   UNL     1      -3.712  -1.107   2.273  0.00  0.00    -0.107 NA
ATOM     21  C   UNL     1      -1.932   0.066   1.982  0.00  0.00    +0.218 A 
ATOM     23  C   UNL     1      -3.212  -1.337   1.081  0.00  0.00    +0.251 A 
BRANCH  23  25
ATOM      1  F   UNL     1      -5.515  -2.912   1.348  0.00  0.00    -0.205 F 
ATOM     25  C   UNL     1      -3.666  -2.202   0.032  0.00  0.00    +0.074 A 
ATOM     30  C   UNL     1      -4.817  -2.970   0.204  0.00  0.00    +0.136 A 
ATOM     31  C   UNL     1      -2.952  -2.275  -1.164  0.00  0.00    +0.016 A 
ATOM     33  C   UNL     1      -5.254  -3.812  -0.819  0.00  0.00    +0.039 A 
ATOM     34  C   UNL     1      -3.389  -3.116  -2.188  0.00  0.00    +0.001 A 
ATOM     35  C   UNL     1      -4.540  -3.884  -2.015  0.00  0.00    +0.003 A 
ENDBRANCH  23  25
ENDBRANCH  17  21
ENDBRANCH  12  17
TORSDOF 8
