REMARK  Name = 26744190
REMARK  9 active torsions:
REMARK  status: ('A' for Active; 'I' for Inactive)
REMARK    1  A    between atoms: S_1  and  C_22
REMARK    2  A    between atoms: S_1  and  C_26
REMARK    3  A    between atoms: O_2  and  C_12
REMARK    4  A    between atoms: O_6  and  C_29
REMARK    5  A    between atoms: O_6  and  C_30
REMARK    6  A    between atoms: N_7  and  C_14
REMARK    7  A    between atoms: C_10  and  C_15
REMARK    8  A    between atoms: C_14  and  C_16
REMARK    9  A    between atoms: C_19  and  C_23
REMARK                            x       y       z     vdW  Elec       q    Type
REMARK                         _______ _______ _______ _____ _____    ______ ____
ROOT
ATOM      7  N   UNL     1       3.751  -0.018   0.212  0.00  0.00    -0.285 NA
ATOM     10  C   UNL     1       3.053   1.224   0.602  0.00  0.00    +0.149 C 
ATOM     11  C   UNL     1       3.987   2.360   0.149  0.00  0.00    +0.061 C 
ATOM     12  C   UNL     1       5.204   1.659  -0.442  0.00  0.00    +0.130 C 
ATOM     13  C   UNL     1       5.179   0.292   0.216  0.00  0.00    +0.116 C 
ENDROOT
BRANCH  10  15
ATOM      3  O   UNL     1       1.593   1.270  -1.358  0.00  0.00    -0.336 OA
ATOM      8  N   UNL     1       0.511   1.470   0.592  0.00  0.00    -0.190 NA
ATOM      9  N   UNL     1       0.234   1.387  -1.677  0.00  0.00    -0.056 NA
ATOM     15  C   UNL     1       1.668   1.328  -0.003  0.00  0.00    +0.245 A 
ATOM     19  C   UNL     1      -0.338   1.501  -0.475  0.00  0.00    +0.202 A 
BRANCH  19  23
ATOM     23  C   UNL     1      -1.756   1.646  -0.307  0.00  0.00    +0.023 A 
ATOM     24  C   UNL     1      -2.298   1.759   0.973  0.00  0.00    +0.015 A 
ATOM     25  C   UNL     1      -2.591   1.672  -1.423  0.00  0.00    +0.015 A 
ATOM     27  C   UNL     1      -3.676   1.899   1.137  0.00  0.00    +0.046 A 
ATOM     28  C   UNL     1      -3.969   1.811  -1.260  0.00  0.00    +0.046 A 
ATOM     29  C   UNL     1      -4.512   1.924   0.020  0.00  0.00    +0.120 A 
BRANCH  29   6
ATOM      6  O   UNL     1      -5.857   2.060   0.179  0.00  0.00    -0.495 OA
ATOM     30  C   UNL     1      -6.345   2.172   1.515  0.00  0.00    +0.277 C 
ENDBRANCH  29   6
ENDBRANCH  19  23
ENDBRANCH  10  15
BRANCH  12   2
ATOM      2  O   UNL     1       6.389   2.367  -0.137  0.00  0.00    -0.390 OA
ATOM     31  H   UNL     1       6.306   3.256  -0.522  0.00  0.00    +0.210 HD
ENDBRANCH  12   2
BRANCH   7  14
ATOM     14  C   UNL     1       3.433  -1.150   1.072  0.00  0.00    +0.120 C 
BRANCH  14  16
ATOM     16  C   UNL     1       2.108  -1.770   0.717  0.00  0.00    -0.033 A 
ATOM     17  C   UNL     1       1.094  -1.844   1.672  0.00  0.00    +0.007 A 
ATOM     18  C   UNL     1       1.894  -2.269  -0.568  0.00  0.00    +0.007 A 
ATOM     20  C   UNL     1      -0.134  -2.418   1.343  0.00  0.00    +0.027 A 
ATOM     21  C   UNL     1       0.666  -2.844  -0.897  0.00  0.00    +0.027 A 
ATOM     22  C   UNL     1      -0.348  -2.918   0.058  0.00  0.00    +0.088 A 
BRANCH  22   1
ATOM      1  S   UNL     1      -1.886  -3.634  -0.354  0.00  0.00    -0.006 S 
ATOM      4  O   UNL     1      -1.696  -4.550  -1.470  0.00  0.00    -0.170 OA
ATOM      5  O   UNL     1      -2.503  -4.111   0.875  0.00  0.00    -0.170 OA
ATOM     26  C   UNL     1      -2.858  -2.273  -0.962  0.00  0.00    +0.200 C 
ENDBRANCH  22   1
ENDBRANCH  14  16
ENDBRANCH   7  14
TORSDOF 7
