REMARK  Name = 45361202
REMARK  7 active torsions:
REMARK  status: ('A' for Active; 'I' for Inactive)
REMARK    1  A    between atoms: O_3  and  C_27
REMARK    2  A    between atoms: N_4  and  C_19
REMARK    3  A    between atoms: N_5  and  C_18
REMARK    4  A    between atoms: C_13  and  C_17
REMARK    5  A    between atoms: C_17  and  C_20
REMARK    6  A    between atoms: C_18  and  C_21
REMARK    7  A    between atoms: C_20  and  C_22
REMARK                            x       y       z     vdW  Elec       q    Type
REMARK                         _______ _______ _______ _____ _____    ______ ____
ROOT
ATOM      1  O   UNL     1       1.165  -1.091   0.893  0.00  0.00    -0.274 OA
ATOM      4  N   UNL     1       0.203   2.372  -0.547  0.00  0.00    -0.296 NA
ATOM      5  N   UNL     1       3.227   0.369  -0.060  0.00  0.00    -0.283 NA
ATOM      6  N   UNL     1       0.054   0.694   1.795  0.00  0.00    -0.312 N 
ATOM     10  C   UNL     1       1.662   2.199  -0.366  0.00  0.00    +0.084 C 
ATOM     11  C   UNL     1       2.161   1.115   0.634  0.00  0.00    +0.161 C 
ATOM     12  C   UNL     1       2.411   1.814  -1.655  0.00  0.00    +0.036 C 
ATOM     13  C   UNL     1      -0.520   2.826   0.673  0.00  0.00    +0.074 C 
ATOM     14  C   UNL     1       3.706   1.217  -1.146  0.00  0.00    +0.087 C 
ATOM     15  C   UNL     1      -0.096   2.124   1.978  0.00  0.00    +0.123 C 
ATOM     16  C   UNL     1       1.097   0.120   1.093  0.00  0.00    +0.232 C 
ATOM     19  C   UNL     1      -0.080   3.276  -1.675  0.00  0.00    +0.105 C 
ATOM     30  H   UNL     1      -0.646   0.077   2.196  0.00  0.00    +0.149 HD
ENDROOT
BRANCH  13  17
ATOM     17  C   UNL     1      -2.040   2.620   0.508  0.00  0.00    +0.029 C 
BRANCH  17  20
ATOM     20  C   UNL     1      -2.373   1.225   0.017  0.00  0.00    +0.097 C 
BRANCH  20  22
ATOM      2  O   UNL     1      -4.618   1.966   0.174  0.00  0.00    -0.276 OA
ATOM      7  N   UNL     1      -4.296  -0.215  -0.559  0.00  0.00    -0.301 N 
ATOM     22  C   UNL     1      -3.863   1.033  -0.114  0.00  0.00    +0.216 C 
ATOM     23  C   UNL     1      -3.421  -1.342  -0.909  0.00  0.00    +0.110 C 
ATOM     24  C   UNL     1      -5.726  -0.463  -0.756  0.00  0.00    +0.110 C 
ATOM     25  C   UNL     1      -3.829  -2.600  -0.147  0.00  0.00    +0.050 C 
ATOM     26  C   UNL     1      -6.174  -1.703   0.010  0.00  0.00    +0.050 C 
ATOM     27  C   UNL     1      -5.311  -2.915  -0.346  0.00  0.00    +0.118 C 
BRANCH  27   3
ATOM      3  O   UNL     1      -5.662  -4.017   0.482  0.00  0.00    -0.392 OA
ATOM     32  H   UNL     1      -6.607  -4.197   0.345  0.00  0.00    +0.210 HD
ENDBRANCH  27   3
ENDBRANCH  20  22
ENDBRANCH  17  20
ENDBRANCH  13  17
BRANCH   5  18
ATOM     18  C   UNL     1       4.307  -0.052   0.823  0.00  0.00    +0.159 C 
BRANCH  18  21
ATOM      8  N   UNL     1       4.589  -2.478   0.264  0.00  0.00    -0.347 N 
ATOM      9  N   UNL     1       6.273  -1.151  -0.315  0.00  0.00    -0.239 NA
ATOM     21  C   UNL     1       5.086  -1.205   0.247  0.00  0.00    +0.121 A 
ATOM     28  C   UNL     1       5.519  -3.289  -0.325  0.00  0.00    +0.104 A 
ATOM     29  C   UNL     1       6.549  -2.447  -0.673  0.00  0.00    +0.130 A 
ATOM     31  H   UNL     1       3.696  -2.769   0.641  0.00  0.00    +0.167 HD
ENDBRANCH  18  21
ENDBRANCH   5  18
TORSDOF 6
