REMARK  Name = 75536938
REMARK  4 active torsions:
REMARK  status: ('A' for Active; 'I' for Inactive)
REMARK    1  A    between atoms: O_2  and  C_6
REMARK    2  A    between atoms: O_2  and  C_12
REMARK    3  A    between atoms: N_3  and  C_9
REMARK    4  A    between atoms: C_9  and  C_11
REMARK                            x       y       z     vdW  Elec       q    Type
REMARK                         _______ _______ _______ _____ _____    ______ ____
ROOT
ATOM      1  O   UNL     1       3.373  -1.311   0.585  0.00  0.00    -0.376 OA
ATOM      3  N   UNL     1       0.474  -0.845  -0.465  0.00  0.00    -0.292 NA
ATOM      5  C   UNL     1       0.907   0.553  -0.364  0.00  0.00    +0.118 C 
ATOM      6  C   UNL     1       2.354   0.826   0.078  0.00  0.00    +0.157 C 
ATOM      7  C   UNL     1       1.501  -1.760  -0.964  0.00  0.00    +0.113 C 
ATOM      8  C   UNL     1       2.866  -0.112   1.163  0.00  0.00    +0.192 C 
ATOM     10  C   UNL     1       2.376  -2.244   0.194  0.00  0.00    +0.175 C 
ENDROOT
BRANCH   6   2
ATOM      2  O   UNL     1       2.420   2.160   0.582  0.00  0.00    -0.376 OA
ATOM     12  C   UNL     1       2.503   3.106  -0.473  0.00  0.00    +0.194 C 
ENDBRANCH   6   2
BRANCH   3   9
ATOM      9  C   UNL     1      -0.754  -0.935  -1.255  0.00  0.00    +0.140 C 
BRANCH   9  11
ATOM      4  N   UNL     1      -2.386   0.829  -0.869  0.00  0.00    -0.259 NA
ATOM     11  C   UNL     1      -1.944  -0.396  -0.506  0.00  0.00    +0.055 A 
ATOM     13  C   UNL     1      -2.518  -1.162   0.496  0.00  0.00    +0.024 A 
ATOM     14  C   UNL     1      -3.616  -0.637   1.168  0.00  0.00    +0.003 A 
ATOM     15  C   UNL     1      -3.455   1.307  -0.194  0.00  0.00    +0.111 A 
ATOM     16  C   UNL     1      -4.100   0.621   0.823  0.00  0.00    +0.020 A 
ENDBRANCH   9  11
ENDBRANCH   3   9
TORSDOF 3
