REMARK  Name = 45361661
REMARK  10 active torsions:
REMARK  status: ('A' for Active; 'I' for Inactive)
REMARK    1  A    between atoms: O_2  and  C_12
REMARK    2  A    between atoms: N_6  and  C_16
REMARK    3  A    between atoms: N_7  and  C_25
REMARK    4  A    between atoms: N_8  and  C_26
REMARK    5  A    between atoms: C_9  and  C_19
REMARK    6  A    between atoms: C_11  and  C_21
REMARK    7  A    between atoms: C_15  and  C_20
REMARK    8  A    between atoms: C_20  and  C_22
REMARK    9  A    between atoms: C_20  and  C_23
REMARK   10  A    between atoms: C_25  and  C_27
REMARK                            x       y       z     vdW  Elec       q    Type
REMARK                         _______ _______ _______ _____ _____    ______ ____
ROOT
ATOM      9  C   UNL     1      -0.764  -0.445  -1.598  0.00  0.00    -0.027 C 
ATOM     10  C   UNL     1      -0.534  -0.669  -0.066  0.00  0.00    +0.028 C 
ATOM     11  C   UNL     1       0.924  -1.183   0.211  0.00  0.00    +0.012 C 
ATOM     12  C   UNL     1      -1.674  -1.525   0.556  0.00  0.00    +0.122 C 
ATOM     13  C   UNL     1      -2.166   0.166  -1.825  0.00  0.00    +0.007 C 
ATOM     14  C   UNL     1       0.281   0.566  -2.122  0.00  0.00    +0.009 C 
ATOM     15  C   UNL     1      -3.080  -0.966   0.237  0.00  0.00    +0.029 C 
ATOM     16  C   UNL     1       1.966  -0.195  -0.386  0.00  0.00    +0.078 C 
ATOM     17  C   UNL     1      -3.288  -0.690  -1.252  0.00  0.00    +0.007 C 
ATOM     18  C   UNL     1       1.716   0.134  -1.858  0.00  0.00    +0.023 C 
ATOM     19  C   UNL     1      -0.656  -1.759  -2.413  0.00  0.00    +0.011 C 
ATOM     21  C   UNL     1       1.228  -1.397   1.704  0.00  0.00    +0.010 C 
ENDROOT
BRANCH  16   6
ATOM      4  O   UNL     1       4.341   1.365  -0.025  0.00  0.00    -0.253 OA
ATOM      6  N   UNL     1       3.318  -0.696  -0.251  0.00  0.00    -0.296 N 
ATOM      8  N   UNL     1       5.592  -0.621   0.023  0.00  0.00    -0.269 N 
ATOM     24  C   UNL     1       4.424   0.140  -0.077  0.00  0.00    +0.304 C 
ATOM     36  H   UNL     1       3.477  -1.692  -0.367  0.00  0.00    +0.151 HD
ATOM     39  H   UNL     1       5.486  -1.630  -0.040  0.00  0.00    +0.156 HD
BRANCH   8  26
ATOM      1  F   UNL     1       8.719   2.980   0.577  0.00  0.00    -0.205 F 
ATOM     26  C   UNL     1       6.916  -0.158   0.204  0.00  0.00    +0.037 A 
ATOM     28  C   UNL     1       7.170   1.210   0.304  0.00  0.00    +0.061 A 
ATOM     29  C   UNL     1       7.969  -1.070   0.281  0.00  0.00    +0.023 A 
ATOM     31  C   UNL     1       8.476   1.666   0.482  0.00  0.00    +0.125 A 
ATOM     32  C   UNL     1       9.275  -0.614   0.459  0.00  0.00    +0.005 A 
ATOM     35  C   UNL     1       9.529   0.754   0.559  0.00  0.00    +0.038 A 
ENDBRANCH   8  26
ENDBRANCH  16   6
BRANCH  12   2
ATOM      2  O   UNL     1      -1.548  -1.526   1.979  0.00  0.00    -0.391 OA
ATOM     37  H   UNL     1      -1.612  -0.607   2.288  0.00  0.00    +0.210 HD
ENDBRANCH  12   2
BRANCH  15  20
ATOM     20  C   UNL     1      -4.191  -1.893   0.746  0.00  0.00    +0.077 C 
ATOM     22  C   UNL     1      -4.061  -3.269   0.103  0.00  0.00    +0.017 C 
BRANCH  20  23
ATOM      3  O   UNL     1      -6.187  -1.498  -0.566  0.00  0.00    -0.276 OA
ATOM      7  N   UNL     1      -5.984  -0.443   1.489  0.00  0.00    -0.308 N 
ATOM     23  C   UNL     1      -5.556  -1.273   0.464  0.00  0.00    +0.217 C 
ATOM     38  H   UNL     1      -5.383  -0.291   2.294  0.00  0.00    +0.149 HD
BRANCH   7  25
ATOM     25  C   UNL     1      -7.246   0.259   1.450  0.00  0.00    +0.178 C 
BRANCH  25  27
ATOM      5  O   UNL     1      -6.697   1.580  -0.515  0.00  0.00    -0.466 OA
ATOM     27  C   UNL     1      -7.125   1.595   0.775  0.00  0.00    +0.122 A 
ATOM     30  C   UNL     1      -7.364   2.884   1.190  0.00  0.00    +0.046 A 
ATOM     33  C   UNL     1      -7.062   3.715   0.085  0.00  0.00    +0.041 A 
ATOM     34  C   UNL     1      -6.661   2.875  -0.927  0.00  0.00    +0.195 A 
ENDBRANCH  25  27
ENDBRANCH   7  25
ENDBRANCH  20  23
ENDBRANCH  15  20
TORSDOF 7
