REMARK  Name = 26744529
REMARK  7 active torsions:
REMARK  status: ('A' for Active; 'I' for Inactive)
REMARK    1  A    between atoms: S_1  and  C_16
REMARK    2  A    between atoms: S_1  and  C_17
REMARK    3  A    between atoms: O_2  and  C_11
REMARK    4  A    between atoms: N_6  and  C_14
REMARK    5  A    between atoms: C_9  and  C_13
REMARK    6  A    between atoms: C_15  and  C_16
REMARK    7  A    between atoms: C_20  and  C_23
REMARK                            x       y       z     vdW  Elec       q    Type
REMARK                         _______ _______ _______ _____ _____    ______ ____
ROOT
ATOM      3  O   UNL     1       2.228   2.143  -0.801  0.00  0.00    -0.336 OA
ATOM      7  N   UNL     1       1.423   0.070  -0.527  0.00  0.00    -0.193 NA
ATOM      8  N   UNL     1       0.850   2.227  -1.032  0.00  0.00    -0.060 NA
ATOM     13  C   UNL     1       2.482   0.840  -0.511  0.00  0.00    +0.245 A 
ATOM     15  C   UNL     1       0.446   0.966  -0.852  0.00  0.00    +0.193 A 
ENDROOT
BRANCH  13   9
ATOM      6  N   UNL     1       4.095  -0.137   1.115  0.00  0.00    -0.292 NA
ATOM      9  C   UNL     1       3.924   0.482  -0.215  0.00  0.00    +0.148 C 
ATOM     10  C   UNL     1       4.497  -0.549  -1.206  0.00  0.00    +0.061 C 
ATOM     11  C   UNL     1       5.006  -1.691  -0.336  0.00  0.00    +0.130 C 
ATOM     12  C   UNL     1       5.245  -1.033   1.010  0.00  0.00    +0.116 C 
ATOM     14  C   UNL     1       4.255   0.838   2.186  0.00  0.00    +0.105 C 
BRANCH  11   2
ATOM      2  O   UNL     1       6.196  -2.237  -0.871  0.00  0.00    -0.390 OA
ATOM     24  H   UNL     1       5.989  -2.572  -1.761  0.00  0.00    +0.210 HD
ENDBRANCH  11   2
ENDBRANCH  13   9
BRANCH  15  16
ATOM     16  C   UNL     1      -0.960   0.572  -0.993  0.00  0.00    +0.251 C 
BRANCH  16   1
ATOM      1  S   UNL     1      -1.632   0.281   0.620  0.00  0.00    +0.004 S 
ATOM      4  O   UNL     1      -1.576   1.533   1.349  0.00  0.00    -0.169 OA
ATOM      5  O   UNL     1      -1.022  -0.917   1.164  0.00  0.00    -0.169 OA
BRANCH   1  17
ATOM     17  C   UNL     1      -3.330  -0.097   0.308  0.00  0.00    +0.089 A 
ATOM     18  C   UNL     1      -3.721  -1.418   0.090  0.00  0.00    +0.027 A 
ATOM     19  C   UNL     1      -4.278   0.925   0.278  0.00  0.00    +0.027 A 
ATOM     20  C   UNL     1      -6.009  -0.694  -0.189  0.00  0.00    -0.050 A 
ATOM     21  C   UNL     1      -5.061  -1.717  -0.159  0.00  0.00    +0.005 A 
ATOM     22  C   UNL     1      -5.618   0.627   0.029  0.00  0.00    +0.005 A 
ATOM     23  C   UNL     1      -7.441  -1.013  -0.455  0.00  0.00    +0.044 C 
ENDBRANCH   1  17
ENDBRANCH  16   1
ENDBRANCH  15  16
TORSDOF 5
