REMARK  Name = 40776957
REMARK  14 active torsions:
REMARK  status: ('A' for Active; 'I' for Inactive)
REMARK    1  A    between atoms: S_1  and  C_27
REMARK    2  A    between atoms: S_1  and  C_34
REMARK    3  A    between atoms: O_3  and  C_35
REMARK    4  A    between atoms: N_6  and  C_17
REMARK    5  A    between atoms: C_11  and  C_18
REMARK    6  A    between atoms: C_12  and  C_17
REMARK    7  A    between atoms: C_20  and  C_21
REMARK    8  A    between atoms: C_21  and  C_24
REMARK    9  A    between atoms: C_21  and  C_25
REMARK   10  A    between atoms: C_22  and  C_26
REMARK   11  A    between atoms: C_23  and  C_27
REMARK   12  A    between atoms: C_24  and  C_28
REMARK   13  A    between atoms: C_25  and  C_29
REMARK   14  A    between atoms: C_34  and  C_35
REMARK                            x       y       z     vdW  Elec       q    Type
REMARK                         _______ _______ _______ _____ _____    ______ ____
ROOT
ATOM      5  N   UNL     1       0.741   4.068   0.718  0.00  0.00    -0.297 NA
ATOM     10  C   UNL     1      -0.070   2.878  -1.452  0.00  0.00    +0.002 C 
ATOM     11  C   UNL     1      -1.107   2.691  -0.310  0.00  0.00    +0.055 C 
ATOM     12  C   UNL     1       1.826   3.210   0.173  0.00  0.00    +0.074 C 
ATOM     13  C   UNL     1       1.301   2.341  -0.990  0.00  0.00    +0.024 C 
ATOM     14  C   UNL     1       0.087   4.399  -1.666  0.00  0.00    +0.019 C 
ATOM     15  C   UNL     1      -0.465   3.248   0.993  0.00  0.00    +0.094 C 
ATOM     16  C   UNL     1       0.392   5.071  -0.316  0.00  0.00    +0.085 C 
ENDROOT
BRANCH  11  18
ATOM      7  N   UNL     1      -0.860   0.309   0.185  0.00  0.00    -0.232 NA
ATOM      8  N   UNL     1      -2.745  -1.189   0.264  0.00  0.00    -0.232 NA
ATOM     18  C   UNL     1      -1.715   1.310  -0.110  0.00  0.00    +0.050 A 
ATOM     19  C   UNL     1      -3.079   1.142  -0.232  0.00  0.00    +0.047 A 
ATOM     20  C   UNL     1      -3.543  -0.142  -0.033  0.00  0.00    +0.048 A 
ATOM     22  C   UNL     1      -1.434  -0.897   0.357  0.00  0.00    +0.160 A 
BRANCH  22  26
ATOM      9  N   UNL     1       1.160  -4.116   1.277  0.00  0.00    -0.263 NA
ATOM     26  C   UNL     1      -0.552  -1.991   0.670  0.00  0.00    +0.022 A 
ATOM     30  C   UNL     1       0.625  -1.760   1.372  0.00  0.00    +0.031 A 
ATOM     31  C   UNL     1      -0.875  -3.283   0.270  0.00  0.00    +0.031 A 
ATOM     32  C   UNL     1       1.440  -2.846   1.648  0.00  0.00    +0.111 A 
ATOM     33  C   UNL     1       0.007  -4.301   0.596  0.00  0.00    +0.111 A 
ENDBRANCH  22  26
BRANCH  20  21
ATOM     21  C   UNL     1      -5.004  -0.420  -0.144  0.00  0.00    +0.037 C 
BRANCH  21  24
ATOM     24  C   UNL     1      -5.348  -1.425  -1.283  0.00  0.00    +0.006 C 
ATOM     28  C   UNL     1      -4.925  -0.927  -2.660  0.00  0.00    +0.004 C 
ENDBRANCH  21  24
BRANCH  21  25
ATOM     25  C   UNL     1      -5.629  -0.941   1.183  0.00  0.00    +0.006 C 
ATOM     29  C   UNL     1      -5.494   0.054   2.331  0.00  0.00    +0.004 C 
ENDBRANCH  21  25
ENDBRANCH  20  21
ENDBRANCH  11  18
BRANCH  12  17
ATOM     17  C   UNL     1       2.502   2.366   1.256  0.00  0.00    +0.123 C 
BRANCH  17   6
ATOM      2  O   UNL     1       3.518  -0.195   2.143  0.00  0.00    -0.275 OA
ATOM      6  N   UNL     1       3.613   1.643   0.720  0.00  0.00    -0.313 N 
ATOM     23  C   UNL     1       4.039   0.409   1.207  0.00  0.00    +0.223 C 
ATOM     36  H   UNL     1       4.167   2.097  -0.000  0.00  0.00    +0.149 HD
BRANCH  23  27
ATOM     27  C   UNL     1       5.246  -0.140   0.482  0.00  0.00    +0.165 C 
BRANCH  27   1
ATOM      1  S   UNL     1       4.804  -1.719  -0.281  0.00  0.00    -0.140 S 
BRANCH   1  34
ATOM     34  C   UNL     1       3.473  -1.135  -1.357  0.00  0.00    +0.189 C 
BRANCH  34  35
ATOM      4  O   UNL     1       3.565  -3.275  -2.462  0.00  0.00    -0.250 OA
ATOM     35  C   UNL     1       2.913  -2.293  -2.132  0.00  0.00    +0.315 C 
BRANCH  35   3
ATOM      3  O   UNL     1       1.595  -2.143  -2.417  0.00  0.00    -0.480 OA
ATOM     37  H   UNL     1       1.238  -2.911  -2.913  0.00  0.00    +0.295 HD
ENDBRANCH  35   3
ENDBRANCH  34  35
ENDBRANCH   1  34
ENDBRANCH  27   1
ENDBRANCH  23  27
ENDBRANCH  17   6
ENDBRANCH  12  17
TORSDOF 12
