REMARK  Name = 51136835
REMARK  7 active torsions:
REMARK  status: ('A' for Active; 'I' for Inactive)
REMARK    1  A    between atoms: O_5  and  C_31
REMARK    2  A    between atoms: O_5  and  C_37
REMARK    3  A    between atoms: N_7  and  C_17
REMARK    4  A    between atoms: C_13  and  C_18
REMARK    5  A    between atoms: C_17  and  C_19
REMARK    6  A    between atoms: C_24  and  C_28
REMARK    7  A    between atoms: C_30  and  C_36
REMARK                            x       y       z     vdW  Elec       q    Type
REMARK                         _______ _______ _______ _____ _____    ______ ____
ROOT
ATOM      4  O   UNL     1      -4.062   1.902  -0.707  0.00  0.00    -0.336 OA
ATOM     10  N   UNL     1      -2.203   1.178   0.311  0.00  0.00    -0.190 NA
ATOM     11  N   UNL     1      -2.988   2.399  -1.457  0.00  0.00    -0.056 NA
ATOM     18  C   UNL     1      -3.511   1.195   0.315  0.00  0.00    +0.245 A 
ATOM     24  C   UNL     1      -1.927   1.929  -0.794  0.00  0.00    +0.202 A 
ENDROOT
BRANCH  24  28
ATOM      6  O   UNL     1       6.096  -0.053   3.377  0.00  0.00    -0.276 OA
ATOM      8  N   UNL     1       2.831   1.442  -0.184  0.00  0.00    -0.312 N 
ATOM      9  N   UNL     1       4.990   0.292   1.363  0.00  0.00    -0.299 N 
ATOM     12  N   UNL     1       2.048   2.707  -2.018  0.00  0.00    -0.240 NA
ATOM     20  C   UNL     1       4.104   1.100  -0.823  0.00  0.00    +0.125 C 
ATOM     21  C   UNL     1       2.712   1.259   1.265  0.00  0.00    +0.125 C 
ATOM     22  C   UNL     1       4.812  -0.018  -0.057  0.00  0.00    +0.126 C 
ATOM     23  C   UNL     1       4.088   1.292   1.927  0.00  0.00    +0.126 C 
ATOM     25  C   UNL     1       1.772   1.963  -0.924  0.00  0.00    +0.122 A 
ATOM     28  C   UNL     1      -0.578   2.194  -1.209  0.00  0.00    +0.027 A 
ATOM     29  C   UNL     1       0.489   1.680  -0.481  0.00  0.00    +0.055 A 
ATOM     30  C   UNL     1       5.945  -0.312   2.181  0.00  0.00    +0.213 C 
ATOM     33  C   UNL     1      -0.335   2.964  -2.341  0.00  0.00    +0.031 A 
ATOM     35  C   UNL     1       0.984   3.189  -2.700  0.00  0.00    +0.113 A 
ATOM     36  C   UNL     1       6.832  -1.341   1.523  0.00  0.00    +0.109 C 
ENDBRANCH  24  28
BRANCH  18  13
ATOM      7  N   UNL     1      -3.915  -0.660   1.925  0.00  0.00    -0.287 NA
ATOM     13  C   UNL     1      -4.478   0.546   1.284  0.00  0.00    +0.146 C 
ATOM     14  C   UNL     1      -4.856   1.471   2.455  0.00  0.00    +0.030 C 
ATOM     15  C   UNL     1      -4.527   0.677   3.712  0.00  0.00    +0.017 C 
ATOM     16  C   UNL     1      -4.549  -0.763   3.239  0.00  0.00    +0.085 C 
BRANCH   7  17
ATOM     17  C   UNL     1      -4.096  -1.869   1.132  0.00  0.00    +0.120 C 
BRANCH  17  19
ATOM     19  C   UNL     1      -3.082  -1.971   0.025  0.00  0.00    -0.030 A 
ATOM     26  C   UNL     1      -1.720  -1.982   0.326  0.00  0.00    +0.051 A 
ATOM     27  C   UNL     1      -3.503  -2.054  -1.303  0.00  0.00    +0.005 A 
ATOM     31  C   UNL     1      -0.779  -2.075  -0.701  0.00  0.00    +0.130 A 
ATOM     32  C   UNL     1      -2.563  -2.147  -2.329  0.00  0.00    +0.004 A 
ATOM     34  C   UNL     1      -1.201  -2.158  -2.028  0.00  0.00    +0.046 A 
BRANCH  31   5
ATOM      5  O   UNL     1       0.550  -2.085  -0.406  0.00  0.00    -0.406 OA
BRANCH   5  37
ATOM      1  F   UNL     1       0.799  -3.840  -1.851  0.00  0.00    -0.133 F 
ATOM      2  F   UNL     1       2.461  -3.277  -0.549  0.00  0.00    -0.133 F 
ATOM      3  F   UNL     1       1.932  -1.980  -2.225  0.00  0.00    -0.133 F 
ATOM     37  C   UNL     1       1.427  -2.794  -1.274  0.00  0.00    +0.575 C 
ENDBRANCH   5  37
ENDBRANCH  31   5
ENDBRANCH  17  19
ENDBRANCH   7  17
ENDBRANCH  18  13
TORSDOF 6
