REMARK  Name = 40778215
REMARK  12 active torsions:
REMARK  status: ('A' for Active; 'I' for Inactive)
REMARK    1  A    between atoms: O_2  and  C_12
REMARK    2  A    between atoms: O_3  and  C_13
REMARK    3  A    between atoms: O_5  and  C_24
REMARK    4  A    between atoms: O_5  and  C_32
REMARK    5  A    between atoms: N_8  and  C_22
REMARK    6  A    between atoms: N_9  and  C_16
REMARK    7  A    between atoms: N_10  and  C_26
REMARK    8  A    between atoms: C_11  and  C_15
REMARK    9  A    between atoms: C_14  and  C_16
REMARK   10  A    between atoms: C_15  and  C_17
REMARK   11  A    between atoms: C_26  and  C_30
REMARK   12  A    between atoms: C_26  and  C_31
REMARK                            x       y       z     vdW  Elec       q    Type
REMARK                         _______ _______ _______ _____ _____    ______ ____
ROOT
ATOM      1  O   UNL     1      -3.527  -0.379  -0.503  0.00  0.00    -0.366 OA
ATOM     11  C   UNL     1      -3.338  -1.746  -0.097  0.00  0.00    +0.159 C 
ATOM     12  C   UNL     1      -4.338  -1.985   1.022  0.00  0.00    +0.175 C 
ATOM     13  C   UNL     1      -5.511  -1.143   0.564  0.00  0.00    +0.176 C 
ATOM     14  C   UNL     1      -4.815   0.077  -0.028  0.00  0.00    +0.167 C 
ENDROOT
BRANCH  12   2
ATOM      2  O   UNL     1      -4.654  -3.353   1.167  0.00  0.00    -0.387 OA
ATOM     33  H   UNL     1      -5.378  -3.417   1.812  0.00  0.00    +0.210 HD
ENDBRANCH  12   2
BRANCH  13   3
ATOM      3  O   UNL     1      -6.216  -1.804  -0.486  0.00  0.00    -0.387 OA
ATOM     34  H   UNL     1      -6.933  -1.214  -0.771  0.00  0.00    +0.210 HD
ENDBRANCH  13   3
BRANCH  11  15
ATOM     15  C   UNL     1      -1.896  -1.958   0.329  0.00  0.00    +0.130 C 
BRANCH  15  17
ATOM      4  O   UNL     1      -1.444  -1.236  -1.883  0.00  0.00    -0.276 OA
ATOM      7  N   UNL     1       0.397  -1.719  -0.552  0.00  0.00    -0.298 N 
ATOM      8  N   UNL     1       2.948  -0.749   0.163  0.00  0.00    -0.324 N 
ATOM     17  C   UNL     1      -0.968  -1.604  -0.806  0.00  0.00    +0.218 C 
ATOM     18  C   UNL     1       1.000  -2.152   0.710  0.00  0.00    +0.126 C 
ATOM     19  C   UNL     1       1.368  -1.420  -1.601  0.00  0.00    +0.126 C 
ATOM     20  C   UNL     1       1.992  -1.107   1.220  0.00  0.00    +0.124 C 
ATOM     21  C   UNL     1       2.363  -0.362  -1.131  0.00  0.00    +0.124 C 
BRANCH   8  22
ATOM     22  C   UNL     1       4.185  -0.193   0.509  0.00  0.00    +0.072 A 
ATOM     24  C   UNL     1       5.307  -0.402  -0.293  0.00  0.00    +0.141 A 
ATOM     25  C   UNL     1       4.290   0.577   1.667  0.00  0.00    +0.027 A 
ATOM     27  C   UNL     1       6.533   0.159   0.063  0.00  0.00    +0.047 A 
ATOM     28  C   UNL     1       5.516   1.138   2.023  0.00  0.00    +0.002 A 
ATOM     29  C   UNL     1       6.638   0.929   1.221  0.00  0.00    +0.004 A 
BRANCH  24   5
ATOM      5  O   UNL     1       5.226  -1.152  -1.428  0.00  0.00    -0.493 OA
ATOM     32  C   UNL     1       5.472  -2.551  -1.298  0.00  0.00    +0.277 C 
ENDBRANCH  24   5
ENDBRANCH   8  22
ENDBRANCH  15  17
ENDBRANCH  11  15
BRANCH  14  16
ATOM     16  C   UNL     1      -4.571   1.179   0.994  0.00  0.00    +0.140 C 
BRANCH  16   9
ATOM      6  O   UNL     1      -1.726   1.615   0.780  0.00  0.00    -0.253 OA
ATOM      9  N   UNL     1      -3.912   2.303   0.397  0.00  0.00    -0.297 N 
ATOM     10  N   UNL     1      -2.151   3.624  -0.299  0.00  0.00    -0.297 N 
ATOM     23  C   UNL     1      -2.521   2.440   0.333  0.00  0.00    +0.300 C 
ATOM     35  H   UNL     1      -4.486   3.034  -0.011  0.00  0.00    +0.150 HD
ATOM     36  H   UNL     1      -2.880   4.205  -0.702  0.00  0.00    +0.150 HD
BRANCH  10  26
ATOM     26  C   UNL     1      -0.773   4.009  -0.496  0.00  0.00    +0.068 C 
ATOM     30  C   UNL     1      -0.635   5.525  -0.456  0.00  0.00    +0.027 C 
ATOM     31  C   UNL     1      -0.241   3.441  -1.805  0.00  0.00    +0.027 C 
ENDBRANCH  10  26
ENDBRANCH  16   9
ENDBRANCH  14  16
TORSDOF 9
