REMARK  Name = 71694393
REMARK  7 active torsions:
REMARK  status: ('A' for Active; 'I' for Inactive)
REMARK    1  A    between atoms: O_3  and  C_20
REMARK    2  A    between atoms: N_4  and  C_6
REMARK    3  A    between atoms: N_4  and  C_8
REMARK    4  A    between atoms: C_6  and  C_13
REMARK    5  A    between atoms: C_7  and  C_8
REMARK    6  A    between atoms: C_13  and  C_17
REMARK    7  A    between atoms: C_19  and  C_20
REMARK                            x       y       z     vdW  Elec       q    Type
REMARK                         _______ _______ _______ _____ _____    ______ ____
ROOT
ATOM      1  O   UNL     1       0.181  -3.422  -0.419  0.00  0.00    -0.376 OA
ATOM      6  C   UNL     1       0.247  -1.408   0.291  0.00  0.00    +0.072 C 
ATOM     11  C   UNL     1      -0.634  -2.647   0.500  0.00  0.00    +0.184 C 
ATOM     12  C   UNL     1       0.857  -2.216  -0.862  0.00  0.00    +0.184 C 
ENDROOT
BRANCH   6   4
ATOM      4  N   UNL     1      -0.579  -0.337  -0.279  0.00  0.00    -0.306 NA
ATOM     21  H   UNL     1      -0.066   0.461  -0.650  0.00  0.00    +0.123 HD
BRANCH   4   8
ATOM      8  C   UNL     1      -1.553   0.102   0.708  0.00  0.00    +0.085 C 
BRANCH   8   7
ATOM      7  C   UNL     1      -2.767   0.735   0.030  0.00  0.00    +0.003 C 
ATOM      9  C   UNL     1      -3.467  -0.279  -0.885  0.00  0.00    +0.005 C 
ATOM     10  C   UNL     1      -3.742   1.293   1.075  0.00  0.00    +0.005 C 
ATOM     14  C   UNL     1      -4.715   0.316  -1.534  0.00  0.00    +0.000 C 
ATOM     15  C   UNL     1      -4.990   1.884   0.423  0.00  0.00    +0.000 C 
ATOM     16  C   UNL     1      -5.678   0.877  -0.492  0.00  0.00    +0.000 C 
ENDBRANCH   8   7
ENDBRANCH   4   8
ENDBRANCH   6   4
BRANCH   6  13
ATOM     13  C   UNL     1       1.141  -0.939   1.410  0.00  0.00    +0.085 C 
BRANCH  13  17
ATOM      2  O   UNL     1       3.205   1.798   0.277  0.00  0.00    -0.357 OA
ATOM      5  N   UNL     1       2.026   1.280   0.799  0.00  0.00    -0.083 NA
ATOM     17  C   UNL     1       2.230  -0.038   0.875  0.00  0.00    +0.086 A 
ATOM     18  C   UNL     1       3.507  -0.407   0.419  0.00  0.00    +0.073 A 
ATOM     19  C   UNL     1       4.080   0.783   0.055  0.00  0.00    +0.163 A 
BRANCH  19  20
ATOM     20  C   UNL     1       5.387   1.155  -0.500  0.00  0.00    +0.232 C 
BRANCH  20   3
ATOM      3  O   UNL     1       5.264   1.470  -1.890  0.00  0.00    -0.387 OA
ATOM     22  H   UNL     1       6.153   1.708  -2.205  0.00  0.00    +0.210 HD
ENDBRANCH  20   3
ENDBRANCH  19  20
ENDBRANCH  13  17
ENDBRANCH   6  13
TORSDOF 7
