REMARK  Name = 7164827
REMARK  15 active torsions:
REMARK  status: ('A' for Active; 'I' for Inactive)
REMARK    1  A    between atoms: O_4  and  C_20
REMARK    2  A    between atoms: O_4  and  C_29
REMARK    3  A    between atoms: O_5  and  C_23
REMARK    4  A    between atoms: O_5  and  C_33
REMARK    5  A    between atoms: O_7  and  C_32
REMARK    6  A    between atoms: O_7  and  C_34
REMARK    7  A    between atoms: N_10  and  C_19
REMARK    8  A    between atoms: N_11  and  C_22
REMARK    9  A    between atoms: C_12  and  C_16
REMARK   10  A    between atoms: C_17  and  C_20
REMARK   11  A    between atoms: C_19  and  C_21
REMARK   12  A    between atoms: C_19  and  C_23
REMARK   13  A    between atoms: C_21  and  C_24
REMARK   14  A    between atoms: C_22  and  C_25
REMARK   15  A    between atoms: C_22  and  C_26
REMARK                            x       y       z     vdW  Elec       q    Type
REMARK                         _______ _______ _______ _____ _____    ______ ____
ROOT
ATOM      2  O   UNL     1      -2.216   3.457   0.555  0.00  0.00    -0.273 OA
ATOM      3  O   UNL     1      -3.697  -3.555   0.370  0.00  0.00    -0.253 OA
ATOM      8  N   UNL     1      -2.992   1.284   0.258  0.00  0.00    -0.285 N 
ATOM      9  N   UNL     1      -2.885  -1.475   0.994  0.00  0.00    -0.282 N 
ATOM     11  N   UNL     1      -1.498  -3.390   0.996  0.00  0.00    -0.297 N 
ATOM     12  C   UNL     1      -1.705   0.686   0.633  0.00  0.00    +0.179 C 
ATOM     13  C   UNL     1      -1.839  -0.572   1.495  0.00  0.00    +0.141 C 
ATOM     14  C   UNL     1      -4.040   0.349  -0.183  0.00  0.00    +0.127 C 
ATOM     15  C   UNL     1      -4.176  -0.826   0.774  0.00  0.00    +0.128 C 
ATOM     17  C   UNL     1      -3.097   2.677   0.184  0.00  0.00    +0.242 C 
ATOM     18  C   UNL     1      -2.757  -2.854   0.759  0.00  0.00    +0.303 C 
ATOM     36  H   UNL     1      -0.700  -2.793   1.163  0.00  0.00    +0.150 HD
ENDROOT
BRANCH  12  16
ATOM      1  O   UNL     1      -1.496   0.608  -1.746  0.00  0.00    -0.274 OA
ATOM     10  N   UNL     1       0.279  -0.133  -0.434  0.00  0.00    -0.301 N 
ATOM     16  C   UNL     1      -0.981   0.398  -0.651  0.00  0.00    +0.236 C 
ATOM     35  H   UNL     1       0.636  -0.204   0.514  0.00  0.00    +0.150 HD
BRANCH  10  19
ATOM     19  C   UNL     1       1.169  -0.518  -1.505  0.00  0.00    +0.186 C 
BRANCH  19  23
ATOM      6  O   UNL     1       1.980  -2.262  -0.041  0.00  0.00    -0.249 OA
ATOM     23  C   UNL     1       2.004  -1.742  -1.152  0.00  0.00    +0.328 C 
BRANCH  23   5
ATOM      5  O   UNL     1       2.772  -2.159  -2.198  0.00  0.00    -0.467 OA
ATOM     33  C   UNL     1       3.604  -3.296  -1.944  0.00  0.00    +0.280 C 
ENDBRANCH  23   5
ENDBRANCH  19  23
BRANCH  19  21
ATOM     21  C   UNL     1       2.041   0.662  -1.958  0.00  0.00    +0.069 C 
BRANCH  21  24
ATOM     24  C   UNL     1       2.994   1.184  -0.906  0.00  0.00    -0.045 A 
ATOM     27  C   UNL     1       4.279   0.652  -0.805  0.00  0.00    +0.007 A 
ATOM     28  C   UNL     1       2.587   2.197  -0.037  0.00  0.00    +0.007 A 
ATOM     30  C   UNL     1       5.159   1.133   0.165  0.00  0.00    +0.046 A 
ATOM     31  C   UNL     1       3.467   2.678   0.933  0.00  0.00    +0.046 A 
ATOM     32  C   UNL     1       4.752   2.146   1.034  0.00  0.00    +0.120 A 
BRANCH  32   7
ATOM      7  O   UNL     1       5.610   2.615   1.981  0.00  0.00    -0.495 OA
ATOM     34  C   UNL     1       6.909   2.027   2.029  0.00  0.00    +0.277 C 
ENDBRANCH  32   7
ENDBRANCH  21  24
ENDBRANCH  19  21
ENDBRANCH  10  19
ENDBRANCH  12  16
BRANCH  11  22
ATOM     22  C   UNL     1      -1.211  -4.794   0.803  0.00  0.00    +0.068 C 
ATOM     25  C   UNL     1      -0.782  -5.060  -0.635  0.00  0.00    +0.027 C 
ATOM     26  C   UNL     1      -0.149  -5.258   1.791  0.00  0.00    +0.027 C 
ENDBRANCH  11  22
BRANCH  17  20
ATOM     20  C   UNL     1      -4.379   3.230  -0.386  0.00  0.00    +0.255 C 
BRANCH  20   4
ATOM      4  O   UNL     1      -4.272   4.631  -0.329  0.00  0.00    -0.374 OA
ATOM     29  C   UNL     1      -5.434   5.279  -0.845  0.00  0.00    +0.194 C 
ENDBRANCH  20   4
ENDBRANCH  17  20
TORSDOF 10
