REMARK  Name = 40779858
REMARK  8 active torsions:
REMARK  status: ('A' for Active; 'I' for Inactive)
REMARK    1  A    between atoms: S_2  and  N_7
REMARK    2  A    between atoms: S_2  and  C_19
REMARK    3  A    between atoms: N_6  and  C_15
REMARK    4  A    between atoms: N_6  and  C_17
REMARK    5  A    between atoms: N_6  and  C_18
REMARK    6  A    between atoms: N_7  and  C_16
REMARK    7  A    between atoms: C_9  and  C_15
REMARK    8  A    between atoms: C_10  and  C_16
REMARK                            x       y       z     vdW  Elec       q    Type
REMARK                         _______ _______ _______ _____ _____    ______ ____
ROOT
ATOM      5  N   UNL     1      -0.537   3.163  -0.762  0.00  0.00    -0.298 NA
ATOM      8  C   UNL     1       0.551   1.915   1.245  0.00  0.00    -0.002 C 
ATOM      9  C   UNL     1       1.169   1.452  -0.094  0.00  0.00    +0.023 C 
ATOM     10  C   UNL     1      -1.593   2.558   0.095  0.00  0.00    +0.072 C 
ATOM     11  C   UNL     1      -0.971   1.687   1.209  0.00  0.00    +0.024 C 
ATOM     12  C   UNL     1       0.390   2.114  -1.252  0.00  0.00    +0.090 C 
ATOM     13  C   UNL     1       0.782   3.436   1.342  0.00  0.00    +0.019 C 
ATOM     14  C   UNL     1       0.239   4.113   0.071  0.00  0.00    +0.085 C 
ENDROOT
BRANCH   9  15
ATOM     15  C   UNL     1       1.216  -0.067  -0.242  0.00  0.00    +0.109 C 
BRANCH  15   6
ATOM      6  N   UNL     1       2.289  -0.601   0.553  0.00  0.00    -0.333 N 
ATOM     17  C   UNL     1       1.976  -1.176   1.865  0.00  0.00    +0.129 C 
BRANCH   6  18
ATOM     18  C   UNL     1       3.620  -0.577   0.104  0.00  0.00    +0.029 A 
ATOM     20  C   UNL     1       3.926  -0.032  -1.143  0.00  0.00    +0.023 A 
ATOM     21  C   UNL     1       4.635  -1.098   0.906  0.00  0.00    +0.023 A 
ATOM     22  C   UNL     1       5.247  -0.008  -1.588  0.00  0.00    +0.002 A 
ATOM     23  C   UNL     1       5.957  -1.074   0.461  0.00  0.00    +0.002 A 
ATOM     26  C   UNL     1       6.263  -0.529  -0.786  0.00  0.00    +0.000 A 
ENDBRANCH   6  18
ENDBRANCH  15   6
ENDBRANCH   9  15
BRANCH  10  16
ATOM     16  C   UNL     1      -2.633   1.784  -0.718  0.00  0.00    +0.124 C 
BRANCH  16   7
ATOM      7  N   UNL     1      -3.698   1.353   0.146  0.00  0.00    -0.188 NA
ATOM     30  H   UNL     1      -3.860   1.855   1.026  0.00  0.00    +0.148 HD
BRANCH   7   2
ATOM      2  S   UNL     1      -4.581  -0.088  -0.180  0.00  0.00    +0.058 S 
ATOM      3  O   UNL     1      -5.088  -0.025  -1.537  0.00  0.00    -0.153 OA
ATOM      4  O   UNL     1      -5.478  -0.382   0.921  0.00  0.00    -0.153 OA
BRANCH   2  19
ATOM      1 CL   UNL     1      -0.010  -4.389  -0.020  0.00  0.00    -0.084 Cl
ATOM     19  C   UNL     1      -3.294  -1.299  -0.135  0.00  0.00    +0.105 A 
ATOM     24  C   UNL     1      -2.973  -1.931   1.067  0.00  0.00    +0.030 A 
ATOM     25  C   UNL     1      -2.600  -1.623  -1.301  0.00  0.00    +0.030 A 
ATOM     27  C   UNL     1      -1.957  -2.886   1.102  0.00  0.00    +0.022 A 
ATOM     28  C   UNL     1      -1.585  -2.579  -1.265  0.00  0.00    +0.022 A 
ATOM     29  C   UNL     1      -1.263  -3.210  -0.064  0.00  0.00    +0.041 A 
ENDBRANCH   2  19
ENDBRANCH   7   2
ENDBRANCH  16   7
ENDBRANCH  10  16
TORSDOF 7
