REMARK  Name = 71693803
REMARK  7 active torsions:
REMARK  status: ('A' for Active; 'I' for Inactive)
REMARK    1  A    between atoms: S_1  and  N_6
REMARK    2  A    between atoms: S_1  and  C_17
REMARK    3  A    between atoms: O_2  and  C_9
REMARK    4  A    between atoms: O_3  and  C_11
REMARK    5  A    between atoms: N_6  and  C_8
REMARK    6  A    between atoms: C_7  and  C_12
REMARK    7  A    between atoms: C_13  and  C_16
REMARK                            x       y       z     vdW  Elec       q    Type
REMARK                         _______ _______ _______ _____ _____    ______ ____
ROOT
ATOM      7  C   UNL     1      -0.094  -0.830   0.898  0.00  0.00    +0.043 C 
ATOM      8  C   UNL     1       1.170  -0.322   0.173  0.00  0.00    +0.115 C 
ATOM      9  C   UNL     1       2.208  -1.404   0.456  0.00  0.00    +0.162 C 
ATOM     10  C   UNL     1       0.086  -2.365   1.028  0.00  0.00    +0.043 C 
ATOM     11  C   UNL     1       1.404  -2.692   0.328  0.00  0.00    +0.145 C 
ENDROOT
BRANCH   7  12
ATOM     12  C   UNL     1      -1.377  -0.410   0.212  0.00  0.00    -0.040 A 
ATOM     13  C   UNL     1      -2.329   0.361   0.880  0.00  0.00    -0.047 A 
ATOM     14  C   UNL     1      -1.600  -0.803  -1.107  0.00  0.00    +0.004 A 
ATOM     15  C   UNL     1      -3.504   0.737   0.229  0.00  0.00    +0.003 A 
ATOM     16  C   UNL     1      -2.112   0.794   2.293  0.00  0.00    +0.044 C 
ATOM     18  C   UNL     1      -2.775  -0.427  -1.758  0.00  0.00    +0.000 A 
ATOM     19  C   UNL     1      -3.727   0.343  -1.090  0.00  0.00    +0.000 A 
ENDBRANCH   7  12
BRANCH   9   2
ATOM      2  O   UNL     1       3.277  -1.375  -0.471  0.00  0.00    -0.388 OA
ATOM     21  H   UNL     1       3.842  -2.145  -0.288  0.00  0.00    +0.210 HD
ENDBRANCH   9   2
BRANCH  11   3
ATOM      3  O   UNL     1       1.133  -2.991  -1.038  0.00  0.00    -0.389 OA
ATOM     22  H   UNL     1       0.587  -3.796  -1.058  0.00  0.00    +0.210 HD
ENDBRANCH  11   3
BRANCH   8   6
ATOM      6  N   UNL     1       1.609   0.969   0.754  0.00  0.00    -0.189 NA
ATOM     20  H   UNL     1       1.544   1.089   1.772  0.00  0.00    +0.148 HD
BRANCH   6   1
ATOM      1  S   UNL     1       1.788   2.317  -0.272  0.00  0.00    +0.027 S 
ATOM      4  O   UNL     1       2.169   1.880  -1.601  0.00  0.00    -0.158 OA
ATOM      5  O   UNL     1       2.564   3.322   0.430  0.00  0.00    -0.158 OA
ATOM     17  C   UNL     1       0.110   2.898  -0.346  0.00  0.00    +0.214 C 
ENDBRANCH   6   1
ENDBRANCH   8   6
TORSDOF 5
