REMARK  Name = 75536820
REMARK  6 active torsions:
REMARK  status: ('A' for Active; 'I' for Inactive)
REMARK    1  A    between atoms: O_3  and  C_8
REMARK    2  A    between atoms: N_5  and  C_7
REMARK    3  A    between atoms: N_5  and  C_10
REMARK    4  A    between atoms: N_6  and  C_14
REMARK    5  A    between atoms: C_9  and  C_14
REMARK    6  A    between atoms: C_15  and  C_16
REMARK                            x       y       z     vdW  Elec       q    Type
REMARK                         _______ _______ _______ _____ _____    ______ ____
ROOT
ATOM      1  O   UNL     1      -0.671  -1.144   0.356  0.00  0.00    -0.371 OA
ATOM      7  C   UNL     1      -2.831  -0.215   0.019  0.00  0.00    +0.111 C 
ATOM      8  C   UNL     1      -1.958   0.805   0.727  0.00  0.00    +0.164 C 
ATOM      9  C   UNL     1      -0.567   0.289   0.385  0.00  0.00    +0.165 C 
ATOM     11  C   UNL     1      -2.062  -1.501   0.279  0.00  0.00    +0.181 C 
ENDROOT
BRANCH   8   3
ATOM      3  O   UNL     1      -2.164   2.121   0.254  0.00  0.00    -0.388 OA
ATOM     23  H   UNL     1      -2.014   2.128  -0.707  0.00  0.00    +0.210 HD
ENDBRANCH   8   3
BRANCH   7   5
ATOM      5  N   UNL     1      -4.196  -0.262   0.517  0.00  0.00    -0.302 NA
ATOM     22  H   UNL     1      -4.217  -0.702   1.436  0.00  0.00    +0.123 HD
BRANCH   5  10
ATOM      2  O   UNL     1      -6.822   0.265  -0.768  0.00  0.00    -0.377 OA
ATOM     10  C   UNL     1      -5.061  -0.906  -0.479  0.00  0.00    +0.106 C 
ATOM     12  C   UNL     1      -6.501  -0.900   0.035  0.00  0.00    +0.180 C 
ATOM     13  C   UNL     1      -5.558   0.148  -1.470  0.00  0.00    +0.180 C 
ENDBRANCH   5  10
ENDBRANCH   7   5
BRANCH   9  14
ATOM     14  C   UNL     1       0.492   0.707   1.388  0.00  0.00    +0.138 C 
BRANCH  14   6
ATOM      4  O   UNL     1       2.446   2.002  -0.270  0.00  0.00    -0.270 OA
ATOM      6  N   UNL     1       1.783   0.196   1.028  0.00  0.00    -0.309 N 
ATOM     15  C   UNL     1       2.670   0.896   0.215  0.00  0.00    +0.244 C 
ATOM     24  H   UNL     1       2.002  -0.744   1.337  0.00  0.00    +0.149 HD
BRANCH  15  16
ATOM     16  C   UNL     1       3.957   0.218  -0.087  0.00  0.00    +0.037 A 
ATOM     17  C   UNL     1       4.643   0.516  -1.265  0.00  0.00    +0.013 A 
ATOM     18  C   UNL     1       4.481  -0.714   0.808  0.00  0.00    +0.013 A 
ATOM     19  C   UNL     1       5.852  -0.120  -1.547  0.00  0.00    +0.001 A 
ATOM     20  C   UNL     1       5.690  -1.349   0.526  0.00  0.00    +0.001 A 
ATOM     21  C   UNL     1       6.376  -1.052  -0.652  0.00  0.00    +0.000 A 
ENDBRANCH  15  16
ENDBRANCH  14   6
ENDBRANCH   9  14
TORSDOF 6
