REMARK  Name = 51137866
REMARK  7 active torsions:
REMARK  status: ('A' for Active; 'I' for Inactive)
REMARK    1  A    between atoms: N_2  and  C_12
REMARK    2  A    between atoms: N_5  and  C_22
REMARK    3  A    between atoms: N_5  and  C_26
REMARK    4  A    between atoms: N_5  and  C_27
REMARK    5  A    between atoms: C_7  and  C_11
REMARK    6  A    between atoms: C_12  and  C_13
REMARK    7  A    between atoms: C_18  and  C_25
REMARK                            x       y       z     vdW  Elec       q    Type
REMARK                         _______ _______ _______ _____ _____    ______ ____
ROOT
ATOM      2  N   UNL     1      -1.263  -0.493  -0.259  0.00  0.00    -0.297 NA
ATOM      7  C   UNL     1       0.847  -1.316   0.353  0.00  0.00    +0.070 C 
ATOM      8  C   UNL     1       0.164  -0.687   1.580  0.00  0.00    +0.028 C 
ATOM      9  C   UNL     1       0.044  -0.796  -0.848  0.00  0.00    +0.096 C 
ATOM     10  C   UNL     1      -0.960   0.169   1.010  0.00  0.00    +0.085 C 
ENDROOT
BRANCH   7  11
ATOM      3  N   UNL     1       3.244  -2.050   0.225  0.00  0.00    -0.342 N 
ATOM      4  N   UNL     1       2.898   0.144   0.140  0.00  0.00    -0.231 NA
ATOM     11  C   UNL     1       2.327  -1.036   0.237  0.00  0.00    +0.113 A 
ATOM     14  C   UNL     1       4.489  -1.488   0.112  0.00  0.00    +0.067 A 
ATOM     15  C   UNL     1       4.247  -0.118   0.060  0.00  0.00    +0.101 A 
ATOM     18  C   UNL     1       5.333   0.766  -0.057  0.00  0.00    +0.064 A 
ATOM     19  C   UNL     1       5.768  -2.043   0.052  0.00  0.00    +0.028 A 
ATOM     23  C   UNL     1       6.626   0.231  -0.119  0.00  0.00    +0.015 A 
ATOM     24  C   UNL     1       6.837  -1.149  -0.066  0.00  0.00    +0.003 A 
ATOM     28  H   UNL     1       3.043  -3.039   0.287  0.00  0.00    +0.167 HD
BRANCH  18  25
ATOM      1  O   UNL     1       6.078   2.994  -0.229  0.00  0.00    -0.270 OA
ATOM      6  N   UNL     1       3.815   2.671  -0.045  0.00  0.00    -0.325 N 
ATOM     25  C   UNL     1       5.125   2.201  -0.111  0.00  0.00    +0.244 C 
ATOM     29  H   UNL     1       3.629   3.668  -0.086  0.00  0.00    +0.145 HD
ATOM     30  H   UNL     1       3.002   2.072   0.045  0.00  0.00    +0.145 HD
ENDBRANCH  18  25
ENDBRANCH   7  11
BRANCH   2  12
ATOM     12  C   UNL     1      -2.087   0.330  -1.131  0.00  0.00    +0.119 C 
BRANCH  12  13
ATOM     13  C   UNL     1      -3.541   0.276  -0.744  0.00  0.00    -0.033 A 
ATOM     16  C   UNL     1      -4.308  -0.844  -1.067  0.00  0.00    +0.007 A 
ATOM     17  C   UNL     1      -4.121   1.345  -0.061  0.00  0.00    +0.007 A 
ATOM     20  C   UNL     1      -5.655  -0.894  -0.708  0.00  0.00    +0.023 A 
ATOM     21  C   UNL     1      -5.468   1.295   0.299  0.00  0.00    +0.023 A 
ATOM     22  C   UNL     1      -6.234   0.175  -0.025  0.00  0.00    +0.029 A 
BRANCH  22   5
ATOM      5  N   UNL     1      -7.596   0.125   0.339  0.00  0.00    -0.336 N 
ATOM     26  C   UNL     1      -8.206   1.227   1.056  0.00  0.00    +0.129 C 
ATOM     27  C   UNL     1      -8.402  -1.034   0.008  0.00  0.00    +0.129 C 
ENDBRANCH  22   5
ENDBRANCH  12  13
ENDBRANCH   2  12
TORSDOF 5
