REMARK  Name = 75536297
REMARK  12 active torsions:
REMARK  status: ('A' for Active; 'I' for Inactive)
REMARK    1  A    between atoms: O_2  and  C_9
REMARK    2  A    between atoms: O_4  and  C_20
REMARK    3  A    between atoms: O_4  and  C_26
REMARK    4  A    between atoms: O_5  and  C_22
REMARK    5  A    between atoms: O_5  and  C_27
REMARK    6  A    between atoms: N_6  and  C_13
REMARK    7  A    between atoms: N_6  and  C_16
REMARK    8  A    between atoms: C_8  and  C_13
REMARK    9  A    between atoms: C_10  and  C_14
REMARK   10  A    between atoms: C_14  and  C_15
REMARK   11  A    between atoms: C_16  and  C_18
REMARK   12  A    between atoms: C_19  and  C_22
REMARK                            x       y       z     vdW  Elec       q    Type
REMARK                         _______ _______ _______ _____ _____    ______ ____
ROOT
ATOM      1  O   UNL     1      -2.442  -1.096   0.777  0.00  0.00    -0.369 OA
ATOM      8  C   UNL     1      -2.158  -2.423   0.317  0.00  0.00    +0.161 C 
ATOM      9  C   UNL     1      -3.422  -3.110  -0.218  0.00  0.00    +0.145 C 
ATOM     10  C   UNL     1      -3.063  -0.238  -0.183  0.00  0.00    +0.125 C 
ATOM     11  C   UNL     1      -4.182  -2.237  -1.212  0.00  0.00    +0.036 C 
ATOM     12  C   UNL     1      -4.389  -0.831  -0.656  0.00  0.00    +0.034 C 
ENDROOT
BRANCH   9   2
ATOM      2  O   UNL     1      -4.296  -3.384   0.880  0.00  0.00    -0.389 OA
ATOM     29  H   UNL     1      -5.068  -3.861   0.529  0.00  0.00    +0.210 HD
ENDBRANCH   9   2
BRANCH   8  13
ATOM     13  C   UNL     1      -1.009  -2.423  -0.689  0.00  0.00    +0.115 C 
BRANCH  13   6
ATOM      6  N   UNL     1       0.171  -1.783  -0.128  0.00  0.00    -0.309 NA
ATOM     28  H   UNL     1      -0.058  -0.823   0.130  0.00  0.00    +0.122 HD
BRANCH   6  16
ATOM     16  C   UNL     1       1.273  -1.790  -1.081  0.00  0.00    +0.120 C 
BRANCH  16  18
ATOM     18  C   UNL     1       2.509  -1.144  -0.515  0.00  0.00    +0.008 A 
ATOM     20  C   UNL     1       3.582  -1.920  -0.076  0.00  0.00    +0.124 A 
ATOM     21  C   UNL     1       2.574   0.247  -0.431  0.00  0.00    +0.008 A 
ATOM     23  C   UNL     1       4.719  -1.305   0.447  0.00  0.00    +0.046 A 
ATOM     24  C   UNL     1       3.712   0.862   0.092  0.00  0.00    +0.001 A 
ATOM     25  C   UNL     1       4.784   0.086   0.531  0.00  0.00    +0.004 A 
BRANCH  20   4
ATOM      4  O   UNL     1       3.535  -3.280  -0.149  0.00  0.00    -0.495 OA
ATOM     26  C   UNL     1       4.676  -3.994   0.322  0.00  0.00    +0.277 C 
ENDBRANCH  20   4
ENDBRANCH  16  18
ENDBRANCH   6  16
ENDBRANCH  13   6
ENDBRANCH   8  13
BRANCH  10  14
ATOM     14  C   UNL     1      -3.281   1.115   0.484  0.00  0.00    +0.090 C 
BRANCH  14  15
ATOM      3  O   UNL     1      -0.141   2.665   1.335  0.00  0.00    -0.357 OA
ATOM      7  N   UNL     1      -1.200   1.806   1.600  0.00  0.00    -0.083 NA
ATOM     15  C   UNL     1      -2.010   1.918   0.543  0.00  0.00    +0.086 A 
ATOM     17  C   UNL     1      -1.518   2.825  -0.412  0.00  0.00    +0.073 A 
ATOM     19  C   UNL     1      -0.342   3.266   0.134  0.00  0.00    +0.163 A 
BRANCH  19  22
ATOM     22  C   UNL     1       0.690   4.214  -0.305  0.00  0.00    +0.236 C 
BRANCH  22   5
ATOM      5  O   UNL     1       0.123   5.514  -0.491  0.00  0.00    -0.375 OA
ATOM     27  C   UNL     1       1.105   6.445  -0.915  0.00  0.00    +0.194 C 
ENDBRANCH  22   5
ENDBRANCH  19  22
ENDBRANCH  14  15
ENDBRANCH  10  14
TORSDOF 10
