REMARK  Name = 75367095
REMARK  7 active torsions:
REMARK  status: ('A' for Active; 'I' for Inactive)
REMARK    1  A    between atoms: S_1  and  N_7
REMARK    2  A    between atoms: S_1  and  C_18
REMARK    3  A    between atoms: O_3  and  C_10
REMARK    4  A    between atoms: N_6  and  C_8
REMARK    5  A    between atoms: N_6  and  C_9
REMARK    6  A    between atoms: N_7  and  C_17
REMARK    7  A    between atoms: C_13  and  C_17
REMARK                            x       y       z     vdW  Elec       q    Type
REMARK                         _______ _______ _______ _____ _____    ______ ____
ROOT
ATOM      2  O   UNL     1      -0.745   0.749  -1.343  0.00  0.00    -0.371 OA
ATOM      9  C   UNL     1      -2.620   0.227   0.018  0.00  0.00    +0.111 C 
ATOM     10  C   UNL     1      -1.351   0.024   0.825  0.00  0.00    +0.164 C 
ATOM     13  C   UNL     1      -0.364   0.874   0.037  0.00  0.00    +0.164 C 
ATOM     16  C   UNL     1      -2.078   0.213  -1.403  0.00  0.00    +0.181 C 
ENDROOT
BRANCH  10   3
ATOM      3  O   UNL     1      -1.479   0.467   2.162  0.00  0.00    -0.388 OA
ATOM     25  H   UNL     1      -1.748   1.401   2.151  0.00  0.00    +0.210 HD
ENDBRANCH  10   3
BRANCH   9   6
ATOM      6  N   UNL     1      -3.628  -0.795   0.248  0.00  0.00    -0.306 NA
ATOM     24  H   UNL     1      -3.700  -1.000   1.244  0.00  0.00    +0.123 HD
BRANCH   6   8
ATOM      8  C   UNL     1      -4.919  -0.383  -0.272  0.00  0.00    +0.054 C 
ATOM     11  C   UNL     1      -5.708   0.467   0.715  0.00  0.00    +0.019 C 
ATOM     12  C   UNL     1      -5.859  -1.558  -0.515  0.00  0.00    +0.019 C 
ATOM     14  C   UNL     1      -7.138   0.401   0.185  0.00  0.00    +0.002 C 
ATOM     15  C   UNL     1      -7.235  -0.905  -0.609  0.00  0.00    +0.002 C 
ENDBRANCH   6   8
ENDBRANCH   9   6
BRANCH  13  17
ATOM     17  C   UNL     1       1.079   0.436   0.213  0.00  0.00    +0.140 C 
BRANCH  17   7
ATOM      7  N   UNL     1       1.963   1.311  -0.582  0.00  0.00    -0.187 NA
ATOM     26  H   UNL     1       1.769   1.343  -1.591  0.00  0.00    +0.148 HD
BRANCH   7   1
ATOM      1  S   UNL     1       3.548   1.629  -0.053  0.00  0.00    +0.058 S 
ATOM      4  O   UNL     1       3.509   2.136   1.305  0.00  0.00    -0.153 OA
ATOM      5  O   UNL     1       4.252   2.365  -1.086  0.00  0.00    -0.153 OA
BRANCH   1  18
ATOM     18  C   UNL     1       4.247   0.006  -0.008  0.00  0.00    +0.105 A 
ATOM     19  C   UNL     1       4.881  -0.512  -1.138  0.00  0.00    +0.028 A 
ATOM     20  C   UNL     1       4.161  -0.759   1.155  0.00  0.00    +0.028 A 
ATOM     21  C   UNL     1       5.429  -1.794  -1.104  0.00  0.00    +0.002 A 
ATOM     22  C   UNL     1       4.709  -2.041   1.189  0.00  0.00    +0.002 A 
ATOM     23  C   UNL     1       5.343  -2.559   0.060  0.00  0.00    +0.000 A 
ENDBRANCH   1  18
ENDBRANCH   7   1
ENDBRANCH  17   7
ENDBRANCH  13  17
TORSDOF 7
