REMARK  Name = 11884340
REMARK  5 active torsions:
REMARK  status: ('A' for Active; 'I' for Inactive)
REMARK    1  A    between atoms: O_3  and  C_10
REMARK    2  A    between atoms: O_5  and  C_14
REMARK    3  A    between atoms: O_5  and  C_15
REMARK    4  A    between atoms: N_6  and  C_9
REMARK    5  A    between atoms: C_13  and  C_14
REMARK                            x       y       z     vdW  Elec       q    Type
REMARK                         _______ _______ _______ _____ _____    ______ ____
ROOT
ATOM      1  O   UNL     1      -1.661  -0.942  -1.060  0.00  0.00    -0.369 OA
ATOM      2  O   UNL     1      -2.338   1.502   0.643  0.00  0.00    -0.369 OA
ATOM      7  C   UNL     1      -1.333   0.478   0.807  0.00  0.00    +0.172 C 
ATOM      8  C   UNL     1      -1.956  -0.823   0.343  0.00  0.00    +0.179 C 
ATOM      9  C   UNL     1      -0.196   0.710  -0.165  0.00  0.00    +0.130 C 
ATOM     10  C   UNL     1      -3.427  -0.584   0.585  0.00  0.00    +0.171 C 
ATOM     11  C   UNL     1      -0.752   0.100  -1.443  0.00  0.00    +0.185 C 
ATOM     12  C   UNL     1      -3.572   0.883   0.250  0.00  0.00    +0.194 C 
ENDROOT
BRANCH   9   6
ATOM      4  O   UNL     1       2.559   1.339  -0.858  0.00  0.00    -0.273 OA
ATOM      6  N   UNL     1       1.012  -0.005   0.243  0.00  0.00    -0.306 N 
ATOM     13  C   UNL     1       2.289   0.378  -0.144  0.00  0.00    +0.239 C 
ATOM     16  H   UNL     1       0.901  -0.850   0.798  0.00  0.00    +0.149 HD
BRANCH  13  14
ATOM     14  C   UNL     1       3.349  -0.542   0.425  0.00  0.00    +0.255 C 
BRANCH  14   5
ATOM      5  O   UNL     1       4.637  -0.124   0.029  0.00  0.00    -0.374 OA
ATOM     15  C   UNL     1       5.655  -0.973   0.550  0.00  0.00    +0.194 C 
ENDBRANCH  14   5
ENDBRANCH  13  14
ENDBRANCH   9   6
BRANCH  10   3
ATOM      3  O   UNL     1      -4.266  -1.394  -0.207  0.00  0.00    -0.387 OA
ATOM     17  H   UNL     1      -4.005  -1.280  -1.137  0.00  0.00    +0.210 HD
ENDBRANCH  10   3
TORSDOF 4
