REMARK  Name = 11879672
REMARK  11 active torsions:
REMARK  status: ('A' for Active; 'I' for Inactive)
REMARK    1  A    between atoms: O_3  and  C_19
REMARK    2  A    between atoms: O_3  and  C_23
REMARK    3  A    between atoms: O_5  and  C_24
REMARK    4  A    between atoms: N_7  and  C_15
REMARK    5  A    between atoms: N_8  and  C_16
REMARK    6  A    between atoms: N_12  and  C_27
REMARK    7  A    between atoms: N_12  and  C_30
REMARK    8  A    between atoms: N_12  and  C_31
REMARK    9  A    between atoms: C_20  and  C_21
REMARK   10  A    between atoms: C_21  and  C_22
REMARK   11  A    between atoms: C_22  and  C_24
REMARK                            x       y       z     vdW  Elec       q    Type
REMARK                         _______ _______ _______ _____ _____    ______ ____
ROOT
ATOM      1  O   UNL     1      -1.624  -3.034   0.163  0.00  0.00    -0.370 OA
ATOM      2  O   UNL     1      -1.427  -0.548  -1.754  0.00  0.00    -0.370 OA
ATOM     13  C   UNL     1      -1.011  -0.800  -0.399  0.00  0.00    +0.176 C 
ATOM     14  C   UNL     1      -2.073  -1.672   0.241  0.00  0.00    +0.171 C 
ATOM     15  C   UNL     1       0.243  -1.653  -0.395  0.00  0.00    +0.171 C 
ATOM     16  C   UNL     1      -3.295  -1.472  -0.628  0.00  0.00    +0.130 C 
ATOM     17  C   UNL     1      -0.310  -3.074  -0.410  0.00  0.00    +0.190 C 
ATOM     18  C   UNL     1      -2.682  -1.201  -1.990  0.00  0.00    +0.185 C 
ENDROOT
BRANCH  15   7
ATOM      7  N   UNL     1       1.129  -1.345   0.731  0.00  0.00    -0.187 N 
ATOM      9  N   UNL     1       0.703  -1.449   1.998  0.00  0.00    -0.041 NA
ATOM     10  N   UNL     1       2.828  -0.775   1.952  0.00  0.00    -0.071 NA
ATOM     11  N   UNL     1       1.746  -1.099   2.740  0.00  0.00    -0.020 NA
ATOM     19  C   UNL     1       2.423  -0.934   0.713  0.00  0.00    +0.342 A 
BRANCH  19   3
ATOM      3  O   UNL     1       3.135  -0.733  -0.381  0.00  0.00    -0.423 OA
BRANCH   3  23
ATOM     23  C   UNL     1       4.456  -0.310  -0.346  0.00  0.00    +0.134 A 
ATOM     25  C   UNL     1       4.753   1.053  -0.356  0.00  0.00    +0.069 A 
ATOM     26  C   UNL     1       5.487  -1.248  -0.301  0.00  0.00    +0.046 A 
ATOM     27  C   UNL     1       6.081   1.478  -0.321  0.00  0.00    +0.033 A 
ATOM     28  C   UNL     1       6.816  -0.824  -0.266  0.00  0.00    +0.005 A 
ATOM     29  C   UNL     1       7.112   0.539  -0.276  0.00  0.00    +0.023 A 
BRANCH  27  12
ATOM     12  N   UNL     1       6.382   2.855  -0.332  0.00  0.00    -0.336 N 
ATOM     30  C   UNL     1       5.318   3.838  -0.393  0.00  0.00    +0.129 C 
ATOM     31  C   UNL     1       7.759   3.307  -0.296  0.00  0.00    +0.129 C 
ENDBRANCH  27  12
ENDBRANCH   3  23
ENDBRANCH  19   3
ENDBRANCH  15   7
BRANCH  16   8
ATOM      4  O   UNL     1      -6.126  -1.036  -1.039  0.00  0.00    -0.276 OA
ATOM      8  N   UNL     1      -4.080  -0.349  -0.176  0.00  0.00    -0.308 N 
ATOM     20  C   UNL     1      -5.441  -0.225  -0.421  0.00  0.00    +0.214 C 
ATOM     32  H   UNL     1      -3.599   0.409   0.300  0.00  0.00    +0.149 HD
BRANCH  20  21
ATOM     21  C   UNL     1      -6.002   1.056   0.170  0.00  0.00    +0.107 C 
BRANCH  21  22
ATOM     22  C   UNL     1      -7.497   1.212  -0.089  0.00  0.00    +0.129 C 
BRANCH  22  24
ATOM      6  O   UNL     1      -7.393   3.317   1.128  0.00  0.00    -0.251 OA
ATOM     24  C   UNL     1      -8.042   2.493   0.497  0.00  0.00    +0.305 C 
BRANCH  24   5
ATOM      5  O   UNL     1      -9.368   2.634   0.237  0.00  0.00    -0.481 OA
ATOM     33  H   UNL     1      -9.728   3.464   0.615  0.00  0.00    +0.295 HD
ENDBRANCH  24   5
ENDBRANCH  22  24
ENDBRANCH  21  22
ENDBRANCH  20  21
ENDBRANCH  16   8
TORSDOF 9
