REMARK  Name = 40776909
REMARK  10 active torsions:
REMARK  status: ('A' for Active; 'I' for Inactive)
REMARK    1  A    between atoms: O_2  and  C_22
REMARK    2  A    between atoms: O_2  and  C_29
REMARK    3  A    between atoms: O_3  and  C_24
REMARK    4  A    between atoms: O_3  and  C_30
REMARK    5  A    between atoms: N_5  and  C_15
REMARK    6  A    between atoms: C_9  and  C_16
REMARK    7  A    between atoms: C_10  and  C_15
REMARK    8  A    between atoms: C_18  and  C_21
REMARK    9  A    between atoms: C_19  and  C_22
REMARK   10  A    between atoms: C_20  and  C_23
REMARK                            x       y       z     vdW  Elec       q    Type
REMARK                         _______ _______ _______ _____ _____    ______ ____
ROOT
ATOM      4  N   UNL     1      -1.965  -2.077   1.469  0.00  0.00    -0.297 NA
ATOM      8  C   UNL     1      -1.342  -2.367  -1.043  0.00  0.00    +0.002 C 
ATOM      9  C   UNL     1      -0.065  -2.131  -0.190  0.00  0.00    +0.055 C 
ATOM     10  C   UNL     1      -2.811  -1.188   0.629  0.00  0.00    +0.074 C 
ATOM     11  C   UNL     1      -2.320  -1.192  -0.834  0.00  0.00    +0.024 C 
ATOM     12  C   UNL     1      -2.026  -3.631  -0.480  0.00  0.00    +0.019 C 
ATOM     13  C   UNL     1      -0.530  -1.768   1.249  0.00  0.00    +0.094 C 
ATOM     14  C   UNL     1      -2.208  -3.475   1.040  0.00  0.00    +0.085 C 
ENDROOT
BRANCH   9  16
ATOM      6  N   UNL     1       0.717  -0.566  -1.899  0.00  0.00    -0.237 NA
ATOM      7  N   UNL     1       2.830   0.580  -1.721  0.00  0.00    -0.232 NA
ATOM     16  C   UNL     1       0.984  -1.163  -0.720  0.00  0.00    +0.050 A 
ATOM     17  C   UNL     1       2.135  -0.943   0.009  0.00  0.00    +0.052 A 
ATOM     18  C   UNL     1       3.032  -0.053  -0.546  0.00  0.00    +0.078 A 
ATOM     20  C   UNL     1       1.669   0.281  -2.335  0.00  0.00    +0.127 A 
ATOM     23  C   UNL     1       1.411   0.960  -3.638  0.00  0.00    +0.088 C 
BRANCH  18  21
ATOM     21  C   UNL     1       4.275   0.263   0.115  0.00  0.00    +0.042 A 
ATOM     24  C   UNL     1       4.569   1.572   0.498  0.00  0.00    +0.129 A 
ATOM     25  C   UNL     1       5.187  -0.760   0.371  0.00  0.00    +0.013 A 
ATOM     26  C   UNL     1       5.776   1.857   1.136  0.00  0.00    +0.046 A 
ATOM     27  C   UNL     1       6.395  -0.475   1.009  0.00  0.00    +0.001 A 
ATOM     28  C   UNL     1       6.689   0.834   1.392  0.00  0.00    +0.004 A 
BRANCH  24   3
ATOM      3  O   UNL     1       3.696   2.592   0.260  0.00  0.00    -0.494 OA
ATOM     30  C   UNL     1       2.735   2.869   1.276  0.00  0.00    +0.277 C 
ENDBRANCH  24   3
ENDBRANCH  18  21
ENDBRANCH   9  16
BRANCH  10  15
ATOM     15  C   UNL     1      -2.908   0.230   1.195  0.00  0.00    +0.123 C 
BRANCH  15   5
ATOM      1  O   UNL     1      -5.751   0.534   1.633  0.00  0.00    -0.273 OA
ATOM      5  N   UNL     1      -3.819   1.024   0.430  0.00  0.00    -0.312 N 
ATOM     19  C   UNL     1      -5.181   1.114   0.713  0.00  0.00    +0.239 C 
ATOM     31  H   UNL     1      -3.448   1.543  -0.360  0.00  0.00    +0.149 HD
BRANCH  19  22
ATOM     22  C   UNL     1      -5.907   2.024  -0.256  0.00  0.00    +0.255 C 
BRANCH  22   2
ATOM      2  O   UNL     1      -7.279   2.102   0.067  0.00  0.00    -0.374 OA
ATOM     29  C   UNL     1      -7.988   2.953  -0.829  0.00  0.00    +0.194 C 
ENDBRANCH  22   2
ENDBRANCH  19  22
ENDBRANCH  15   5
ENDBRANCH  10  15
TORSDOF 7
