REMARK  Name = 40533534
REMARK  5 active torsions:
REMARK  status: ('A' for Active; 'I' for Inactive)
REMARK    1  A    between atoms: S_1  and  N_6
REMARK    2  A    between atoms: S_1  and  C_20
REMARK    3  A    between atoms: O_5  and  C_28
REMARK    4  A    between atoms: O_5  and  C_31
REMARK    5  A    between atoms: C_18  and  C_21
REMARK                            x       y       z     vdW  Elec       q    Type
REMARK                         _______ _______ _______ _____ _____    ______ ____
ROOT
ATOM      4  O   UNL     1      -3.522   0.668  -1.799  0.00  0.00    -0.267 OA
ATOM      6  N   UNL     1       1.243  -0.046  -0.525  0.00  0.00    -0.176 NA
ATOM      7  N   UNL     1      -1.664   1.190  -0.490  0.00  0.00    -0.311 N 
ATOM      9  C   UNL     1       0.500   2.137  -1.481  0.00  0.00    +0.025 C 
ATOM     10  C   UNL     1       0.335   1.747   0.939  0.00  0.00    +0.052 C 
ATOM     11  C   UNL     1       0.669   2.796  -0.118  0.00  0.00    +0.017 C 
ATOM     12  C   UNL     1       1.453   0.940  -1.624  0.00  0.00    +0.114 C 
ATOM     13  C   UNL     1       1.327   0.574   0.831  0.00  0.00    +0.119 C 
ATOM     14  C   UNL     1      -0.971   1.741  -1.662  0.00  0.00    +0.130 C 
ATOM     15  C   UNL     1      -1.090   1.250   0.782  0.00  0.00    +0.026 A 
ATOM     16  C   UNL     1      -1.789   0.848   1.856  0.00  0.00    +0.022 A 
ATOM     17  C   UNL     1      -2.970   0.704  -0.698  0.00  0.00    +0.259 A 
ATOM     18  C   UNL     1      -3.715   0.227   0.520  0.00  0.00    +0.048 A 
ATOM     19  C   UNL     1      -3.118   0.324   1.717  0.00  0.00    +0.015 A 
ENDROOT
BRANCH  18  21
ATOM      8  N   UNL     1      -6.524  -2.048  -0.497  0.00  0.00    -0.263 NA
ATOM     21  C   UNL     1      -5.069  -0.344   0.411  0.00  0.00    +0.005 A 
ATOM     26  C   UNL     1      -6.146   0.233   1.074  0.00  0.00    +0.011 A 
ATOM     27  C   UNL     1      -5.308  -1.474  -0.355  0.00  0.00    +0.119 A 
ATOM     29  C   UNL     1      -7.412  -0.329   0.952  0.00  0.00    +0.020 A 
ATOM     30  C   UNL     1      -7.547  -1.459   0.162  0.00  0.00    +0.111 A 
ENDBRANCH  18  21
BRANCH   6   1
ATOM      1  S   UNL     1       2.056  -1.541  -0.706  0.00  0.00    +0.061 S 
ATOM      2  O   UNL     1       2.027  -1.930  -2.100  0.00  0.00    -0.153 OA
ATOM      3  O   UNL     1       1.611  -2.449   0.330  0.00  0.00    -0.153 OA
BRANCH   1  20
ATOM     20  C   UNL     1       3.706  -1.045  -0.319  0.00  0.00    +0.106 A 
ATOM     22  C   UNL     1       4.159  -1.098   1.000  0.00  0.00    +0.032 A 
ATOM     23  C   UNL     1       4.557  -0.600  -1.331  0.00  0.00    +0.032 A 
ATOM     24  C   UNL     1       5.462  -0.706   1.306  0.00  0.00    +0.047 A 
ATOM     25  C   UNL     1       5.860  -0.207  -1.024  0.00  0.00    +0.047 A 
ATOM     28  C   UNL     1       6.312  -0.261   0.294  0.00  0.00    +0.120 A 
BRANCH  28   5
ATOM      5  O   UNL     1       7.585   0.120   0.593  0.00  0.00    -0.495 OA
ATOM     31  C   UNL     1       7.982   0.038   1.961  0.00  0.00    +0.277 C 
ENDBRANCH  28   5
ENDBRANCH   1  20
ENDBRANCH   6   1
TORSDOF 4
