REMARK  Name = 7051997
REMARK  10 active torsions:
REMARK  status: ('A' for Active; 'I' for Inactive)
REMARK    1  A    between atoms: N_5  and  C_17
REMARK    2  A    between atoms: N_9  and  C_32
REMARK    3  A    between atoms: N_9  and  C_33
REMARK    4  A    between atoms: N_9  and  C_34
REMARK    5  A    between atoms: C_10  and  C_13
REMARK    6  A    between atoms: C_13  and  C_17
REMARK    7  A    between atoms: C_17  and  C_23
REMARK    8  A    between atoms: C_18  and  C_20
REMARK    9  A    between atoms: C_24  and  C_26
REMARK   10  A    between atoms: C_25  and  C_27
REMARK                            x       y       z     vdW  Elec       q    Type
REMARK                         _______ _______ _______ _____ _____    ______ ____
ROOT
ATOM      3  O   UNL     1      -1.541   4.693   1.914  0.00  0.00    -0.276 OA
ATOM      4  O   UNL     1       2.158   0.855  -3.127  0.00  0.00    -0.270 OA
ATOM      6  N   UNL     1      -0.236   3.941   0.141  0.00  0.00    -0.287 N 
ATOM      7  N   UNL     1       1.399   1.918  -1.190  0.00  0.00    -0.294 N 
ATOM     18  C   UNL     1       0.011   2.640   0.768  0.00  0.00    +0.179 C 
ATOM     19  C   UNL     1       1.290   1.965   0.275  0.00  0.00    +0.140 C 
ATOM     21  C   UNL     1       0.433   4.202  -1.140  0.00  0.00    +0.127 C 
ATOM     22  C   UNL     1       0.669   2.933  -1.945  0.00  0.00    +0.127 C 
ATOM     24  C   UNL     1      -0.975   4.902   0.838  0.00  0.00    +0.213 C 
ATOM     25  C   UNL     1       2.102   0.937  -1.900  0.00  0.00    +0.247 C 
ATOM     26  C   UNL     1      -1.073   6.266   0.200  0.00  0.00    +0.109 C 
ENDROOT
BRANCH  25  27
ATOM     27  C   UNL     1       2.841  -0.082  -1.136  0.00  0.00    +0.037 A 
ATOM     28  C   UNL     1       4.170   0.145  -0.785  0.00  0.00    +0.015 A 
ATOM     29  C   UNL     1       2.209  -1.267  -0.770  0.00  0.00    +0.015 A 
ATOM     30  C   UNL     1       4.870  -0.821  -0.062  0.00  0.00    +0.024 A 
ATOM     31  C   UNL     1       2.910  -2.233  -0.047  0.00  0.00    +0.024 A 
ATOM     32  C   UNL     1       4.241  -2.009   0.307  0.00  0.00    +0.029 A 
BRANCH  32   9
ATOM      9  N   UNL     1       4.950  -2.986   1.036  0.00  0.00    -0.336 N 
ATOM     33  C   UNL     1       4.255  -3.864   1.956  0.00  0.00    +0.129 C 
ATOM     34  C   UNL     1       6.382  -3.134   0.864  0.00  0.00    +0.129 C 
ENDBRANCH  32   9
ENDBRANCH  25  27
BRANCH  18  20
ATOM      1  O   UNL     1      -2.133   2.190  -0.186  0.00  0.00    -0.274 OA
ATOM      5  N   UNL     1      -1.125   0.561   1.136  0.00  0.00    -0.302 N 
ATOM     20  C   UNL     1      -1.199   1.790   0.503  0.00  0.00    +0.236 C 
ATOM     35  H   UNL     1      -0.316   0.343   1.710  0.00  0.00    +0.150 HD
BRANCH   5  17
ATOM     17  C   UNL     1      -2.172  -0.432   1.058  0.00  0.00    +0.159 C 
BRANCH  17  23
ATOM      2  O   UNL     1      -1.333  -1.898   2.805  0.00  0.00    -0.274 OA
ATOM      8  N   UNL     1      -3.428  -0.990   3.050  0.00  0.00    -0.328 N 
ATOM     23  C   UNL     1      -2.236  -1.179   2.384  0.00  0.00    +0.231 C 
ATOM     36  H   UNL     1      -3.600  -1.443   3.942  0.00  0.00    +0.145 HD
ATOM     37  H   UNL     1      -4.171  -0.398   2.695  0.00  0.00    +0.145 HD
ENDBRANCH  17  23
BRANCH  17  13
ATOM     13  C   UNL     1      -1.995  -1.367  -0.142  0.00  0.00    +0.035 C 
BRANCH  13  10
ATOM     10  C   UNL     1      -3.136  -2.366  -0.331  0.00  0.00    -0.009 C 
ATOM     11  C   UNL     1      -2.859  -3.284  -1.529  0.00  0.00    +0.003 C 
ATOM     12  C   UNL     1      -4.474  -1.634  -0.500  0.00  0.00    +0.003 C 
ATOM     14  C   UNL     1      -4.011  -4.257  -1.772  0.00  0.00    +0.000 C 
ATOM     15  C   UNL     1      -5.623  -2.610  -0.745  0.00  0.00    +0.000 C 
ATOM     16  C   UNL     1      -5.341  -3.527  -1.931  0.00  0.00    +0.000 C 
ENDBRANCH  13  10
ENDBRANCH  17  13
ENDBRANCH   5  17
ENDBRANCH  18  20
TORSDOF 7
