REMARK  Name = 51137385
REMARK  4 active torsions:
REMARK  status: ('A' for Active; 'I' for Inactive)
REMARK    1  A    between atoms: N_2  and  C_5
REMARK    2  A    between atoms: C_10  and  C_13
REMARK    3  A    between atoms: C_14  and  C_15
REMARK    4  A    between atoms: C_15  and  C_16
REMARK                            x       y       z     vdW  Elec       q    Type
REMARK                         _______ _______ _______ _____ _____    ______ ____
ROOT
ATOM      1  O   UNL     1      -0.487   0.746  -0.325  0.00  0.00    -0.424 OA
ATOM      3  N   UNL     1      -0.441   2.768   0.630  0.00  0.00    -0.112 NA
ATOM      4  N   UNL     1      -1.628   2.653  -0.070  0.00  0.00    -0.112 NA
ATOM     13  C   UNL     1       0.192   1.633   0.453  0.00  0.00    +0.222 A 
ATOM     14  C   UNL     1      -1.611   1.458  -0.611  0.00  0.00    +0.222 A 
ENDROOT
BRANCH  13  10
ATOM      2  N   UNL     1       3.383  -0.172   0.490  0.00  0.00    -0.299 NA
ATOM      9  C   UNL     1       2.536   0.850  -0.132  0.00  0.00    +0.097 C 
ATOM     10  C   UNL     1       1.536   1.187   0.982  0.00  0.00    +0.092 C 
ATOM     11  C   UNL     1       2.451  -1.054   1.193  0.00  0.00    +0.085 C 
ATOM     12  C   UNL     1       1.497  -0.074   1.864  0.00  0.00    +0.029 C 
BRANCH   2   5
ATOM      5  C   UNL     1       4.135  -0.915  -0.528  0.00  0.00    +0.057 C 
ATOM      6  C   UNL     1       5.290  -1.687   0.143  0.00  0.00    +0.019 C 
ATOM      7  C   UNL     1       5.210   0.002  -1.148  0.00  0.00    +0.019 C 
ATOM      8  C   UNL     1       6.192  -1.180  -1.000  0.00  0.00    +0.003 C 
ENDBRANCH   2   5
ENDBRANCH  13  10
BRANCH  14  15
ATOM     15  C   UNL     1      -2.615   0.800  -1.458  0.00  0.00    +0.132 C 
BRANCH  15  16
ATOM     16  C   UNL     1      -3.481  -0.229  -0.738  0.00  0.00    -0.038 A 
ATOM     17  C   UNL     1      -2.988  -1.512  -0.501  0.00  0.00    +0.004 A 
ATOM     18  C   UNL     1      -4.766   0.114  -0.318  0.00  0.00    +0.004 A 
ATOM     19  C   UNL     1      -3.781  -2.453   0.157  0.00  0.00    +0.000 A 
ATOM     20  C   UNL     1      -5.558  -0.827   0.340  0.00  0.00    +0.000 A 
ATOM     21  C   UNL     1      -5.066  -2.110   0.577  0.00  0.00    +0.000 A 
ENDBRANCH  15  16
ENDBRANCH  14  15
TORSDOF 4
