REMARK  Name = 25338610
REMARK  5 active torsions:
REMARK  status: ('A' for Active; 'I' for Inactive)
REMARK    1  A    between atoms: N_5  and  C_14
REMARK    2  A    between atoms: N_6  and  C_9
REMARK    3  A    between atoms: C_10  and  C_13
REMARK    4  A    between atoms: C_15  and  C_17
REMARK    5  A    between atoms: C_16  and  C_18
REMARK                            x       y       z     vdW  Elec       q    Type
REMARK                         _______ _______ _______ _____ _____    ______ ____
ROOT
ATOM      5  N   UNL     1       0.306   3.141   1.217  0.00  0.00    -0.293 NA
ATOM      9  C   UNL     1       2.054   2.779  -0.283  0.00  0.00    +0.089 C 
ATOM     10  C   UNL     1      -0.351   3.172  -0.103  0.00  0.00    +0.147 C 
ATOM     11  C   UNL     1       0.760   2.784  -1.098  0.00  0.00    +0.052 C 
ATOM     12  C   UNL     1       1.696   3.544   0.983  0.00  0.00    +0.107 C 
ATOM     14  C   UNL     1      -0.348   3.992   2.204  0.00  0.00    +0.105 C 
ENDROOT
BRANCH  10  13
ATOM      3  O   UNL     1      -2.734   2.854  -0.541  0.00  0.00    -0.336 OA
ATOM      7  N   UNL     1      -1.646   0.974   0.006  0.00  0.00    -0.190 NA
ATOM      8  N   UNL     1      -3.690   1.830  -0.562  0.00  0.00    -0.056 NA
ATOM     13  C   UNL     1      -1.559   2.265  -0.198  0.00  0.00    +0.245 A 
ATOM     16  C   UNL     1      -2.972   0.754  -0.229  0.00  0.00    +0.202 A 
BRANCH  16  18
ATOM      2  F   UNL     1      -5.205  -4.325   0.177  0.00  0.00    -0.205 F 
ATOM     18  C   UNL     1      -3.548  -0.556  -0.124  0.00  0.00    +0.023 A 
ATOM     21  C   UNL     1      -2.748  -1.644   0.226  0.00  0.00    +0.014 A 
ATOM     22  C   UNL     1      -4.908  -0.742  -0.373  0.00  0.00    +0.014 A 
ATOM     26  C   UNL     1      -3.308  -2.917   0.328  0.00  0.00    +0.039 A 
ATOM     27  C   UNL     1      -5.468  -2.015  -0.271  0.00  0.00    +0.039 A 
ATOM     28  C   UNL     1      -4.668  -3.103   0.079  0.00  0.00    +0.123 A 
ENDBRANCH  16  18
ENDBRANCH  10  13
BRANCH   9   6
ATOM      4  O   UNL     1       3.865   1.175  -1.827  0.00  0.00    -0.270 OA
ATOM      6  N   UNL     1       2.487   1.436   0.019  0.00  0.00    -0.307 N 
ATOM     15  C   UNL     1       3.369   0.739  -0.792  0.00  0.00    +0.244 C 
ATOM     29  H   UNL     1       2.032   0.972   0.799  0.00  0.00    +0.149 HD
BRANCH  15  17
ATOM      1  F   UNL     1       4.604  -4.486   0.852  0.00  0.00    -0.205 F 
ATOM     17  C   UNL     1       3.695  -0.644  -0.357  0.00  0.00    +0.037 A 
ATOM     19  C   UNL     1       4.074  -1.600  -1.299  0.00  0.00    +0.016 A 
ATOM     20  C   UNL     1       3.623  -0.986   0.994  0.00  0.00    +0.016 A 
ATOM     23  C   UNL     1       4.380  -2.898  -0.891  0.00  0.00    +0.039 A 
ATOM     24  C   UNL     1       3.930  -2.284   1.402  0.00  0.00    +0.039 A 
ATOM     25  C   UNL     1       4.309  -3.240   0.460  0.00  0.00    +0.123 A 
ENDBRANCH  15  17
ENDBRANCH   9   6
TORSDOF 4
