REMARK  Name = 11866271
REMARK  5 active torsions:
REMARK  status: ('A' for Active; 'I' for Inactive)
REMARK    1  A    between atoms: C_10  and  C_18
REMARK    2  A    between atoms: C_15  and  C_22
REMARK    3  A    between atoms: C_17  and  C_23
REMARK    4  A    between atoms: C_25  and  C_26
REMARK    5  A    between atoms: C_31  and  C_32
REMARK                            x       y       z     vdW  Elec       q    Type
REMARK                         _______ _______ _______ _____ _____    ______ ____
ROOT
ATOM      1  S   UNL     1      -0.323   2.417  -0.855  0.00  0.00    -0.057 S 
ATOM      2  O   UNL     1       4.962  -1.926   0.101  0.00  0.00    -0.461 OA
ATOM      3  O   UNL     1       6.788  -3.324   0.105  0.00  0.00    -0.251 OA
ATOM      4  O   UNL     1      -3.038  -1.322  -0.037  0.00  0.00    -0.275 OA
ATOM      6  N   UNL     1      -0.282  -0.073  -0.156  0.00  0.00    -0.229 NA
ATOM      7  N   UNL     1      -2.443   0.893  -0.610  0.00  0.00    -0.264 N 
ATOM      9  C   UNL     1       3.543   0.142  -0.157  0.00  0.00    +0.045 C 
ATOM     10  C   UNL     1       3.577   1.684   0.228  0.00  0.00    -0.021 C 
ATOM     11  C   UNL     1       4.765  -0.559   0.464  0.00  0.00    +0.184 C 
ATOM     12  C   UNL     1       6.046   0.082  -0.033  0.00  0.00    +0.044 C 
ATOM     13  C   UNL     1       4.961   2.310  -0.124  0.00  0.00    +0.008 C 
ATOM     14  C   UNL     1       6.160   1.523   0.423  0.00  0.00    +0.008 C 
ATOM     15  C   UNL     1       2.171  -0.540   0.189  0.00  0.00    +0.043 C 
ATOM     16  C   UNL     1       2.480   2.437  -0.587  0.00  0.00    +0.051 C 
ATOM     17  C   UNL     1       7.070  -0.920   0.465  0.00  0.00    +0.101 C 
ATOM     18  C   UNL     1       3.318   1.916   1.742  0.00  0.00    +0.012 C 
ATOM     19  C   UNL     1       1.027   0.372  -0.184  0.00  0.00    +0.057 A 
ATOM     20  C   UNL     1       1.185   1.702  -0.519  0.00  0.00    +0.015 A 
ATOM     21  C   UNL     1       6.307  -2.206   0.204  0.00  0.00    +0.311 C 
ATOM     22  C   UNL     1       2.007  -1.906  -0.491  0.00  0.00    +0.014 C 
ATOM     23  C   UNL     1       8.386  -0.859  -0.288  0.00  0.00    +0.019 C 
ATOM     24  C   UNL     1      -1.078   0.916  -0.501  0.00  0.00    +0.165 A 
ATOM     26  C   UNL     1      -3.337  -0.183  -0.382  0.00  0.00    +0.222 C 
ATOM     33  H   UNL     1      -2.849   1.783  -0.888  0.00  0.00    +0.157 HD
ENDROOT
BRANCH  26  25
ATOM      5  O   UNL     1      -9.265  -1.744   0.163  0.00  0.00    -0.276 OA
ATOM      8  N   UNL     1      -7.566  -0.165   0.025  0.00  0.00    -0.302 N 
ATOM     25  C   UNL     1      -4.767   0.201  -0.606  0.00  0.00    +0.078 C 
ATOM     27  C   UNL     1      -5.549  -1.018  -1.104  0.00  0.00    +0.032 C 
ATOM     28  C   UNL     1      -5.374   0.744   0.691  0.00  0.00    +0.032 C 
ATOM     29  C   UNL     1      -7.037  -0.703  -1.230  0.00  0.00    +0.108 C 
ATOM     30  C   UNL     1      -6.866   1.024   0.527  0.00  0.00    +0.108 C 
ATOM     31  C   UNL     1      -8.674  -0.763   0.624  0.00  0.00    +0.212 C 
ATOM     32  C   UNL     1      -9.156  -0.152   1.915  0.00  0.00    +0.109 C 
ENDBRANCH  26  25
TORSDOF 1
