REMARK  Name = 26744910
REMARK  7 active torsions:
REMARK  status: ('A' for Active; 'I' for Inactive)
REMARK    1  A    between atoms: O_2  and  C_23
REMARK    2  A    between atoms: O_2  and  C_30
REMARK    3  A    between atoms: N_3  and  C_13
REMARK    4  A    between atoms: C_8  and  C_14
REMARK    5  A    between atoms: C_13  and  C_15
REMARK    6  A    between atoms: C_17  and  C_20
REMARK    7  A    between atoms: C_20  and  C_24
REMARK                            x       y       z     vdW  Elec       q    Type
REMARK                         _______ _______ _______ _____ _____    ______ ____
ROOT
ATOM      3  N   UNL     1      -1.839  -0.038   0.469  0.00  0.00    -0.281 NA
ATOM      4  N   UNL     1      -5.414   0.230  -0.631  0.00  0.00    -0.347 N 
ATOM      5  N   UNL     1      -5.125  -1.853  -1.389  0.00  0.00    -0.240 NA
ATOM      8  C   UNL     1      -1.890  -1.534   0.615  0.00  0.00    +0.152 C 
ATOM      9  C   UNL     1      -2.784  -2.213  -0.482  0.00  0.00    +0.086 C 
ATOM     10  C   UNL     1      -3.189   0.587   0.580  0.00  0.00    +0.140 C 
ATOM     11  C   UNL     1      -4.174  -0.160  -0.227  0.00  0.00    +0.053 A 
ATOM     12  C   UNL     1      -4.023  -1.439  -0.696  0.00  0.00    +0.065 A 
ATOM     16  C   UNL     1      -5.949  -0.825  -1.329  0.00  0.00    +0.197 A 
ATOM     31  H   UNL     1      -5.861   1.120  -0.451  0.00  0.00    +0.167 HD
ENDROOT
BRANCH   8  14
ATOM      1  O   UNL     1      -0.159  -2.897   1.696  0.00  0.00    -0.336 OA
ATOM      6  N   UNL     1       0.377  -2.215  -0.369  0.00  0.00    -0.194 NA
ATOM      7  N   UNL     1       1.116  -3.413   1.435  0.00  0.00    -0.061 NA
ATOM     14  C   UNL     1      -0.521  -2.205   0.584  0.00  0.00    +0.245 A 
ATOM     17  C   UNL     1       1.363  -2.968   0.199  0.00  0.00    +0.176 A 
BRANCH  17  20
ATOM     20  C   UNL     1       2.617  -3.271  -0.500  0.00  0.00    +0.114 C 
BRANCH  20  24
ATOM     24  C   UNL     1       3.631  -2.131  -0.517  0.00  0.00    -0.040 A 
ATOM     25  C   UNL     1       3.492  -1.088  -1.433  0.00  0.00    +0.004 A 
ATOM     26  C   UNL     1       4.696  -2.131   0.383  0.00  0.00    +0.004 A 
ATOM     27  C   UNL     1       4.419  -0.045  -1.449  0.00  0.00    +0.000 A 
ATOM     28  C   UNL     1       5.623  -1.089   0.367  0.00  0.00    +0.000 A 
ATOM     29  C   UNL     1       5.484  -0.046  -0.549  0.00  0.00    +0.000 A 
ENDBRANCH  20  24
ENDBRANCH  17  20
ENDBRANCH   8  14
BRANCH   3  13
ATOM     13  C   UNL     1      -0.961   0.591   1.465  0.00  0.00    +0.120 C 
BRANCH  13  15
ATOM     15  C   UNL     1      -0.444   1.925   0.995  0.00  0.00    -0.033 A 
ATOM     18  C   UNL     1       0.580   1.982   0.049  0.00  0.00    +0.008 A 
ATOM     19  C   UNL     1      -0.990   3.103   1.504  0.00  0.00    +0.008 A 
ATOM     21  C   UNL     1       1.058   3.218  -0.387  0.00  0.00    +0.046 A 
ATOM     22  C   UNL     1      -0.512   4.338   1.069  0.00  0.00    +0.046 A 
ATOM     23  C   UNL     1       0.512   4.396   0.123  0.00  0.00    +0.120 A 
BRANCH  23   2
ATOM      2  O   UNL     1       0.978   5.602  -0.302  0.00  0.00    -0.495 OA
ATOM     30  C   UNL     1       2.026   5.588  -1.271  0.00  0.00    +0.277 C 
ENDBRANCH  23   2
ENDBRANCH  13  15
ENDBRANCH   3  13
TORSDOF 6
