REMARK  Name = 51137057
REMARK  4 active torsions:
REMARK  status: ('A' for Active; 'I' for Inactive)
REMARK    1  A    between atoms: N_2  and  C_9
REMARK    2  A    between atoms: C_5  and  C_10
REMARK    3  A    between atoms: C_9  and  C_11
REMARK    4  A    between atoms: C_18  and  C_23
REMARK                            x       y       z     vdW  Elec       q    Type
REMARK                         _______ _______ _______ _____ _____    ______ ____
ROOT
ATOM      2  N   UNL     1      -1.017  -0.615  -0.102  0.00  0.00    -0.297 NA
ATOM      5  C   UNL     1       1.204  -0.747   0.637  0.00  0.00    +0.090 C 
ATOM      6  C   UNL     1       0.406   0.183   1.568  0.00  0.00    +0.029 C 
ATOM      7  C   UNL     1       0.327  -0.890  -0.614  0.00  0.00    +0.097 C 
ATOM      8  C   UNL     1      -0.854   0.534   0.788  0.00  0.00    +0.085 C 
ENDROOT
BRANCH   5  10
ATOM      1  O   UNL     1       3.612  -1.123   0.689  0.00  0.00    -0.439 OA
ATOM      3  N   UNL     1       2.984   0.838  -0.258  0.00  0.00    -0.213 NA
ATOM     10  C   UNL     1       2.607  -0.279   0.323  0.00  0.00    +0.201 A 
ATOM     12  C   UNL     1       4.742  -0.465   0.295  0.00  0.00    +0.155 A 
ATOM     13  C   UNL     1       4.353   0.734  -0.284  0.00  0.00    +0.110 A 
ATOM     16  C   UNL     1       6.058  -0.888   0.432  0.00  0.00    +0.048 A 
ATOM     17  C   UNL     1       5.341   1.601  -0.775  0.00  0.00    +0.031 A 
ATOM     21  C   UNL     1       7.030  -0.012  -0.062  0.00  0.00    +0.004 A 
ATOM     22  C   UNL     1       6.681   1.208  -0.654  0.00  0.00    +0.002 A 
ENDBRANCH   5  10
BRANCH   2   9
ATOM      9  C   UNL     1      -1.975  -0.359  -1.168  0.00  0.00    +0.119 C 
BRANCH   9  11
ATOM     11  C   UNL     1      -3.396  -0.512  -0.694  0.00  0.00    -0.032 A 
ATOM     14  C   UNL     1      -4.173   0.619  -0.442  0.00  0.00    +0.023 A 
ATOM     15  C   UNL     1      -3.935  -1.785  -0.507  0.00  0.00    +0.005 A 
ATOM     18  C   UNL     1      -5.490   0.476  -0.003  0.00  0.00    +0.052 A 
ATOM     19  C   UNL     1      -5.252  -1.927  -0.069  0.00  0.00    +0.002 A 
ATOM     20  C   UNL     1      -6.029  -0.797   0.183  0.00  0.00    +0.019 A 
BRANCH  18  23
ATOM      4  N   UNL     1      -6.935   2.573   0.463  0.00  0.00    -0.191 NA
ATOM     23  C   UNL     1      -6.287   1.633   0.254  0.00  0.00    +0.099 C 
ENDBRANCH  18  23
ENDBRANCH   9  11
ENDBRANCH   2   9
TORSDOF 4
