REMARK  Name = 7144110
REMARK  8 active torsions:
REMARK  status: ('A' for Active; 'I' for Inactive)
REMARK    1  A    between atoms: S_1  and  C_22
REMARK    2  A    between atoms: S_1  and  C_28
REMARK    3  A    between atoms: O_4  and  C_27
REMARK    4  A    between atoms: O_4  and  C_30
REMARK    5  A    between atoms: O_5  and  C_29
REMARK    6  A    between atoms: C_16  and  C_21
REMARK    7  A    between atoms: C_18  and  C_22
REMARK    8  A    between atoms: C_28  and  C_29
REMARK                            x       y       z     vdW  Elec       q    Type
REMARK                         _______ _______ _______ _____ _____    ______ ____
ROOT
ATOM      2  O   UNL     1      -3.204   1.967   2.644  0.00  0.00    -0.268 OA
ATOM      3  O   UNL     1      -3.678  -1.659  -1.147  0.00  0.00    -0.275 OA
ATOM      7  N   UNL     1      -2.059  -0.105  -1.748  0.00  0.00    -0.300 N 
ATOM      8  N   UNL     1      -1.827   1.851   0.752  0.00  0.00    -0.311 N 
ATOM      9  C   UNL     1      -2.744   2.285  -1.602  0.00  0.00    +0.027 C 
ATOM     10  C   UNL     1      -0.382   1.679  -1.298  0.00  0.00    +0.054 C 
ATOM     11  C   UNL     1      -1.320   2.711  -1.921  0.00  0.00    +0.018 C 
ATOM     12  C   UNL     1      -3.040   0.891  -2.179  0.00  0.00    +0.113 C 
ATOM     13  C   UNL     1      -2.936   2.329  -0.086  0.00  0.00    +0.130 C 
ATOM     14  C   UNL     1      -0.656   0.294  -1.920  0.00  0.00    +0.117 C 
ATOM     15  C   UNL     1      -0.542   1.617   0.224  0.00  0.00    +0.034 A 
ATOM     16  C   UNL     1       0.489   1.323   1.058  0.00  0.00    +0.002 A 
ATOM     17  C   UNL     1      -2.106   1.760   2.128  0.00  0.00    +0.252 A 
ATOM     18  C   UNL     1      -2.492  -1.347  -1.284  0.00  0.00    +0.225 C 
ATOM     19  C   UNL     1       0.239   1.217   2.483  0.00  0.00    +0.015 A 
ATOM     20  C   UNL     1      -0.971   1.403   3.010  0.00  0.00    +0.071 A 
ENDROOT
BRANCH  16  21
ATOM     21  C   UNL     1       1.859   1.088   0.552  0.00  0.00    -0.016 A 
ATOM     23  C   UNL     1       2.249  -0.196   0.184  0.00  0.00    +0.012 A 
ATOM     24  C   UNL     1       2.748   2.153   0.447  0.00  0.00    +0.012 A 
ATOM     25  C   UNL     1       3.541  -0.417  -0.293  0.00  0.00    +0.046 A 
ATOM     26  C   UNL     1       4.040   1.932  -0.030  0.00  0.00    +0.046 A 
ATOM     27  C   UNL     1       4.437   0.647  -0.400  0.00  0.00    +0.120 A 
BRANCH  27   4
ATOM      4  O   UNL     1       5.697   0.431  -0.865  0.00  0.00    -0.495 OA
ATOM     30  C   UNL     1       6.036  -0.907  -1.225  0.00  0.00    +0.277 C 
ENDBRANCH  27   4
ENDBRANCH  16  21
BRANCH  18  22
ATOM     22  C   UNL     1      -1.421  -2.346  -0.927  0.00  0.00    +0.165 C 
BRANCH  22   1
ATOM      1  S   UNL     1      -2.238  -3.843  -0.355  0.00  0.00    -0.140 S 
BRANCH   1  28
ATOM     28  C   UNL     1      -0.772  -4.844  -0.003  0.00  0.00    +0.189 C 
BRANCH  28  29
ATOM      6  O   UNL     1      -0.332  -3.882   2.162  0.00  0.00    -0.250 OA
ATOM     29  C   UNL     1       0.064  -4.156   1.036  0.00  0.00    +0.315 C 
BRANCH  29   5
ATOM      5  O   UNL     1       1.320  -3.880   0.601  0.00  0.00    -0.480 OA
ATOM     31  H   UNL     1       1.857  -3.435   1.290  0.00  0.00    +0.295 HD
ENDBRANCH  29   5
ENDBRANCH  28  29
ENDBRANCH   1  28
ENDBRANCH  22   1
ENDBRANCH  18  22
TORSDOF 7
