REMARK  Name = 11941639
REMARK  8 active torsions:
REMARK  status: ('A' for Active; 'I' for Inactive)
REMARK    1  A    between atoms: N_4  and  C_11
REMARK    2  A    between atoms: N_5  and  C_12
REMARK    3  A    between atoms: N_7  and  C_21
REMARK    4  A    between atoms: C_17  and  C_18
REMARK    5  A    between atoms: C_17  and  C_22
REMARK    6  A    between atoms: C_17  and  C_23
REMARK    7  A    between atoms: C_17  and  C_24
REMARK    8  A    between atoms: C_21  and  C_25
REMARK                            x       y       z     vdW  Elec       q    Type
REMARK                         _______ _______ _______ _____ _____    ______ ____
ROOT
ATOM      1  O   UNL     1       0.100   2.902  -1.751  0.00  0.00    -0.370 OA
ATOM      2  O   UNL     1       1.049   2.467   1.189  0.00  0.00    -0.370 OA
ATOM      9  C   UNL     1       0.946   1.597   0.050  0.00  0.00    +0.171 C 
ATOM     10  C   UNL     1      -0.304   1.997  -0.710  0.00  0.00    +0.171 C 
ATOM     11  C   UNL     1       2.071   1.869  -0.921  0.00  0.00    +0.130 C 
ATOM     12  C   UNL     1      -1.144   2.720   0.318  0.00  0.00    +0.131 C 
ATOM     13  C   UNL     1       1.530   3.024  -1.743  0.00  0.00    +0.185 C 
ATOM     14  C   UNL     1      -0.091   3.338   1.221  0.00  0.00    +0.185 C 
ENDROOT
BRANCH  11   4
ATOM      4  N   UNL     1       2.288   0.713  -1.763  0.00  0.00    -0.306 N 
ATOM      6  N   UNL     1       3.696  -0.308  -0.188  0.00  0.00    -0.219 NA
ATOM      8  N   UNL     1       3.203  -1.383  -2.289  0.00  0.00    -0.223 NA
ATOM     15  C   UNL     1       3.086  -0.358  -1.403  0.00  0.00    +0.216 A 
ATOM     18  C   UNL     1       4.466  -1.369   0.131  0.00  0.00    +0.052 A 
ATOM     19  C   UNL     1       4.651  -2.459  -0.695  0.00  0.00    +0.043 A 
ATOM     20  C   UNL     1       3.989  -2.410  -1.905  0.00  0.00    +0.116 A 
ATOM     31  H   UNL     1       1.796   0.642  -2.647  0.00  0.00    +0.149 HD
BRANCH  18  17
ATOM     17  C   UNL     1       5.143  -1.331   1.460  0.00  0.00    +0.005 C 
ATOM     22  C   UNL     1       4.704  -2.533   2.352  0.00  0.00    +0.017 C 
ATOM     23  C   UNL     1       4.865  -0.052   2.318  0.00  0.00    +0.017 C 
ATOM     24  C   UNL     1       6.693  -1.400   1.307  0.00  0.00    +0.017 C 
ENDBRANCH  18  17
ENDBRANCH  11   4
BRANCH  12   5
ATOM      3  O   UNL     1      -3.889   2.041  -0.259  0.00  0.00    -0.253 OA
ATOM      5  N   UNL     1      -1.984   1.800   1.047  0.00  0.00    -0.292 N 
ATOM      7  N   UNL     1      -3.882   0.608   1.567  0.00  0.00    -0.295 N 
ATOM     16  C   UNL     1      -3.305   1.530   0.697  0.00  0.00    +0.300 C 
ATOM     32  H   UNL     1      -1.575   1.276   1.814  0.00  0.00    +0.151 HD
ATOM     33  H   UNL     1      -3.315   0.223   2.316  0.00  0.00    +0.151 HD
BRANCH   7  21
ATOM     21  C   UNL     1      -5.245   0.152   1.432  0.00  0.00    +0.141 C 
BRANCH  21  25
ATOM     25  C   UNL     1      -5.346  -1.067   0.561  0.00  0.00    -0.030 A 
ATOM     26  C   UNL     1      -5.532  -0.919  -0.808  0.00  0.00    +0.005 A 
ATOM     27  C   UNL     1      -5.252  -2.331   1.133  0.00  0.00    +0.005 A 
ATOM     28  C   UNL     1      -5.626  -2.051  -1.618  0.00  0.00    +0.000 A 
ATOM     29  C   UNL     1      -5.345  -3.463   0.323  0.00  0.00    +0.000 A 
ATOM     30  C   UNL     1      -5.532  -3.323  -1.052  0.00  0.00    +0.000 A 
ENDBRANCH  21  25
ENDBRANCH   7  21
ENDBRANCH  12   5
TORSDOF 5
