REMARK  Name = 28963128
REMARK  8 active torsions:
REMARK  status: ('A' for Active; 'I' for Inactive)
REMARK    1  A    between atoms: O_1  and  C_11
REMARK    2  A    between atoms: N_4  and  C_15
REMARK    3  A    between atoms: C_8  and  C_18
REMARK    4  A    between atoms: C_10  and  C_20
REMARK    5  A    between atoms: C_13  and  C_19
REMARK    6  A    between atoms: C_19  and  C_21
REMARK    7  A    between atoms: C_19  and  C_22
REMARK    8  A    between atoms: C_23  and  C_28
REMARK                            x       y       z     vdW  Elec       q    Type
REMARK                         _______ _______ _______ _____ _____    ______ ____
ROOT
ATOM      8  C   UNL     1       0.234  -1.524   1.018  0.00  0.00    -0.027 C 
ATOM      9  C   UNL     1       0.147  -0.298   0.050  0.00  0.00    +0.028 C 
ATOM     10  C   UNL     1      -1.303  -0.151  -0.537  0.00  0.00    +0.012 C 
ATOM     11  C   UNL     1       1.294  -0.326  -1.001  0.00  0.00    +0.122 C 
ATOM     12  C   UNL     1       1.639  -1.573   1.664  0.00  0.00    +0.007 C 
ATOM     13  C   UNL     1       2.690  -0.479  -0.353  0.00  0.00    +0.029 C 
ATOM     14  C   UNL     1      -0.800  -1.346   2.153  0.00  0.00    +0.009 C 
ATOM     15  C   UNL     1      -2.342  -0.047   0.614  0.00  0.00    +0.076 C 
ATOM     16  C   UNL     1       2.763  -1.641   0.639  0.00  0.00    +0.007 C 
ATOM     17  C   UNL     1      -2.224  -1.172   1.642  0.00  0.00    +0.023 C 
ATOM     18  C   UNL     1      -0.029  -2.870   0.296  0.00  0.00    +0.011 C 
ATOM     20  C   UNL     1      -1.467   1.056  -1.477  0.00  0.00    +0.010 C 
ENDROOT
BRANCH  15   4
ATOM      3  O   UNL     1      -4.582   1.323   1.776  0.00  0.00    -0.270 OA
ATOM      4  N   UNL     1      -3.700  -0.028   0.110  0.00  0.00    -0.308 N 
ATOM     23  C   UNL     1      -4.715   0.666   0.746  0.00  0.00    +0.247 C 
ATOM     33  H   UNL     1      -3.909  -0.629  -0.680  0.00  0.00    +0.149 HD
BRANCH  23  28
ATOM      6  N   UNL     1      -8.456   0.616   0.309  0.00  0.00    -0.243 NA
ATOM      7  N   UNL     1      -7.425   0.231  -1.835  0.00  0.00    -0.243 NA
ATOM     28  C   UNL     1      -6.058   0.566   0.118  0.00  0.00    +0.073 A 
ATOM     30  C   UNL     1      -7.221   0.702   0.846  0.00  0.00    +0.127 A 
ATOM     31  C   UNL     1      -6.222   0.329  -1.232  0.00  0.00    +0.127 A 
ATOM     32  C   UNL     1      -8.484   0.382  -1.017  0.00  0.00    +0.221 A 
ENDBRANCH  23  28
ENDBRANCH  15   4
BRANCH  11   1
ATOM      1  O   UNL     1       1.312   0.908  -1.721  0.00  0.00    -0.391 OA
ATOM     34  H   UNL     1       1.461   1.627  -1.084  0.00  0.00    +0.210 HD
ENDBRANCH  11   1
BRANCH  13  19
ATOM     19  C   UNL     1       3.792  -0.636  -1.407  0.00  0.00    +0.078 C 
ATOM     21  C   UNL     1       3.570  -1.878  -2.251  0.00  0.00    +0.017 C 
BRANCH  19  22
ATOM      2  O   UNL     1       5.577  -1.826  -0.400  0.00  0.00    -0.275 OA
ATOM      5  N   UNL     1       5.766   0.489  -0.438  0.00  0.00    -0.301 N 
ATOM     22  C   UNL     1       5.124  -0.719  -0.704  0.00  0.00    +0.219 C 
ATOM     24  C   UNL     1       7.062   0.491   0.244  0.00  0.00    +0.108 C 
ATOM     25  C   UNL     1       5.274   1.817  -0.827  0.00  0.00    +0.108 C 
ATOM     26  C   UNL     1       7.029   1.394   1.475  0.00  0.00    +0.019 C 
ATOM     27  C   UNL     1       5.208   2.746   0.383  0.00  0.00    +0.019 C 
ATOM     29  C   UNL     1       6.547   2.799   1.117  0.00  0.00    +0.003 C 
ENDBRANCH  19  22
ENDBRANCH  13  19
TORSDOF 5
