REMARK  Name = 38026982
REMARK  13 active torsions:
REMARK  status: ('A' for Active; 'I' for Inactive)
REMARK    1  A    between atoms: S_1  and  N_6
REMARK    2  A    between atoms: S_1  and  C_24
REMARK    3  A    between atoms: N_6  and  C_16
REMARK    4  A    between atoms: N_7  and  C_22
REMARK    5  A    between atoms: N_8  and  C_23
REMARK    6  A    between atoms: C_9  and  C_13
REMARK    7  A    between atoms: C_10  and  C_16
REMARK    8  A    between atoms: C_12  and  C_17
REMARK    9  A    between atoms: C_13  and  C_18
REMARK   10  A    between atoms: C_13  and  C_19
REMARK   11  A    between atoms: C_14  and  C_20
REMARK   12  A    between atoms: C_17  and  C_21
REMARK   13  A    between atoms: C_22  and  C_23
REMARK                            x       y       z     vdW  Elec       q    Type
REMARK                         _______ _______ _______ _____ _____    ______ ____
ROOT
ATOM      9  C   UNL     1      -1.973  -0.838  -1.179  0.00  0.00    +0.000 C 
ATOM     10  C   UNL     1      -3.514  -0.850  -1.018  0.00  0.00    +0.030 C 
ATOM     11  C   UNL     1      -1.415  -2.267  -1.099  0.00  0.00    +0.012 C 
ATOM     12  C   UNL     1      -1.761  -2.954   0.236  0.00  0.00    +0.023 C 
ATOM     14  C   UNL     1      -3.222  -2.777   0.598  0.00  0.00    -0.073 C 
ATOM     15  C   UNL     1      -3.993  -1.840   0.018  0.00  0.00    -0.023 C 
ATOM     20  C   UNL     1      -3.789  -3.732   1.611  0.00  0.00    +0.039 C 
ENDROOT
BRANCH   9  13
ATOM     13  C   UNL     1      -1.544  -0.186  -2.497  0.00  0.00    -0.013 C 
ATOM     18  C   UNL     1      -0.023  -0.095  -2.575  0.00  0.00    +0.007 C 
ATOM     19  C   UNL     1      -2.101  -0.968  -3.683  0.00  0.00    +0.007 C 
ENDBRANCH   9  13
BRANCH  10  16
ATOM     16  C   UNL     1      -4.044   0.547  -0.672  0.00  0.00    +0.113 C 
BRANCH  16   6
ATOM      6  N   UNL     1      -3.544   0.937   0.655  0.00  0.00    -0.189 NA
ATOM     34  H   UNL     1      -3.755   0.302   1.435  0.00  0.00    +0.148 HD
BRANCH   6   1
ATOM      1  S   UNL     1      -3.274   2.578   1.021  0.00  0.00    +0.058 S 
ATOM      3  O   UNL     1      -3.344   2.766   2.458  0.00  0.00    -0.153 OA
ATOM      4  O   UNL     1      -4.079   3.401   0.138  0.00  0.00    -0.153 OA
BRANCH   1  24
ATOM     24  C   UNL     1      -1.590   2.785   0.526  0.00  0.00    +0.105 A 
ATOM     29  C   UNL     1      -1.289   3.174  -0.779  0.00  0.00    +0.028 A 
ATOM     30  C   UNL     1      -0.561   2.556   1.440  0.00  0.00    +0.028 A 
ATOM     31  C   UNL     1       0.040   3.333  -1.171  0.00  0.00    +0.002 A 
ATOM     32  C   UNL     1       0.768   2.715   1.048  0.00  0.00    +0.002 A 
ATOM     33  C   UNL     1       1.069   3.104  -0.258  0.00  0.00    +0.000 A 
ENDBRANCH   1  24
ENDBRANCH   6   1
ENDBRANCH  16   6
ENDBRANCH  10  16
BRANCH  12  17
ATOM     17  C   UNL     1      -0.852  -2.458   1.365  0.00  0.00    +0.103 C 
BRANCH  17  21
ATOM      2  O   UNL     1       1.057  -3.491   0.296  0.00  0.00    -0.276 OA
ATOM      7  N   UNL     1       1.370  -1.615   1.631  0.00  0.00    -0.314 N 
ATOM     21  C   UNL     1       0.614  -2.605   1.021  0.00  0.00    +0.214 C 
ATOM     35  H   UNL     1       0.911  -0.920   2.214  0.00  0.00    +0.149 HD
BRANCH   7  22
ATOM     22  C   UNL     1       2.803  -1.511   1.480  0.00  0.00    +0.119 C 
BRANCH  22  23
ATOM     23  C   UNL     1       3.169  -0.635   0.291  0.00  0.00    +0.103 C 
BRANCH  23   8
ATOM      5  O   UNL     1       7.022   0.856  -0.448  0.00  0.00    -0.377 OA
ATOM      8  N   UNL     1       4.622  -0.552   0.150  0.00  0.00    -0.297 NA
ATOM     25  C   UNL     1       4.994  -0.220  -1.232  0.00  0.00    +0.112 C 
ATOM     26  C   UNL     1       5.179   0.445   1.075  0.00  0.00    +0.112 C 
ATOM     27  C   UNL     1       6.513  -0.126  -1.351  0.00  0.00    +0.175 C 
ATOM     28  C   UNL     1       6.693   0.524   0.902  0.00  0.00    +0.175 C 
ENDBRANCH  23   8
ENDBRANCH  22  23
ENDBRANCH   7  22
ENDBRANCH  17  21
ENDBRANCH  12  17
TORSDOF 10
