REMARK  Name = 38027879
REMARK  17 active torsions:
REMARK  status: ('A' for Active; 'I' for Inactive)
REMARK    1  A    between atoms: O_3  and  C_24
REMARK    2  A    between atoms: O_3  and  C_28
REMARK    3  A    between atoms: O_4  and  C_31
REMARK    4  A    between atoms: O_4  and  C_33
REMARK    5  A    between atoms: O_5  and  C_32
REMARK    6  A    between atoms: N_7  and  C_16
REMARK    7  A    between atoms: N_8  and  C_23
REMARK    8  A    between atoms: C_9  and  C_13
REMARK    9  A    between atoms: C_10  and  C_16
REMARK   10  A    between atoms: C_12  and  C_17
REMARK   11  A    between atoms: C_13  and  C_18
REMARK   12  A    between atoms: C_13  and  C_19
REMARK   13  A    between atoms: C_14  and  C_20
REMARK   14  A    between atoms: C_17  and  C_21
REMARK   15  A    between atoms: C_22  and  C_24
REMARK   16  A    between atoms: C_23  and  C_25
REMARK   17  A    between atoms: C_28  and  C_32
REMARK                            x       y       z     vdW  Elec       q    Type
REMARK                         _______ _______ _______ _____ _____    ______ ____
ROOT
ATOM      9  C   UNL     1       0.220   2.194  -1.169  0.00  0.00    +0.000 C 
ATOM     10  C   UNL     1       1.497   3.003  -1.508  0.00  0.00    +0.032 C 
ATOM     11  C   UNL     1      -0.708   3.014  -0.260  0.00  0.00    +0.012 C 
ATOM     12  C   UNL     1      -0.022   3.418   1.059  0.00  0.00    +0.023 C 
ATOM     14  C   UNL     1       1.365   3.982   0.823  0.00  0.00    -0.073 C 
ATOM     15  C   UNL     1       2.022   3.797  -0.336  0.00  0.00    -0.022 C 
ATOM     20  C   UNL     1       1.960   4.802   1.933  0.00  0.00    +0.039 C 
ENDROOT
BRANCH   9  13
ATOM     13  C   UNL     1      -0.535   1.768  -2.432  0.00  0.00    -0.013 C 
ATOM     18  C   UNL     1      -1.386   0.533  -2.153  0.00  0.00    +0.007 C 
ATOM     19  C   UNL     1      -1.399   2.915  -2.947  0.00  0.00    +0.007 C 
ENDBRANCH   9  13
BRANCH  10  16
ATOM     16  C   UNL     1       2.605   2.088  -2.043  0.00  0.00    +0.112 C 
BRANCH  16   7
ATOM      2  O   UNL     1       2.528  -0.802  -2.129  0.00  0.00    -0.273 OA
ATOM      7  N   UNL     1       3.049   1.183  -1.030  0.00  0.00    -0.313 N 
ATOM     22  C   UNL     1       2.974  -0.204  -1.153  0.00  0.00    +0.239 C 
ATOM     34  H   UNL     1       3.490   1.570  -0.201  0.00  0.00    +0.149 HD
BRANCH  22  24
ATOM     24  C   UNL     1       3.515  -0.918   0.067  0.00  0.00    +0.256 C 
BRANCH  24   3
ATOM      3  O   UNL     1       3.437  -2.318  -0.098  0.00  0.00    -0.359 OA
BRANCH   3  28
ATOM     28  C   UNL     1       3.939  -3.016   1.037  0.00  0.00    +0.280 C 
BRANCH  28  32
ATOM      6  O   UNL     1       3.366  -5.039  -0.179  0.00  0.00    -0.248 OA
ATOM     32  C   UNL     1       3.834  -4.498   0.811  0.00  0.00    +0.331 C 
BRANCH  32   5
ATOM      5  O   UNL     1       4.338  -5.172   1.876  0.00  0.00    -0.479 OA
ATOM     36  H   UNL     1       4.282  -6.144   1.755  0.00  0.00    +0.295 HD
ENDBRANCH  32   5
ENDBRANCH  28  32
ENDBRANCH   3  28
ENDBRANCH  24   3
ENDBRANCH  22  24
ENDBRANCH  16   7
ENDBRANCH  10  16
BRANCH  12  17
ATOM     17  C   UNL     1       0.024   2.242   2.041  0.00  0.00    +0.103 C 
BRANCH  17  21
ATOM      1  O   UNL     1      -2.387   2.296   2.234  0.00  0.00    -0.276 OA
ATOM      8  N   UNL     1      -1.258   0.290   2.554  0.00  0.00    -0.311 N 
ATOM     21  C   UNL     1      -1.346   1.647   2.280  0.00  0.00    +0.214 C 
ATOM     35  H   UNL     1      -0.347  -0.160   2.567  0.00  0.00    +0.149 HD
BRANCH   8  23
ATOM     23  C   UNL     1      -2.412  -0.536   2.825  0.00  0.00    +0.139 C 
BRANCH  23  25
ATOM     25  C   UNL     1      -2.976  -1.140   1.571  0.00  0.00    -0.030 A 
ATOM     26  C   UNL     1      -4.294  -0.871   1.200  0.00  0.00    +0.009 A 
ATOM     27  C   UNL     1      -2.184  -1.970   0.778  0.00  0.00    +0.009 A 
ATOM     29  C   UNL     1      -4.819  -1.433   0.036  0.00  0.00    +0.046 A 
ATOM     30  C   UNL     1      -2.709  -2.532  -0.385  0.00  0.00    +0.046 A 
ATOM     31  C   UNL     1      -4.027  -2.263  -0.757  0.00  0.00    +0.120 A 
BRANCH  31   4
ATOM      4  O   UNL     1      -4.539  -2.811  -1.892  0.00  0.00    -0.495 OA
ATOM     33  C   UNL     1      -3.674  -3.650  -2.656  0.00  0.00    +0.277 C 
ENDBRANCH  31   4
ENDBRANCH  23  25
ENDBRANCH   8  23
ENDBRANCH  17  21
ENDBRANCH  12  17
TORSDOF 13
