REMARK  Name = 75367736
REMARK  5 active torsions:
REMARK  status: ('A' for Active; 'I' for Inactive)
REMARK    1  A    between atoms: O_2  and  C_7
REMARK    2  A    between atoms: O_2  and  C_14
REMARK    3  A    between atoms: N_3  and  C_9
REMARK    4  A    between atoms: N_4  and  C_15
REMARK    5  A    between atoms: C_9  and  C_12
REMARK                            x       y       z     vdW  Elec       q    Type
REMARK                         _______ _______ _______ _____ _____    ______ ____
ROOT
ATOM      1  O   UNL     1       3.078  -1.597   0.445  0.00  0.00    -0.376 OA
ATOM      3  N   UNL     1       0.274  -0.653  -0.542  0.00  0.00    -0.291 NA
ATOM      6  C   UNL     1       0.902   0.659  -0.351  0.00  0.00    +0.118 C 
ATOM      7  C   UNL     1       2.373   0.692   0.093  0.00  0.00    +0.157 C 
ATOM      8  C   UNL     1       1.160  -1.669  -1.112  0.00  0.00    +0.113 C 
ATOM     10  C   UNL     1       2.747  -0.381   1.107  0.00  0.00    +0.192 C 
ATOM     11  C   UNL     1       1.958  -2.350   0.002  0.00  0.00    +0.175 C 
ENDROOT
BRANCH   7   2
ATOM      2  O   UNL     1       2.629   1.966   0.685  0.00  0.00    -0.376 OA
ATOM     14  C   UNL     1       2.845   2.960  -0.304  0.00  0.00    +0.194 C 
ENDBRANCH   7   2
BRANCH   3   9
ATOM      9  C   UNL     1      -0.955  -0.514  -1.325  0.00  0.00    +0.159 C 
BRANCH   9  12
ATOM      4  N   UNL     1      -2.761  -0.542   0.426  0.00  0.00    -0.336 N 
ATOM      5  N   UNL     1      -2.461   1.381  -0.644  0.00  0.00    -0.239 NA
ATOM     12  C   UNL     1      -2.055   0.136  -0.529  0.00  0.00    +0.124 A 
ATOM     13  C   UNL     1      -3.675   0.327   0.953  0.00  0.00    +0.106 A 
ATOM     15  C   UNL     1      -2.587  -1.920   0.819  0.00  0.00    +0.150 C 
ATOM     16  C   UNL     1      -3.471   1.506   0.277  0.00  0.00    +0.130 A 
ENDBRANCH   9  12
ENDBRANCH   3   9
TORSDOF 3
