REMARK  Name = 45783329
REMARK  5 active torsions:
REMARK  status: ('A' for Active; 'I' for Inactive)
REMARK    1  A    between atoms: N_4  and  C_17
REMARK    2  A    between atoms: C_10  and  C_20
REMARK    3  A    between atoms: C_14  and  C_22
REMARK    4  A    between atoms: C_17  and  C_23
REMARK    5  A    between atoms: C_24  and  C_26
REMARK                            x       y       z     vdW  Elec       q    Type
REMARK                         _______ _______ _______ _____ _____    ______ ____
ROOT
ATOM      5  N   UNL     1       3.086  -0.435  -0.399  0.00  0.00    -0.315 N 
ATOM      8  N   UNL     1       2.595  -2.619   0.372  0.00  0.00    -0.240 NA
ATOM     14  C   UNL     1       5.072   1.571  -1.076  0.00  0.00    +0.078 C 
ATOM     15  C   UNL     1       5.045   0.200  -1.748  0.00  0.00    +0.031 C 
ATOM     16  C   UNL     1       3.697   1.949  -0.532  0.00  0.00    +0.031 C 
ATOM     18  C   UNL     1       4.403  -0.877  -0.874  0.00  0.00    +0.107 C 
ATOM     19  C   UNL     1       3.050   0.847   0.310  0.00  0.00    +0.107 C 
ATOM     21  C   UNL     1       2.149  -1.425  -0.080  0.00  0.00    +0.122 A 
ATOM     25  C   UNL     1       0.811  -1.112  -0.253  0.00  0.00    +0.055 A 
ATOM     26  C   UNL     1      -0.131  -2.086   0.058  0.00  0.00    +0.027 A 
ATOM     28  C   UNL     1       0.288  -3.327   0.525  0.00  0.00    +0.031 A 
ATOM     29  C   UNL     1       1.650  -3.541   0.664  0.00  0.00    +0.113 A 
ENDROOT
BRANCH  26  24
ATOM      2  O   UNL     1      -3.658  -2.021  -0.121  0.00  0.00    -0.336 OA
ATOM      6  N   UNL     1      -1.978  -0.606  -0.559  0.00  0.00    -0.190 NA
ATOM      7  N   UNL     1      -2.478  -2.712   0.182  0.00  0.00    -0.056 NA
ATOM     20  C   UNL     1      -3.274  -0.790  -0.549  0.00  0.00    +0.245 A 
ATOM     24  C   UNL     1      -1.532  -1.812  -0.102  0.00  0.00    +0.202 A 
BRANCH  20  10
ATOM      4  N   UNL     1      -4.001   1.579  -0.772  0.00  0.00    -0.287 NA
ATOM     10  C   UNL     1      -4.383   0.163  -0.943  0.00  0.00    +0.146 C 
ATOM     11  C   UNL     1      -4.774   0.040  -2.427  0.00  0.00    +0.030 C 
ATOM     12  C   UNL     1      -4.639   1.447  -2.992  0.00  0.00    +0.017 C 
ATOM     13  C   UNL     1      -4.758   2.335  -1.770  0.00  0.00    +0.085 C 
BRANCH   4  17
ATOM     17  C   UNL     1      -4.226   2.076   0.580  0.00  0.00    +0.127 C 
BRANCH  17  23
ATOM      1  S   UNL     1      -3.521   0.733   2.911  0.00  0.00    -0.100 S 
ATOM     23  C   UNL     1      -3.130   1.655   1.522  0.00  0.00    +0.004 A 
ATOM     27  C   UNL     1      -1.779   1.913   1.435  0.00  0.00    +0.012 A 
ATOM     30  C   UNL     1      -1.056   1.346   2.524  0.00  0.00    +0.008 A 
ATOM     31  C   UNL     1      -1.881   0.676   3.401  0.00  0.00    +0.045 A 
ENDBRANCH  17  23
ENDBRANCH   4  17
ENDBRANCH  20  10
ENDBRANCH  26  24
BRANCH  14  22
ATOM      3  O   UNL     1       5.846   1.887   1.165  0.00  0.00    -0.276 OA
ATOM      9  N   UNL     1       7.387   1.332  -0.451  0.00  0.00    -0.329 N 
ATOM     22  C   UNL     1       6.119   1.611  -0.001  0.00  0.00    +0.214 C 
ATOM     32  H   UNL     1       8.174   1.329   0.189  0.00  0.00    +0.145 HD
ATOM     33  H   UNL     1       7.603   1.167  -1.429  0.00  0.00    +0.145 HD
ENDBRANCH  14  22
TORSDOF 5
