REMARK  Name = 11884452
REMARK  6 active torsions:
REMARK  status: ('A' for Active; 'I' for Inactive)
REMARK    1  A    between atoms: S_1  and  N_8
REMARK    2  A    between atoms: S_1  and  C_22
REMARK    3  A    between atoms: O_7  and  C_32
REMARK    4  A    between atoms: O_7  and  C_33
REMARK    5  A    between atoms: N_10  and  C_20
REMARK    6  A    between atoms: C_26  and  C_27
REMARK                            x       y       z     vdW  Elec       q    Type
REMARK                         _______ _______ _______ _____ _____    ______ ____
ROOT
ATOM      5  O   UNL     1      -0.337   2.215  -1.439  0.00  0.00    -0.266 OA
ATOM      8  N   UNL     1       4.124   0.233  -0.444  0.00  0.00    -0.175 NA
ATOM      9  N   UNL     1       1.477   1.902   0.001  0.00  0.00    -0.310 N 
ATOM     11  C   UNL     1       3.842   2.711  -0.553  0.00  0.00    +0.025 C 
ATOM     12  C   UNL     1       3.421   1.529   1.558  0.00  0.00    +0.052 C 
ATOM     13  C   UNL     1       4.012   2.802   0.958  0.00  0.00    +0.017 C 
ATOM     14  C   UNL     1       4.586   1.485  -1.108  0.00  0.00    +0.114 C 
ATOM     15  C   UNL     1       4.203   0.306   1.046  0.00  0.00    +0.119 C 
ATOM     16  C   UNL     1       2.345   2.688  -0.886  0.00  0.00    +0.130 C 
ATOM     17  C   UNL     1       1.949   1.397   1.216  0.00  0.00    +0.026 A 
ATOM     18  C   UNL     1       1.109   0.779   2.063  0.00  0.00    +0.024 A 
ATOM     19  C   UNL     1       0.127   1.773  -0.387  0.00  0.00    +0.273 A 
ATOM     20  C   UNL     1      -0.771   1.058   0.574  0.00  0.00    +0.099 A 
ATOM     21  C   UNL     1      -0.278   0.607   1.732  0.00  0.00    +0.030 A 
ENDROOT
BRANCH  20  10
ATOM      6  O   UNL     1      -2.493  -1.056   1.417  0.00  0.00    -0.270 OA
ATOM     10  N   UNL     1      -2.082   0.901   0.230  0.00  0.00    -0.277 N 
ATOM     26  C   UNL     1      -2.868  -0.152   0.674  0.00  0.00    +0.248 C 
ATOM     34  H   UNL     1      -2.414   1.526  -0.497  0.00  0.00    +0.155 HD
BRANCH  26  27
ATOM     27  C   UNL     1      -4.280  -0.142   0.212  0.00  0.00    +0.037 A 
ATOM     28  C   UNL     1      -5.240  -0.754   0.990  0.00  0.00    +0.016 A 
ATOM     29  C   UNL     1      -4.586   0.480  -0.981  0.00  0.00    +0.016 A 
ATOM     30  C   UNL     1      -6.566  -0.745   0.556  0.00  0.00    +0.046 A 
ATOM     31  C   UNL     1      -5.912   0.490  -1.414  0.00  0.00    +0.046 A 
ATOM     32  C   UNL     1      -6.902  -0.122  -0.646  0.00  0.00    +0.120 A 
BRANCH  32   7
ATOM      7  O   UNL     1      -8.196  -0.111  -1.068  0.00  0.00    -0.495 OA
ATOM     33  C   UNL     1      -9.157  -0.754  -0.233  0.00  0.00    +0.277 C 
ENDBRANCH  32   7
ENDBRANCH  26  27
ENDBRANCH  20  10
BRANCH   8   1
ATOM      1  S   UNL     1       4.684  -1.225  -1.144  0.00  0.00    +0.067 S 
ATOM      3  O   UNL     1       6.021  -1.499  -0.661  0.00  0.00    -0.152 OA
ATOM      4  O   UNL     1       4.393  -1.210  -2.562  0.00  0.00    -0.152 OA
BRANCH   1  22
ATOM      2  S   UNL     1       1.966  -2.277  -0.908  0.00  0.00    -0.077 S 
ATOM     22  C   UNL     1       3.588  -2.377  -0.377  0.00  0.00    +0.143 A 
ATOM     23  C   UNL     1       3.770  -3.352   0.572  0.00  0.00    +0.036 A 
ATOM     24  C   UNL     1       2.555  -4.033   0.872  0.00  0.00    +0.010 A 
ATOM     25  C   UNL     1       1.495  -3.548   0.138  0.00  0.00    +0.047 A 
ENDBRANCH   1  22
ENDBRANCH   8   1
TORSDOF 5
