REMARK  Name = 51137085
REMARK  3 active torsions:
REMARK  status: ('A' for Active; 'I' for Inactive)
REMARK    1  A    between atoms: N_2  and  C_10
REMARK    2  A    between atoms: C_5  and  C_9
REMARK    3  A    between atoms: C_10  and  C_11
REMARK                            x       y       z     vdW  Elec       q    Type
REMARK                         _______ _______ _______ _____ _____    ______ ____
ROOT
ATOM      2  N   UNL     1      -1.731  -0.330  -0.135  0.00  0.00    -0.296 NA
ATOM      5  C   UNL     1       0.445  -1.023   0.399  0.00  0.00    +0.060 C 
ATOM      6  C   UNL     1      -0.228  -0.431   1.649  0.00  0.00    +0.027 C 
ATOM      7  C   UNL     1      -0.431  -0.556  -0.771  0.00  0.00    +0.095 C 
ATOM      8  C   UNL     1      -1.421   0.354   1.121  0.00  0.00    +0.085 C 
ENDROOT
BRANCH   5   9
ATOM      1  S   UNL     1       3.074  -1.899   0.178  0.00  0.00    -0.072 S 
ATOM      3  N   UNL     1       2.346   0.575   0.112  0.00  0.00    -0.244 NA
ATOM      9  C   UNL     1       1.901  -0.655   0.227  0.00  0.00    +0.084 A 
ATOM     12  C   UNL     1       4.310  -0.712  -0.016  0.00  0.00    +0.039 A 
ATOM     13  C   UNL     1       3.726   0.558  -0.029  0.00  0.00    +0.078 A 
ATOM     15  C   UNL     1       5.696  -0.892  -0.148  0.00  0.00    +0.017 A 
ATOM     16  C   UNL     1       4.561   1.686  -0.178  0.00  0.00    +0.029 A 
ATOM     17  C   UNL     1       6.500   0.241  -0.295  0.00  0.00    +0.001 A 
ATOM     18  C   UNL     1       5.942   1.514  -0.310  0.00  0.00    +0.002 A 
ENDBRANCH   5   9
BRANCH   2  10
ATOM     10  C   UNL     1      -2.635   0.440  -0.977  0.00  0.00    +0.139 C 
BRANCH  10  11
ATOM      4  N   UNL     1      -4.598   1.345   0.140  0.00  0.00    -0.259 NA
ATOM     11  C   UNL     1      -4.067   0.300  -0.535  0.00  0.00    +0.055 A 
ATOM     14  C   UNL     1      -4.759  -0.862  -0.835  0.00  0.00    +0.024 A 
ATOM     19  C   UNL     1      -6.081  -0.959  -0.414  0.00  0.00    +0.003 A 
ATOM     20  C   UNL     1      -5.885   1.214   0.533  0.00  0.00    +0.111 A 
ATOM     21  C   UNL     1      -6.662   0.094   0.283  0.00  0.00    +0.020 A 
ENDBRANCH  10  11
ENDBRANCH   2  10
TORSDOF 3
