REMARK  Name = 11912908
REMARK  5 active torsions:
REMARK  status: ('A' for Active; 'I' for Inactive)
REMARK    1  A    between atoms: N_4  and  C_10
REMARK    2  A    between atoms: N_4  and  C_15
REMARK    3  A    between atoms: N_5  and  C_11
REMARK    4  A    between atoms: C_14  and  C_15
REMARK    5  A    between atoms: C_22  and  C_25
REMARK                            x       y       z     vdW  Elec       q    Type
REMARK                         _______ _______ _______ _____ _____    ______ ____
ROOT
ATOM      2  O   UNL     1      -0.201   1.651   1.941  0.00  0.00    -0.370 OA
ATOM      3  O   UNL     1      -1.190   3.468  -0.368  0.00  0.00    -0.370 OA
ATOM      8  C   UNL     1      -1.484   2.108  -0.005  0.00  0.00    +0.168 C 
ATOM      9  C   UNL     1      -0.198   1.493   0.511  0.00  0.00    +0.171 C 
ATOM     10  C   UNL     1      -2.417   2.072   1.186  0.00  0.00    +0.111 C 
ATOM     11  C   UNL     1       0.888   2.344  -0.104  0.00  0.00    +0.130 C 
ATOM     12  C   UNL     1      -1.448   2.237   2.346  0.00  0.00    +0.181 C 
ATOM     13  C   UNL     1       0.219   3.702  -0.223  0.00  0.00    +0.185 C 
ENDROOT
BRANCH  11   5
ATOM      5  N   UNL     1       1.232   1.837  -1.415  0.00  0.00    -0.306 N 
ATOM      6  N   UNL     1       2.748   0.277  -0.536  0.00  0.00    -0.214 NA
ATOM      7  N   UNL     1       2.375   0.438  -2.911  0.00  0.00    -0.223 NA
ATOM     21  C   UNL     1       2.146   0.821  -1.627  0.00  0.00    +0.216 A 
ATOM     22  C   UNL     1       3.633  -0.712  -0.780  0.00  0.00    +0.083 A 
ATOM     23  C   UNL     1       3.272  -0.556  -3.082  0.00  0.00    +0.116 A 
ATOM     24  C   UNL     1       3.937  -1.174  -2.044  0.00  0.00    +0.049 A 
ATOM     30  H   UNL     1       0.750   2.199  -2.230  0.00  0.00    +0.149 HD
BRANCH  22  25
ATOM      1  S   UNL     1       3.385  -1.276   1.871  0.00  0.00    -0.095 S 
ATOM     25  C   UNL     1       4.255  -1.266   0.393  0.00  0.00    +0.038 A 
ATOM     26  C   UNL     1       5.510  -1.825   0.535  0.00  0.00    +0.017 A 
ATOM     27  C   UNL     1       5.757  -2.263   1.868  0.00  0.00    +0.008 A 
ATOM     28  C   UNL     1       4.683  -2.026   2.698  0.00  0.00    +0.046 A 
ENDBRANCH  22  25
ENDBRANCH  11   5
BRANCH  10   4
ATOM      4  N   UNL     1      -3.081   0.774   1.278  0.00  0.00    -0.309 NA
ATOM     29  H   UNL     1      -3.587   0.709   2.162  0.00  0.00    +0.122 HD
BRANCH   4  15
ATOM     15  C   UNL     1      -4.008   0.587   0.172  0.00  0.00    +0.084 C 
BRANCH  15  14
ATOM     14  C   UNL     1      -4.704  -0.769   0.258  0.00  0.00    +0.003 C 
ATOM     16  C   UNL     1      -3.674  -1.905   0.322  0.00  0.00    +0.005 C 
ATOM     17  C   UNL     1      -5.659  -0.964  -0.928  0.00  0.00    +0.005 C 
ATOM     18  C   UNL     1      -4.347  -3.275   0.355  0.00  0.00    +0.000 C 
ATOM     19  C   UNL     1      -6.329  -2.336  -0.893  0.00  0.00    +0.000 C 
ATOM     20  C   UNL     1      -5.301  -3.462  -0.820  0.00  0.00    +0.000 C 
ENDBRANCH  15  14
ENDBRANCH   4  15
ENDBRANCH  10   4
TORSDOF 5
