REMARK  Name = 45783369
REMARK  11 active torsions:
REMARK  status: ('A' for Active; 'I' for Inactive)
REMARK    1  A    between atoms: S_1  and  C_23
REMARK    2  A    between atoms: S_1  and  C_26
REMARK    3  A    between atoms: O_5  and  C_28
REMARK    4  A    between atoms: O_5  and  C_30
REMARK    5  A    between atoms: O_6  and  C_31
REMARK    6  A    between atoms: O_6  and  C_32
REMARK    7  A    between atoms: N_7  and  C_15
REMARK    8  A    between atoms: C_11  and  C_16
REMARK    9  A    between atoms: C_15  and  C_17
REMARK   10  A    between atoms: C_20  and  C_24
REMARK   11  A    between atoms: C_30  and  C_31
REMARK                            x       y       z     vdW  Elec       q    Type
REMARK                         _______ _______ _______ _____ _____    ______ ____
ROOT
ATOM      7  N   UNL     1      -4.476  -1.102  -0.437  0.00  0.00    -0.287 NA
ATOM     11  C   UNL     1      -3.636  -2.010   0.369  0.00  0.00    +0.146 C 
ATOM     12  C   UNL     1      -4.068  -3.425  -0.058  0.00  0.00    +0.030 C 
ATOM     13  C   UNL     1      -5.193  -3.212  -1.060  0.00  0.00    +0.017 C 
ATOM     14  C   UNL     1      -5.713  -1.829  -0.724  0.00  0.00    +0.085 C 
ENDROOT
BRANCH  11  16
ATOM      2  O   UNL     1      -1.692  -1.862  -1.104  0.00  0.00    -0.336 OA
ATOM      8  N   UNL     1      -1.236  -1.469   1.053  0.00  0.00    -0.190 NA
ATOM      9  N   UNL     1      -0.318  -1.600  -1.038  0.00  0.00    -0.056 NA
ATOM     16  C   UNL     1      -2.155  -1.765   0.170  0.00  0.00    +0.245 A 
ATOM     20  C   UNL     1      -0.125  -1.378   0.266  0.00  0.00    +0.202 A 
BRANCH  20  24
ATOM     10  N   UNL     1       3.671  -0.444   1.879  0.00  0.00    -0.221 NA
ATOM     24  C   UNL     1       1.162  -1.061   0.813  0.00  0.00    +0.029 A 
ATOM     25  C   UNL     1       2.273  -0.976  -0.020  0.00  0.00    +0.079 A 
ATOM     27  C   UNL     1       1.305  -0.838   2.178  0.00  0.00    +0.031 A 
ATOM     28  C   UNL     1       3.494  -0.667   0.558  0.00  0.00    +0.215 A 
ATOM     29  C   UNL     1       2.569  -0.535   2.657  0.00  0.00    +0.115 A 
BRANCH  28   5
ATOM      5  O   UNL     1       4.604  -0.578  -0.241  0.00  0.00    -0.474 OA
BRANCH   5  30
ATOM     30  C   UNL     1       5.831  -0.258   0.402  0.00  0.00    +0.258 C 
BRANCH  30  31
ATOM     31  C   UNL     1       6.939  -0.227  -0.633  0.00  0.00    +0.200 C 
BRANCH  31   6
ATOM      6  O   UNL     1       7.048  -1.512  -1.235  0.00  0.00    -0.380 OA
ATOM     32  C   UNL     1       8.059  -1.535  -2.232  0.00  0.00    +0.194 C 
ENDBRANCH  31   6
ENDBRANCH  30  31
ENDBRANCH   5  30
ENDBRANCH  28   5
ENDBRANCH  20  24
ENDBRANCH  11  16
BRANCH   7  15
ATOM     15  C   UNL     1      -4.729   0.177   0.214  0.00  0.00    +0.120 C 
BRANCH  15  17
ATOM     17  C   UNL     1      -3.561   1.117   0.076  0.00  0.00    -0.033 A 
ATOM     18  C   UNL     1      -2.934   1.622   1.216  0.00  0.00    +0.007 A 
ATOM     19  C   UNL     1      -3.106   1.484  -1.190  0.00  0.00    +0.007 A 
ATOM     21  C   UNL     1      -1.853   2.493   1.089  0.00  0.00    +0.027 A 
ATOM     22  C   UNL     1      -2.024   2.355  -1.317  0.00  0.00    +0.027 A 
ATOM     23  C   UNL     1      -1.397   2.859  -0.178  0.00  0.00    +0.088 A 
BRANCH  23   1
ATOM      1  S   UNL     1      -0.041   3.947  -0.337  0.00  0.00    -0.006 S 
ATOM      3  O   UNL     1      -0.114   4.606  -1.633  0.00  0.00    -0.170 OA
ATOM      4  O   UNL     1       0.036   4.747   0.877  0.00  0.00    -0.170 OA
ATOM     26  C   UNL     1       1.380   2.878  -0.379  0.00  0.00    +0.200 C 
ENDBRANCH  23   1
ENDBRANCH  15  17
ENDBRANCH   7  15
TORSDOF 9
