REMARK  Name = 26744411
REMARK  6 active torsions:
REMARK  status: ('A' for Active; 'I' for Inactive)
REMARK    1  A    between atoms: O_2  and  C_9
REMARK    2  A    between atoms: N_4  and  C_11
REMARK    3  A    between atoms: C_7  and  C_12
REMARK    4  A    between atoms: C_11  and  C_13
REMARK    5  A    between atoms: C_11  and  C_14
REMARK    6  A    between atoms: C_15  and  C_16
REMARK                            x       y       z     vdW  Elec       q    Type
REMARK                         _______ _______ _______ _____ _____    ______ ____
ROOT
ATOM      3  O   UNL     1      -0.494  -1.458   1.690  0.00  0.00    -0.336 OA
ATOM      5  N   UNL     1       0.017  -0.137  -0.045  0.00  0.00    -0.190 NA
ATOM      6  N   UNL     1       0.905  -1.408   1.637  0.00  0.00    -0.056 NA
ATOM     12  C   UNL     1      -0.938  -0.683   0.665  0.00  0.00    +0.245 A 
ATOM     15  C   UNL     1       1.128  -0.610   0.589  0.00  0.00    +0.202 A 
ENDROOT
BRANCH  15  16
ATOM      1  F   UNL     1       6.254   0.719  -1.120  0.00  0.00    -0.205 F 
ATOM     16  C   UNL     1       2.450  -0.267   0.148  0.00  0.00    +0.023 A 
ATOM     17  C   UNL     1       3.536  -1.060   0.520  0.00  0.00    +0.014 A 
ATOM     18  C   UNL     1       2.648   0.858  -0.651  0.00  0.00    +0.014 A 
ATOM     19  C   UNL     1       4.821  -0.726   0.091  0.00  0.00    +0.039 A 
ATOM     20  C   UNL     1       3.933   1.192  -1.080  0.00  0.00    +0.039 A 
ATOM     21  C   UNL     1       5.020   0.399  -0.709  0.00  0.00    +0.123 A 
ENDBRANCH  15  16
BRANCH  12   7
ATOM      4  N   UNL     1      -2.850   0.696  -0.132  0.00  0.00    -0.286 NA
ATOM      7  C   UNL     1      -2.439  -0.572   0.505  0.00  0.00    +0.149 C 
ATOM      8  C   UNL     1      -3.025  -1.673  -0.398  0.00  0.00    +0.061 C 
ATOM      9  C   UNL     1      -3.785  -0.927  -1.487  0.00  0.00    +0.130 C 
ATOM     10  C   UNL     1      -4.091   0.415  -0.851  0.00  0.00    +0.116 C 
BRANCH   4  11
ATOM     11  C   UNL     1      -3.002   1.792   0.816  0.00  0.00    +0.051 C 
ATOM     13  C   UNL     1      -3.436   3.063   0.091  0.00  0.00    +0.024 C 
ATOM     14  C   UNL     1      -1.687   2.007   1.559  0.00  0.00    +0.024 C 
ENDBRANCH   4  11
BRANCH   9   2
ATOM      2  O   UNL     1      -4.966  -1.622  -1.840  0.00  0.00    -0.390 OA
ATOM     22  H   UNL     1      -4.702  -2.498  -2.168  0.00  0.00    +0.210 HD
ENDBRANCH   9   2
ENDBRANCH  12   7
TORSDOF 4
