REMARK  Name = 11911729
REMARK  9 active torsions:
REMARK  status: ('A' for Active; 'I' for Inactive)
REMARK    1  A    between atoms: S_1  and  N_6
REMARK    2  A    between atoms: S_1  and  C_19
REMARK    3  A    between atoms: N_6  and  C_14
REMARK    4  A    between atoms: N_7  and  C_15
REMARK    5  A    between atoms: N_11  and  C_34
REMARK    6  A    between atoms: N_11  and  C_35
REMARK    7  A    between atoms: N_11  and  C_36
REMARK    8  A    between atoms: C_20  and  C_29
REMARK    9  A    between atoms: C_22  and  C_28
REMARK                            x       y       z     vdW  Elec       q    Type
REMARK                         _______ _______ _______ _____ _____    ______ ____
ROOT
ATOM      2  O   UNL     1       0.297   1.331   1.545  0.00  0.00    -0.370 OA
ATOM      3  O   UNL     1       2.301  -0.963   2.223  0.00  0.00    -0.370 OA
ATOM     12  C   UNL     1       2.029  -0.215   1.026  0.00  0.00    +0.170 C 
ATOM     13  C   UNL     1       0.534   0.031   0.978  0.00  0.00    +0.171 C 
ATOM     14  C   UNL     1       2.627   1.170   1.125  0.00  0.00    +0.133 C 
ATOM     15  C   UNL     1      -0.047  -1.042   1.867  0.00  0.00    +0.130 C 
ATOM     16  C   UNL     1       1.555   1.933   1.882  0.00  0.00    +0.183 C 
ATOM     17  C   UNL     1       1.062  -1.272   2.878  0.00  0.00    +0.185 C 
ENDROOT
BRANCH  15   7
ATOM      7  N   UNL     1      -0.283  -2.247   1.101  0.00  0.00    -0.306 N 
ATOM      8  N   UNL     1      -2.388  -1.505   0.376  0.00  0.00    -0.214 NA
ATOM      9  N   UNL     1      -1.527  -3.648  -0.310  0.00  0.00    -0.223 NA
ATOM     18  C   UNL     1      -1.433  -2.473   0.367  0.00  0.00    +0.216 A 
ATOM     22  C   UNL     1      -3.496  -1.759  -0.350  0.00  0.00    +0.076 A 
ATOM     23  C   UNL     1      -2.662  -3.837  -1.015  0.00  0.00    +0.116 A 
ATOM     26  C   UNL     1      -3.690  -2.918  -1.073  0.00  0.00    +0.048 A 
ATOM     38  H   UNL     1       0.444  -2.951   1.045  0.00  0.00    +0.149 HD
BRANCH  22  28
ATOM     28  C   UNL     1      -4.495  -0.718  -0.327  0.00  0.00    +0.001 A 
ATOM     30  C   UNL     1      -5.847  -1.040  -0.464  0.00  0.00    +0.012 A 
ATOM     31  C   UNL     1      -4.114   0.617  -0.170  0.00  0.00    +0.012 A 
ATOM     32  C   UNL     1      -6.812  -0.033  -0.444  0.00  0.00    +0.024 A 
ATOM     33  C   UNL     1      -5.079   1.623  -0.149  0.00  0.00    +0.024 A 
ATOM     34  C   UNL     1      -6.428   1.298  -0.287  0.00  0.00    +0.029 A 
BRANCH  34  11
ATOM     11  N   UNL     1      -7.405   2.316  -0.266  0.00  0.00    -0.336 N 
ATOM     35  C   UNL     1      -7.191   3.522   0.509  0.00  0.00    +0.129 C 
ATOM     36  C   UNL     1      -8.641   2.163  -1.006  0.00  0.00    +0.129 C 
ENDBRANCH  34  11
ENDBRANCH  22  28
ENDBRANCH  15   7
BRANCH  14   6
ATOM      6  N   UNL     1       2.848   1.737  -0.183  0.00  0.00    -0.182 NA
ATOM     37  H   UNL     1       2.131   1.594  -0.904  0.00  0.00    +0.148 HD
BRANCH   6   1
ATOM      1  S   UNL     1       4.395   2.289  -0.615  0.00  0.00    +0.060 S 
ATOM      4  O   UNL     1       4.863   3.237   0.378  0.00  0.00    -0.153 OA
ATOM      5  O   UNL     1       4.389   2.647  -2.020  0.00  0.00    -0.153 OA
BRANCH   1  19
ATOM     19  C   UNL     1       5.363   0.818  -0.462  0.00  0.00    +0.123 A 
ATOM     20  C   UNL     1       5.218  -0.236  -1.351  0.00  0.00    +0.078 A 
ATOM     21  C   UNL     1       6.275   0.753   0.583  0.00  0.00    +0.030 A 
ATOM     24  C   UNL     1       6.000  -1.381  -1.193  0.00  0.00    +0.021 A 
ATOM     25  C   UNL     1       7.057  -0.391   0.741  0.00  0.00    +0.002 A 
ATOM     27  C   UNL     1       6.920  -1.458  -0.147  0.00  0.00    +0.001 A 
BRANCH  20  29
ATOM     10  N   UNL     1       3.524  -0.157  -3.311  0.00  0.00    -0.191 NA
ATOM     29  C   UNL     1       4.282  -0.192  -2.434  0.00  0.00    +0.101 C 
ENDBRANCH  20  29
ENDBRANCH   1  19
ENDBRANCH   6   1
ENDBRANCH  14   6
TORSDOF 7
