REMARK  Name = 25389034
REMARK  6 active torsions:
REMARK  status: ('A' for Active; 'I' for Inactive)
REMARK    1  A    between atoms: N_4  and  C_18
REMARK    2  A    between atoms: N_5  and  C_15
REMARK    3  A    between atoms: C_8  and  C_14
REMARK    4  A    between atoms: C_9  and  C_15
REMARK    5  A    between atoms: C_17  and  C_20
REMARK    6  A    between atoms: C_19  and  C_21
REMARK                            x       y       z     vdW  Elec       q    Type
REMARK                         _______ _______ _______ _____ _____    ______ ____
ROOT
ATOM      3  N   UNL     1      -3.653  -0.552   1.332  0.00  0.00    -0.297 NA
ATOM      7  C   UNL     1      -2.724  -1.365  -0.961  0.00  0.00    +0.002 C 
ATOM      8  C   UNL     1      -1.794  -1.825   0.196  0.00  0.00    +0.055 C 
ATOM      9  C   UNL     1      -3.605   0.582   0.372  0.00  0.00    +0.074 C 
ATOM     10  C   UNL     1      -2.868   0.171  -0.920  0.00  0.00    +0.024 C 
ATOM     11  C   UNL     1      -4.120  -1.959  -0.673  0.00  0.00    +0.019 C 
ATOM     12  C   UNL     1      -2.299  -1.137   1.497  0.00  0.00    +0.094 C 
ATOM     13  C   UNL     1      -4.540  -1.593   0.761  0.00  0.00    +0.085 C 
ENDROOT
BRANCH   8  14
ATOM      4  N   UNL     1       0.489  -2.651  -0.543  0.00  0.00    -0.270 N 
ATOM      6  N   UNL     1       1.791  -2.327  -0.617  0.00  0.00    -0.171 NA
ATOM     14  C   UNL     1      -0.291  -1.678   0.011  0.00  0.00    +0.044 A 
ATOM     16  C   UNL     1       0.561  -0.647   0.323  0.00  0.00    +0.053 A 
ATOM     17  C   UNL     1       1.829  -1.102  -0.086  0.00  0.00    +0.093 A 
ATOM     18  C   UNL     1       0.053  -3.938  -1.032  0.00  0.00    +0.172 C 
BRANCH  17  20
ATOM      1  F   UNL     1       6.651   1.653   0.332  0.00  0.00    -0.205 F 
ATOM     20  C   UNL     1       3.076  -0.389   0.022  0.00  0.00    +0.002 A 
ATOM     22  C   UNL     1       3.090   1.004  -0.035  0.00  0.00    +0.013 A 
ATOM     23  C   UNL     1       4.269  -1.093   0.183  0.00  0.00    +0.013 A 
ATOM     24  C   UNL     1       4.297   1.694   0.070  0.00  0.00    +0.039 A 
ATOM     25  C   UNL     1       5.477  -0.403   0.288  0.00  0.00    +0.039 A 
ATOM     26  C   UNL     1       5.491   0.991   0.231  0.00  0.00    +0.123 A 
ENDBRANCH  17  20
ENDBRANCH   8  14
BRANCH   9  15
ATOM     15  C   UNL     1      -3.006   1.846   0.993  0.00  0.00    +0.123 C 
BRANCH  15   5
ATOM      2  O   UNL     1      -0.801   3.397  -0.086  0.00  0.00    -0.276 OA
ATOM      5  N   UNL     1      -3.081   2.947   0.083  0.00  0.00    -0.314 N 
ATOM     19  C   UNL     1      -1.967   3.638  -0.387  0.00  0.00    +0.210 C 
ATOM     21  C   UNL     1      -2.327   4.735  -1.352  0.00  0.00    +0.109 C 
ATOM     27  H   UNL     1      -4.004   3.255  -0.210  0.00  0.00    +0.149 HD
ENDBRANCH  15   5
ENDBRANCH   9  15
TORSDOF 4
