REMARK  Name = 11886429
REMARK  4 active torsions:
REMARK  status: ('A' for Active; 'I' for Inactive)
REMARK    1  A    between atoms: N_6  and  C_18
REMARK    2  A    between atoms: N_7  and  C_26
REMARK    3  A    between atoms: N_8  and  C_29
REMARK    4  A    between atoms: C_32  and  C_35
REMARK                            x       y       z     vdW  Elec       q    Type
REMARK                         _______ _______ _______ _____ _____    ______ ____
ROOT
ATOM      1  O   UNL     1      -3.477   0.611   2.256  0.00  0.00    -0.253 OA
ATOM      2  O   UNL     1       0.005  -1.018  -2.411  0.00  0.00    -0.266 OA
ATOM      4  N   UNL     1      -4.058  -0.905   0.596  0.00  0.00    -0.285 N 
ATOM      5  N   UNL     1      -1.454  -2.063  -0.914  0.00  0.00    -0.310 N 
ATOM      6  N   UNL     1      -4.170   1.428   0.228  0.00  0.00    -0.296 N 
ATOM     10  C   UNL     1      -3.939  -2.410  -1.414  0.00  0.00    +0.027 C 
ATOM     11  C   UNL     1      -3.011  -3.169   0.728  0.00  0.00    +0.054 C 
ATOM     12  C   UNL     1      -3.821  -3.611  -0.487  0.00  0.00    +0.018 C 
ATOM     13  C   UNL     1      -4.646  -1.234  -0.712  0.00  0.00    +0.114 C 
ATOM     14  C   UNL     1      -3.771  -2.054   1.465  0.00  0.00    +0.119 C 
ATOM     15  C   UNL     1      -2.538  -2.024  -1.904  0.00  0.00    +0.130 C 
ATOM     16  C   UNL     1      -1.633  -2.679   0.328  0.00  0.00    +0.027 A 
ATOM     17  C   UNL     1      -3.872   0.393   1.106  0.00  0.00    +0.302 C 
ATOM     19  C   UNL     1      -0.596  -2.810   1.173  0.00  0.00    +0.024 A 
ATOM     20  C   UNL     1      -0.205  -1.551  -1.320  0.00  0.00    +0.273 A 
ATOM     26  C   UNL     1       0.918  -1.694  -0.341  0.00  0.00    +0.100 A 
ATOM     27  C   UNL     1       0.703  -2.304   0.829  0.00  0.00    +0.030 A 
ATOM     36  H   UNL     1      -4.630   1.245  -0.652  0.00  0.00    +0.151 HD
ENDROOT
BRANCH  26   7
ATOM      3  O   UNL     1       2.892  -0.692   1.445  0.00  0.00    -0.252 OA
ATOM      7  N   UNL     1       2.139  -1.196  -0.690  0.00  0.00    -0.265 N 
ATOM      8  N   UNL     1       4.226  -0.275  -0.441  0.00  0.00    -0.269 N 
ATOM     28  C   UNL     1       3.079  -0.713   0.230  0.00  0.00    +0.308 C 
ATOM     37  H   UNL     1       2.270  -0.940  -1.664  0.00  0.00    +0.157 HD
ATOM     38  H   UNL     1       4.223  -0.366  -1.454  0.00  0.00    +0.156 HD
BRANCH   8  29
ATOM     29  C   UNL     1       5.401   0.279   0.118  0.00  0.00    +0.036 A 
ATOM     30  C   UNL     1       6.440   0.654  -0.719  0.00  0.00    +0.042 A 
ATOM     31  C   UNL     1       5.491   0.434   1.492  0.00  0.00    +0.023 A 
ATOM     32  C   UNL     1       7.599   1.199  -0.166  0.00  0.00    +0.054 A 
ATOM     33  C   UNL     1       6.650   0.978   2.044  0.00  0.00    +0.003 A 
ATOM     34  C   UNL     1       7.704   1.361   1.215  0.00  0.00    +0.019 A 
BRANCH  32  35
ATOM      9  N   UNL     1       9.558   1.910  -1.706  0.00  0.00    -0.191 NA
ATOM     35  C   UNL     1       8.679   1.591  -1.015  0.00  0.00    +0.099 C 
ENDBRANCH  32  35
ENDBRANCH   8  29
ENDBRANCH  26   7
BRANCH   6  18
ATOM     18  C   UNL     1      -4.036   2.819   0.603  0.00  0.00    +0.074 C 
ATOM     21  C   UNL     1      -5.321   3.338   1.259  0.00  0.00    +0.022 C 
ATOM     22  C   UNL     1      -3.642   3.679  -0.602  0.00  0.00    +0.022 C 
ATOM     23  C   UNL     1      -6.463   3.506   0.256  0.00  0.00    +0.002 C 
ATOM     24  C   UNL     1      -4.786   3.847  -1.601  0.00  0.00    +0.002 C 
ATOM     25  C   UNL     1      -6.049   4.375  -0.928  0.00  0.00    +0.000 C 
ENDBRANCH   6  18
TORSDOF 4
