REMARK  Name = 71693882
REMARK  11 active torsions:
REMARK  status: ('A' for Active; 'I' for Inactive)
REMARK    1  A    between atoms: O_1  and  C_10
REMARK    2  A    between atoms: O_2  and  C_12
REMARK    3  A    between atoms: O_4  and  C_20
REMARK    4  A    between atoms: O_4  and  C_26
REMARK    5  A    between atoms: O_5  and  C_23
REMARK    6  A    between atoms: O_5  and  C_27
REMARK    7  A    between atoms: O_6  and  C_25
REMARK    8  A    between atoms: O_6  and  C_28
REMARK    9  A    between atoms: N_7  and  C_9
REMARK   10  A    between atoms: C_8  and  C_13
REMARK   11  A    between atoms: C_16  and  C_19
REMARK                            x       y       z     vdW  Elec       q    Type
REMARK                         _______ _______ _______ _____ _____    ______ ____
ROOT
ATOM      8  C   UNL     1       1.963   1.312   0.871  0.00  0.00    +0.044 C 
ATOM      9  C   UNL     1       1.109   1.706  -0.356  0.00  0.00    +0.112 C 
ATOM     10  C   UNL     1       1.207   3.231  -0.382  0.00  0.00    +0.164 C 
ATOM     11  C   UNL     1       2.941   2.493   1.102  0.00  0.00    +0.044 C 
ATOM     12  C   UNL     1       2.665   3.490  -0.021  0.00  0.00    +0.145 C 
ENDROOT
BRANCH   8  13
ATOM     13  C   UNL     1       2.637  -0.035   0.715  0.00  0.00    -0.042 A 
ATOM     14  C   UNL     1       2.367  -1.058   1.623  0.00  0.00    +0.007 A 
ATOM     15  C   UNL     1       3.527  -0.252  -0.336  0.00  0.00    +0.007 A 
ATOM     17  C   UNL     1       2.989  -2.299   1.480  0.00  0.00    +0.046 A 
ATOM     18  C   UNL     1       4.149  -1.492  -0.479  0.00  0.00    +0.046 A 
ATOM     20  C   UNL     1       3.879  -2.516   0.429  0.00  0.00    +0.120 A 
BRANCH  20   4
ATOM      4  O   UNL     1       4.486  -3.727   0.289  0.00  0.00    -0.495 OA
ATOM     26  C   UNL     1       5.385  -3.880  -0.808  0.00  0.00    +0.277 C 
ENDBRANCH  20   4
ENDBRANCH   8  13
BRANCH   9   7
ATOM      3  O   UNL     1       0.017  -0.753  -1.358  0.00  0.00    -0.270 OA
ATOM      7  N   UNL     1      -0.254   1.257  -0.232  0.00  0.00    -0.305 N 
ATOM     16  C   UNL     1      -0.692   0.046  -0.752  0.00  0.00    +0.245 C 
ATOM     29  H   UNL     1      -0.903   1.887   0.226  0.00  0.00    +0.149 HD
BRANCH  16  19
ATOM     19  C   UNL     1      -2.133  -0.260  -0.564  0.00  0.00    +0.040 A 
ATOM     21  C   UNL     1      -2.828   0.286   0.516  0.00  0.00    +0.062 A 
ATOM     22  C   UNL     1      -2.792  -1.095  -1.467  0.00  0.00    +0.017 A 
ATOM     23  C   UNL     1      -4.181  -0.002   0.692  0.00  0.00    +0.162 A 
ATOM     24  C   UNL     1      -4.146  -1.383  -1.290  0.00  0.00    +0.050 A 
ATOM     25  C   UNL     1      -4.840  -0.836  -0.210  0.00  0.00    +0.162 A 
BRANCH  23   5
ATOM      5  O   UNL     1      -4.848   0.538   1.750  0.00  0.00    -0.491 OA
ATOM     27  C   UNL     1      -4.101   1.380   2.626  0.00  0.00    +0.277 C 
ENDBRANCH  23   5
BRANCH  25   6
ATOM      6  O   UNL     1      -6.162  -1.125  -0.049  0.00  0.00    -0.491 OA
ATOM     28  C   UNL     1      -6.760  -1.986  -1.017  0.00  0.00    +0.277 C 
ENDBRANCH  25   6
ENDBRANCH  16  19
ENDBRANCH   9   7
BRANCH  10   1
ATOM      1  O   UNL     1       0.892   3.767  -1.653  0.00  0.00    -0.387 OA
ATOM     30  H   UNL     1       1.067   4.723  -1.618  0.00  0.00    +0.210 HD
ENDBRANCH  10   1
BRANCH  12   2
ATOM      2  O   UNL     1       3.523   3.192  -1.118  0.00  0.00    -0.389 OA
ATOM     31  H   UNL     1       4.438   3.336  -0.822  0.00  0.00    +0.210 HD
ENDBRANCH  12   2
TORSDOF 8
