REMARK  Name = 26743844
REMARK  8 active torsions:
REMARK  status: ('A' for Active; 'I' for Inactive)
REMARK    1  A    between atoms: O_1  and  C_10
REMARK    2  A    between atoms: O_4  and  C_20
REMARK    3  A    between atoms: N_5  and  C_12
REMARK    4  A    between atoms: C_8  and  C_13
REMARK    5  A    between atoms: C_12  and  C_14
REMARK    6  A    between atoms: C_16  and  C_19
REMARK    7  A    between atoms: C_17  and  C_20
REMARK    8  A    between atoms: C_23  and  C_26
REMARK                            x       y       z     vdW  Elec       q    Type
REMARK                         _______ _______ _______ _____ _____    ______ ____
ROOT
ATOM      5  N   UNL     1      -2.929   0.190   0.423  0.00  0.00    -0.282 NA
ATOM      8  C   UNL     1      -2.474   1.018  -0.712  0.00  0.00    +0.149 C 
ATOM      9  C   UNL     1      -2.836   2.461  -0.316  0.00  0.00    +0.061 C 
ATOM     10  C   UNL     1      -3.531   2.338   1.034  0.00  0.00    +0.130 C 
ATOM     11  C   UNL     1      -4.041   0.909   1.041  0.00  0.00    +0.117 C 
ENDROOT
BRANCH   8  13
ATOM      2  O   UNL     1      -0.674   0.439  -2.261  0.00  0.00    -0.336 OA
ATOM      6  N   UNL     1       0.032   1.026  -0.219  0.00  0.00    -0.190 NA
ATOM      7  N   UNL     1       0.723   0.349  -2.292  0.00  0.00    -0.056 NA
ATOM     13  C   UNL     1      -0.998   0.844  -1.005  0.00  0.00    +0.245 A 
ATOM     16  C   UNL     1       1.065   0.710  -1.052  0.00  0.00    +0.202 A 
BRANCH  16  19
ATOM     19  C   UNL     1       2.430   0.768  -0.614  0.00  0.00    +0.023 A 
ATOM     21  C   UNL     1       2.729   1.152   0.693  0.00  0.00    +0.015 A 
ATOM     22  C   UNL     1       3.459   0.437  -1.496  0.00  0.00    +0.012 A 
ATOM     23  C   UNL     1       4.056   1.206   1.119  0.00  0.00    -0.050 A 
ATOM     24  C   UNL     1       4.787   0.491  -1.070  0.00  0.00    +0.001 A 
ATOM     25  C   UNL     1       5.085   0.876   0.237  0.00  0.00    +0.003 A 
ATOM     26  C   UNL     1       4.375   1.617   2.516  0.00  0.00    +0.044 C 
ENDBRANCH  16  19
ENDBRANCH   8  13
BRANCH  10   1
ATOM      1  O   UNL     1      -4.586   3.273   1.143  0.00  0.00    -0.390 OA
ATOM     27  H   UNL     1      -4.199   4.161   1.056  0.00  0.00    +0.210 HD
ENDBRANCH  10   1
BRANCH   5  12
ATOM     12  C   UNL     1      -3.301  -1.164   0.033  0.00  0.00    +0.159 C 
BRANCH  12  14
ATOM      3  O   UNL     1      -1.289  -2.190   0.941  0.00  0.00    -0.461 OA
ATOM     14  C   UNL     1      -2.095  -2.048  -0.143  0.00  0.00    +0.119 A 
ATOM     15  C   UNL     1      -1.609  -2.775  -1.205  0.00  0.00    +0.046 A 
ATOM     17  C   UNL     1      -0.277  -3.016   0.568  0.00  0.00    +0.131 A 
ATOM     18  C   UNL     1      -0.427  -3.403  -0.743  0.00  0.00    +0.047 A 
BRANCH  17  20
ATOM     20  C   UNL     1       0.730  -3.316   1.596  0.00  0.00    +0.230 C 
BRANCH  20   4
ATOM      4  O   UNL     1       1.595  -2.193   1.783  0.00  0.00    -0.387 OA
ATOM     28  H   UNL     1       2.239  -2.442   2.468  0.00  0.00    +0.210 HD
ENDBRANCH  20   4
ENDBRANCH  17  20
ENDBRANCH  12  14
ENDBRANCH   5  12
TORSDOF 7
