REMARK  Name = 75536090
REMARK  6 active torsions:
REMARK  status: ('A' for Active; 'I' for Inactive)
REMARK    1  A    between atoms: O_1  and  C_12
REMARK    2  A    between atoms: O_2  and  C_14
REMARK    3  A    between atoms: N_7  and  C_11
REMARK    4  A    between atoms: N_9  and  C_20
REMARK    5  A    between atoms: C_10  and  C_15
REMARK    6  A    between atoms: C_18  and  C_21
REMARK                            x       y       z     vdW  Elec       q    Type
REMARK                         _______ _______ _______ _____ _____    ______ ____
ROOT
ATOM     10  C   UNL     1      -0.615  -2.278   0.977  0.00  0.00    +0.046 C 
ATOM     11  C   UNL     1       0.328  -2.473  -0.232  0.00  0.00    +0.112 C 
ATOM     12  C   UNL     1       0.764  -3.933  -0.112  0.00  0.00    +0.164 C 
ATOM     13  C   UNL     1      -1.126  -3.694   1.347  0.00  0.00    +0.044 C 
ATOM     14  C   UNL     1      -0.516  -4.641   0.315  0.00  0.00    +0.145 C 
ENDROOT
BRANCH  10  15
ATOM      8  N   UNL     1      -2.793   0.809   1.319  0.00  0.00    -0.240 NA
ATOM     15  C   UNL     1      -1.712  -1.267   0.715  0.00  0.00    -0.024 A 
ATOM     16  C   UNL     1      -2.626  -1.452  -0.316  0.00  0.00    +0.009 A 
ATOM     17  C   UNL     1      -1.837  -0.131   1.497  0.00  0.00    +0.116 A 
ATOM     19  C   UNL     1      -3.623  -0.507  -0.531  0.00  0.00    +0.044 A 
ATOM     20  C   UNL     1      -3.663   0.595   0.307  0.00  0.00    +0.121 A 
BRANCH  20   9
ATOM      4  O   UNL     1      -6.713   3.461  -0.101  0.00  0.00    -0.377 OA
ATOM      9  N   UNL     1      -4.673   1.536   0.079  0.00  0.00    -0.311 N 
ATOM     22  C   UNL     1      -4.402   2.940   0.419  0.00  0.00    +0.134 C 
ATOM     23  C   UNL     1      -6.081   1.134   0.164  0.00  0.00    +0.134 C 
ATOM     24  C   UNL     1      -5.361   3.848  -0.343  0.00  0.00    +0.178 C 
ATOM     25  C   UNL     1      -6.950   2.139  -0.583  0.00  0.00    +0.178 C 
ENDBRANCH  20   9
ENDBRANCH  10  15
BRANCH  11   7
ATOM      3  O   UNL     1       0.508   0.101  -1.493  0.00  0.00    -0.270 OA
ATOM      7  N   UNL     1       1.452  -1.571  -0.192  0.00  0.00    -0.305 N 
ATOM     18  C   UNL     1       1.447  -0.341  -0.836  0.00  0.00    +0.245 C 
ATOM     33  H   UNL     1       2.273  -1.885   0.313  0.00  0.00    +0.149 HD
BRANCH  18  21
ATOM      5  O   UNL     1       5.461   0.860   1.613  0.00  0.00    -0.485 OA
ATOM      6  O   UNL     1       6.186   2.702  -0.482  0.00  0.00    -0.485 OA
ATOM     21  C   UNL     1       2.693   0.460  -0.720  0.00  0.00    +0.040 A 
ATOM     26  C   UNL     1       3.527   0.294   0.386  0.00  0.00    +0.062 A 
ATOM     27  C   UNL     1       3.025   1.379  -1.716  0.00  0.00    +0.017 A 
ATOM     28  C   UNL     1       4.693   1.052   0.495  0.00  0.00    +0.163 A 
ATOM     29  C   UNL     1       4.197   2.128  -1.614  0.00  0.00    +0.050 A 
ATOM     30  C   UNL     1       5.039   1.953  -0.515  0.00  0.00    +0.162 A 
ATOM     31  C   UNL     1       6.418   1.908   1.790  0.00  0.00    +0.270 C 
ATOM     32  C   UNL     1       7.121   2.204   0.479  0.00  0.00    +0.270 C 
ENDBRANCH  18  21
ENDBRANCH  11   7
BRANCH  12   1
ATOM      1  O   UNL     1       1.251  -4.450  -1.336  0.00  0.00    -0.387 OA
ATOM     34  H   UNL     1       1.416  -5.399  -1.206  0.00  0.00    +0.210 HD
ENDBRANCH  12   1
BRANCH  14   2
ATOM      2  O   UNL     1      -1.419  -4.766  -0.780  0.00  0.00    -0.389 OA
ATOM     35  H   UNL     1      -2.229  -5.186  -0.444  0.00  0.00    +0.210 HD
ENDBRANCH  14   2
TORSDOF 6
