REMARK  Name = 23843913
REMARK  13 active torsions:
REMARK  status: ('A' for Active; 'I' for Inactive)
REMARK    1  A    between atoms: O_4  and  C_18
REMARK    2  A    between atoms: O_4  and  C_28
REMARK    3  A    between atoms: O_5  and  C_19
REMARK    4  A    between atoms: O_6  and  C_24
REMARK    5  A    between atoms: O_9  and  C_32
REMARK    6  A    between atoms: N_11  and  C_33
REMARK    7  A    between atoms: C_12  and  C_22
REMARK    8  A    between atoms: C_14  and  C_24
REMARK    9  A    between atoms: C_14  and  C_25
REMARK   10  A    between atoms: C_15  and  C_23
REMARK   11  A    between atoms: C_23  and  C_26
REMARK   12  A    between atoms: C_27  and  C_32
REMARK   13  A    between atoms: C_36  and  C_39
REMARK                            x       y       z     vdW  Elec       q    Type
REMARK                         _______ _______ _______ _____ _____    ______ ____
ROOT
ATOM     12  C   UNL     1      -1.689   1.207  -0.260  0.00  0.00    -0.023 C 
ATOM     13  C   UNL     1      -1.569   2.771  -0.164  0.00  0.00    +0.007 C 
ATOM     14  C   UNL     1      -0.121   3.334   0.137  0.00  0.00    +0.031 C 
ATOM     15  C   UNL     1      -3.225   0.834  -0.379  0.00  0.00    +0.032 C 
ATOM     16  C   UNL     1      -1.118   0.567   1.049  0.00  0.00    +0.011 C 
ATOM     17  C   UNL     1      -2.278   3.476  -1.341  0.00  0.00    +0.007 C 
ATOM     18  C   UNL     1       0.681   2.375   1.076  0.00  0.00    +0.186 C 
ATOM     19  C   UNL     1      -3.975   1.595  -1.498  0.00  0.00    +0.119 C 
ATOM     20  C   UNL     1      -0.240   1.487   1.903  0.00  0.00    +0.046 C 
ATOM     21  C   UNL     1      -3.756   3.101  -1.408  0.00  0.00    +0.032 C 
ATOM     22  C   UNL     1      -0.904   0.633  -1.464  0.00  0.00    +0.012 C 
ATOM     25  C   UNL     1      -0.296   4.674   0.910  0.00  0.00    +0.017 C 
ENDROOT
BRANCH  19   5
ATOM      5  O   UNL     1      -3.590   1.164  -2.799  0.00  0.00    -0.391 OA
ATOM     40  H   UNL     1      -4.130   1.649  -3.446  0.00  0.00    +0.210 HD
ENDBRANCH  19   5
BRANCH  18   4
ATOM      4  O   UNL     1       1.586   1.526   0.374  0.00  0.00    -0.446 OA
BRANCH   4  28
ATOM      8  O   UNL     1       2.958   1.497   2.204  0.00  0.00    -0.226 OA
ATOM     11  N   UNL     1       3.476   0.331   0.241  0.00  0.00    -0.251 N 
ATOM     28  C   UNL     1       2.713   1.145   1.056  0.00  0.00    +0.405 C 
ATOM     42  H   UNL     1       3.103   0.150  -0.688  0.00  0.00    +0.158 HD
BRANCH  11  33
ATOM     33  C   UNL     1       4.713  -0.285   0.538  0.00  0.00    +0.037 A 
ATOM     34  C   UNL     1       5.344  -1.081  -0.418  0.00  0.00    +0.035 A 
ATOM     35  C   UNL     1       5.303  -0.096   1.788  0.00  0.00    +0.023 A 
ATOM     36  C   UNL     1       6.565  -1.688  -0.124  0.00  0.00    +0.057 A 
ATOM     37  C   UNL     1       6.524  -0.703   2.082  0.00  0.00    +0.002 A 
ATOM     38  C   UNL     1       7.155  -1.499   1.125  0.00  0.00    +0.012 A 
BRANCH  36  39
ATOM      1  F   UNL     1       8.426  -3.067  -0.722  0.00  0.00    -0.166 F 
ATOM      2  F   UNL     1       6.494  -3.612  -1.544  0.00  0.00    -0.166 F 
ATOM      3  F   UNL     1       7.533  -1.853  -2.290  0.00  0.00    -0.166 F 
ATOM     39  C   UNL     1       7.240  -2.539  -1.146  0.00  0.00    +0.417 C 
ENDBRANCH  36  39
ENDBRANCH  11  33
ENDBRANCH   4  28
ENDBRANCH  18   4
BRANCH  15  23
ATOM     23  C   UNL     1      -3.503  -0.675  -0.481  0.00  0.00    +0.102 C 
BRANCH  23  26
ATOM      7  O   UNL     1      -5.633  -0.054   0.380  0.00  0.00    -0.276 OA
ATOM     10  N   UNL     1      -5.287  -2.299  -0.061  0.00  0.00    -0.296 N 
ATOM     26  C   UNL     1      -4.907  -0.968  -0.014  0.00  0.00    +0.216 C 
ATOM     27  C   UNL     1      -6.644  -2.744   0.264  0.00  0.00    +0.101 C 
ATOM     29  C   UNL     1      -4.460  -3.413  -0.519  0.00  0.00    +0.108 C 
ATOM     30  C   UNL     1      -6.719  -4.151  -0.336  0.00  0.00    +0.026 C 
ATOM     31  C   UNL     1      -5.285  -4.657  -0.229  0.00  0.00    +0.021 C 
BRANCH  27  32
ATOM     32  C   UNL     1      -6.884  -2.748   1.772  0.00  0.00    +0.178 C 
BRANCH  32   9
ATOM      9  O   UNL     1      -7.246  -1.439   2.172  0.00  0.00    -0.393 OA
ATOM     43  H   UNL     1      -7.400  -1.464   3.132  0.00  0.00    +0.209 HD
ENDBRANCH  32   9
ENDBRANCH  27  32
ENDBRANCH  23  26
ENDBRANCH  15  23
BRANCH  14  24
ATOM     24  C   UNL     1       0.679   3.678  -1.137  0.00  0.00    +0.166 C 
BRANCH  24   6
ATOM      6  O   UNL     1       1.937   4.176  -0.738  0.00  0.00    -0.394 OA
ATOM     41  H   UNL     1       2.433   4.390  -1.546  0.00  0.00    +0.209 HD
ENDBRANCH  24   6
ENDBRANCH  14  24
TORSDOF 11
