REMARK  Name = 7051670
REMARK  5 active torsions:
REMARK  status: ('A' for Active; 'I' for Inactive)
REMARK    1  A    between atoms: N_3  and  C_14
REMARK    2  A    between atoms: N_5  and  C_25
REMARK    3  A    between atoms: N_6  and  C_18
REMARK    4  A    between atoms: C_14  and  C_17
REMARK    5  A    between atoms: C_27  and  C_29
REMARK                            x       y       z     vdW  Elec       q    Type
REMARK                         _______ _______ _______ _____ _____    ______ ____
ROOT
ATOM      1  O   UNL     1      -1.465   2.533  -1.438  0.00  0.00    -0.266 OA
ATOM      3  N   UNL     1       3.308   1.249  -0.601  0.00  0.00    -0.297 NA
ATOM      4  N   UNL     1       0.401   2.436  -0.034  0.00  0.00    -0.310 N 
ATOM      7  C   UNL     1       2.596   3.652  -0.551  0.00  0.00    +0.024 C 
ATOM      8  C   UNL     1       2.407   2.298   1.480  0.00  0.00    +0.050 C 
ATOM      9  C   UNL     1       2.759   3.690   0.963  0.00  0.00    +0.017 C 
ATOM     10  C   UNL     1       3.535   2.589  -1.158  0.00  0.00    +0.090 C 
ATOM     11  C   UNL     1       3.375   1.259   0.868  0.00  0.00    +0.094 C 
ATOM     12  C   UNL     1       1.120   3.395  -0.884  0.00  0.00    +0.130 C 
ATOM     13  C   UNL     1       0.969   1.946   1.146  0.00  0.00    +0.026 A 
ATOM     15  C   UNL     1       0.254   1.157   1.964  0.00  0.00    +0.024 A 
ATOM     16  C   UNL     1      -0.917   2.114  -0.417  0.00  0.00    +0.273 A 
ATOM     18  C   UNL     1      -1.673   1.213   0.510  0.00  0.00    +0.099 A 
ATOM     19  C   UNL     1      -1.093   0.783   1.636  0.00  0.00    +0.030 A 
ENDROOT
BRANCH  18   6
ATOM      2  O   UNL     1      -3.020  -1.193   1.246  0.00  0.00    -0.270 OA
ATOM      6  N   UNL     1      -2.948   0.868   0.170  0.00  0.00    -0.277 N 
ATOM     27  C   UNL     1      -3.549  -0.321   0.560  0.00  0.00    +0.248 C 
ATOM     35  H   UNL     1      -3.388   1.471  -0.517  0.00  0.00    +0.155 HD
BRANCH  27  29
ATOM     29  C   UNL     1      -4.952  -0.511   0.111  0.00  0.00    +0.037 A 
ATOM     30  C   UNL     1      -5.788  -1.312   0.861  0.00  0.00    +0.013 A 
ATOM     31  C   UNL     1      -5.374   0.119  -1.040  0.00  0.00    +0.013 A 
ATOM     32  C   UNL     1      -7.106  -1.491   0.440  0.00  0.00    +0.001 A 
ATOM     33  C   UNL     1      -6.692  -0.059  -1.462  0.00  0.00    +0.001 A 
ATOM     34  C   UNL     1      -7.558  -0.864  -0.722  0.00  0.00    +0.000 A 
ENDBRANCH  27  29
ENDBRANCH  18   6
BRANCH   3  14
ATOM     14  C   UNL     1       4.249   0.282  -1.161  0.00  0.00    +0.121 C 
BRANCH  14  17
ATOM      5  N   UNL     1       4.183  -3.131   0.136  0.00  0.00    -0.349 N 
ATOM     17  C   UNL     1       3.938  -1.103  -0.668  0.00  0.00    -0.008 A 
ATOM     20  C   UNL     1       2.656  -1.681  -0.601  0.00  0.00    +0.004 A 
ATOM     21  C   UNL     1       4.861  -1.995  -0.216  0.00  0.00    +0.091 A 
ATOM     22  C   UNL     1       2.834  -2.967  -0.088  0.00  0.00    +0.049 A 
ATOM     23  C   UNL     1       1.352  -1.253  -0.921  0.00  0.00    +0.010 A 
ATOM     24  C   UNL     1       1.769  -3.851   0.122  0.00  0.00    +0.026 A 
ATOM     25  C   UNL     1       4.808  -4.322   0.668  0.00  0.00    +0.149 C 
ATOM     26  C   UNL     1       0.277  -2.126  -0.717  0.00  0.00    +0.001 A 
ATOM     28  C   UNL     1       0.485  -3.405  -0.203  0.00  0.00    +0.002 A 
ENDBRANCH  14  17
ENDBRANCH   3  14
TORSDOF 4
