REMARK  Name = 7155496
REMARK  6 active torsions:
REMARK  status: ('A' for Active; 'I' for Inactive)
REMARK    1  A    between atoms: O_4  and  C_27
REMARK    2  A    between atoms: O_4  and  C_33
REMARK    3  A    between atoms: N_7  and  C_18
REMARK    4  A    between atoms: C_17  and  C_20
REMARK    5  A    between atoms: C_23  and  C_27
REMARK    6  A    between atoms: C_26  and  C_28
REMARK                            x       y       z     vdW  Elec       q    Type
REMARK                         _______ _______ _______ _____ _____    ______ ____
ROOT
ATOM      1  O   UNL     1       0.226   3.904   0.813  0.00  0.00    -0.266 OA
ATOM      2  O   UNL     1      -3.343   0.825   2.942  0.00  0.00    -0.270 OA
ATOM      5  N   UNL     1      -4.102   1.422   0.810  0.00  0.00    -0.297 N 
ATOM      6  N   UNL     1      -1.674   3.131  -0.306  0.00  0.00    -0.310 N 
ATOM      8  C   UNL     1      -4.046   3.863   0.327  0.00  0.00    +0.027 C 
ATOM      9  C   UNL     1      -3.709   2.247  -1.499  0.00  0.00    +0.054 C 
ATOM     10  C   UNL     1      -4.373   3.574  -1.134  0.00  0.00    +0.018 C 
ATOM     11  C   UNL     1      -4.584   2.738   1.230  0.00  0.00    +0.113 C 
ATOM     12  C   UNL     1      -2.530   4.042   0.469  0.00  0.00    +0.130 C 
ATOM     13  C   UNL     1      -4.287   1.121  -0.619  0.00  0.00    +0.117 C 
ATOM     14  C   UNL     1      -2.205   2.320  -1.314  0.00  0.00    +0.027 A 
ATOM     15  C   UNL     1      -1.391   1.582  -2.087  0.00  0.00    +0.024 A 
ATOM     16  C   UNL     1      -0.289   3.193  -0.051  0.00  0.00    +0.273 A 
ATOM     17  C   UNL     1      -3.500   0.579   1.747  0.00  0.00    +0.247 C 
ATOM     18  C   UNL     1       0.581   2.335  -0.916  0.00  0.00    +0.099 A 
ATOM     19  C   UNL     1       0.030   1.591  -1.881  0.00  0.00    +0.030 A 
ENDROOT
BRANCH  17  20
ATOM     20  C   UNL     1      -2.987  -0.713   1.279  0.00  0.00    +0.037 A 
ATOM     21  C   UNL     1      -1.671  -0.818   0.827  0.00  0.00    +0.013 A 
ATOM     22  C   UNL     1      -3.814  -1.836   1.286  0.00  0.00    +0.013 A 
ATOM     24  C   UNL     1      -1.183  -2.046   0.381  0.00  0.00    +0.009 A 
ATOM     25  C   UNL     1      -3.326  -3.064   0.840  0.00  0.00    +0.009 A 
ATOM     26  C   UNL     1      -2.011  -3.170   0.388  0.00  0.00    -0.018 A 
BRANCH  26  28
ATOM     28  C   UNL     1      -1.505  -4.444  -0.074  0.00  0.00    -0.018 A 
ATOM     29  C   UNL     1      -1.625  -4.796  -1.419  0.00  0.00    +0.008 A 
ATOM     30  C   UNL     1      -0.896  -5.320   0.824  0.00  0.00    +0.008 A 
ATOM     31  C   UNL     1      -1.136  -6.024  -1.865  0.00  0.00    +0.001 A 
ATOM     32  C   UNL     1      -0.408  -6.548   0.378  0.00  0.00    +0.001 A 
ATOM     34  C   UNL     1      -0.528  -6.900  -0.966  0.00  0.00    +0.000 A 
ENDBRANCH  26  28
ENDBRANCH  17  20
BRANCH  18   7
ATOM      3  O   UNL     1       2.417   0.183  -1.385  0.00  0.00    -0.272 OA
ATOM      7  N   UNL     1       1.925   2.353  -0.689  0.00  0.00    -0.278 N 
ATOM     23  C   UNL     1       2.762   1.274  -0.939  0.00  0.00    +0.255 C 
ATOM     40  H   UNL     1       2.283   3.110  -0.112  0.00  0.00    +0.155 HD
BRANCH  23  27
ATOM     27  C   UNL     1       4.201   1.593  -0.588  0.00  0.00    +0.324 C 
BRANCH  27   4
ATOM      4  O   UNL     1       5.039   0.491  -0.866  0.00  0.00    -0.483 OA
BRANCH   4  33
ATOM     33  C   UNL     1       6.173   0.357  -0.100  0.00  0.00    +0.121 A 
ATOM     35  C   UNL     1       6.801   1.488   0.421  0.00  0.00    +0.045 A 
ATOM     36  C   UNL     1       6.695  -0.911   0.155  0.00  0.00    +0.045 A 
ATOM     37  C   UNL     1       7.952   1.351   1.197  0.00  0.00    +0.004 A 
ATOM     38  C   UNL     1       7.846  -1.048   0.931  0.00  0.00    +0.004 A 
ATOM     39  C   UNL     1       8.475   0.083   1.452  0.00  0.00    +0.000 A 
ENDBRANCH   4  33
ENDBRANCH  27   4
ENDBRANCH  23  27
ENDBRANCH  18   7
TORSDOF 6
