REMARK  Name = 45361713
REMARK  7 active torsions:
REMARK  status: ('A' for Active; 'I' for Inactive)
REMARK    1  A    between atoms: N_9  and  C_24
REMARK    2  A    between atoms: C_12  and  C_18
REMARK    3  A    between atoms: C_13  and  C_22
REMARK    4  A    between atoms: C_23  and  C_26
REMARK    5  A    between atoms: C_24  and  C_25
REMARK    6  A    between atoms: C_24  and  C_28
REMARK    7  A    between atoms: C_25  and  C_27
REMARK                            x       y       z     vdW  Elec       q    Type
REMARK                         _______ _______ _______ _____ _____    ______ ____
ROOT
ATOM      2  O   UNL     1      -2.377  -1.279  -0.911  0.00  0.00    -0.275 OA
ATOM      4  O   UNL     1       4.207  -2.755   1.524  0.00  0.00    -0.270 OA
ATOM      6  N   UNL     1      -0.430  -1.996   0.142  0.00  0.00    -0.287 N 
ATOM      7  N   UNL     1       2.406  -2.253   0.121  0.00  0.00    -0.294 N 
ATOM     13  C   UNL     1       0.387  -0.942  -0.475  0.00  0.00    +0.179 C 
ATOM     16  C   UNL     1       0.251  -2.866   1.116  0.00  0.00    +0.127 C 
ATOM     17  C   UNL     1       1.772  -1.421  -0.909  0.00  0.00    +0.140 C 
ATOM     18  C   UNL     1      -1.809  -2.009  -0.095  0.00  0.00    +0.219 C 
ATOM     19  C   UNL     1       1.586  -3.368   0.583  0.00  0.00    +0.127 C 
ATOM     23  C   UNL     1       3.678  -2.056   0.661  0.00  0.00    +0.247 C 
ENDROOT
BRANCH  23  26
ATOM      1  F   UNL     1       6.890  -0.177  -2.446  0.00  0.00    -0.205 F 
ATOM     26  C   UNL     1       4.471  -0.924   0.167  0.00  0.00    +0.040 A 
ATOM     31  C   UNL     1       5.321  -1.092  -0.926  0.00  0.00    +0.051 A 
ATOM     32  C   UNL     1       4.374   0.320   0.791  0.00  0.00    +0.013 A 
ATOM     35  C   UNL     1       6.074  -0.016  -1.396  0.00  0.00    +0.124 A 
ATOM     36  C   UNL     1       5.128   1.396   0.322  0.00  0.00    +0.004 A 
ATOM     38  C   UNL     1       5.977   1.228  -0.772  0.00  0.00    +0.038 A 
ENDBRANCH  23  26
BRANCH  18  12
ATOM      8  N   UNL     1      -4.973  -3.854  -0.817  0.00  0.00    -0.316 NA
ATOM     12  C   UNL     1      -2.622  -2.987   0.706  0.00  0.00    +0.078 C 
ATOM     14  C   UNL     1      -4.024  -2.438   0.975  0.00  0.00    +0.028 C 
ATOM     15  C   UNL     1      -2.691  -4.343   0.002  0.00  0.00    +0.028 C 
ATOM     20  C   UNL     1      -4.919  -2.502  -0.264  0.00  0.00    +0.081 C 
ATOM     21  C   UNL     1      -3.642  -4.327  -1.196  0.00  0.00    +0.081 C 
ATOM     41  H   UNL     1      -5.579  -3.859  -1.637  0.00  0.00    +0.122 HD
ENDBRANCH  18  12
BRANCH  13  22
ATOM      3  O   UNL     1       0.492  -0.046   1.738  0.00  0.00    -0.274 OA
ATOM      9  N   UNL     1       0.516   1.417  -0.072  0.00  0.00    -0.302 N 
ATOM     22  C   UNL     1       0.477   0.171   0.529  0.00  0.00    +0.236 C 
ATOM     42  H   UNL     1       0.539   1.479  -1.086  0.00  0.00    +0.150 HD
BRANCH   9  24
ATOM     24  C   UNL     1       0.581   2.653   0.674  0.00  0.00    +0.163 C 
BRANCH  24  28
ATOM      5  O   UNL     1       2.421   3.265  -0.792  0.00  0.00    -0.274 OA
ATOM     11  N   UNL     1       2.434   4.040   1.371  0.00  0.00    -0.328 N 
ATOM     28  C   UNL     1       1.902   3.320   0.321  0.00  0.00    +0.231 C 
ATOM     44  H   UNL     1       3.308   4.544   1.265  0.00  0.00    +0.145 HD
ATOM     45  H   UNL     1       1.984   4.095   2.278  0.00  0.00    +0.145 HD
ENDBRANCH  24  28
BRANCH  24  25
ATOM     25  C   UNL     1      -0.591   3.587   0.352  0.00  0.00    +0.069 C 
BRANCH  25  27
ATOM     10  N   UNL     1      -3.609   1.996   1.740  0.00  0.00    -0.360 N 
ATOM     27  C   UNL     1      -1.933   2.966   0.656  0.00  0.00    -0.020 A 
ATOM     29  C   UNL     1      -3.010   2.787  -0.258  0.00  0.00    +0.003 A 
ATOM     30  C   UNL     1      -2.332   2.470   1.875  0.00  0.00    +0.087 A 
ATOM     33  C   UNL     1      -4.048   2.176   0.448  0.00  0.00    +0.047 A 
ATOM     34  C   UNL     1      -3.201   3.087  -1.621  0.00  0.00    +0.010 A 
ATOM     37  C   UNL     1      -5.274   1.849  -0.143  0.00  0.00    +0.026 A 
ATOM     39  C   UNL     1      -4.421   2.766  -2.226  0.00  0.00    +0.001 A 
ATOM     40  C   UNL     1      -5.440   2.156  -1.497  0.00  0.00    +0.002 A 
ATOM     43  H   UNL     1      -4.151   1.573   2.481  0.00  0.00    +0.165 HD
ENDBRANCH  25  27
ENDBRANCH  24  25
ENDBRANCH   9  24
ENDBRANCH  13  22
TORSDOF 7
