REMARK  Name = 11865671
REMARK  13 active torsions:
REMARK  status: ('A' for Active; 'I' for Inactive)
REMARK    1  A    between atoms: O_1  and  C_11
REMARK    2  A    between atoms: O_2  and  C_13
REMARK    3  A    between atoms: O_6  and  C_29
REMARK    4  A    between atoms: O_6  and  C_31
REMARK    5  A    between atoms: N_7  and  C_12
REMARK    6  A    between atoms: N_8  and  C_18
REMARK    7  A    between atoms: N_9  and  C_23
REMARK    8  A    between atoms: C_15  and  C_17
REMARK    9  A    between atoms: C_18  and  C_20
REMARK   10  A    between atoms: C_18  and  C_22
REMARK   11  A    between atoms: C_20  and  C_21
REMARK   12  A    between atoms: C_23  and  C_24
REMARK   13  A    between atoms: C_24  and  C_30
REMARK                            x       y       z     vdW  Elec       q    Type
REMARK                         _______ _______ _______ _____ _____    ______ ____
ROOT
ATOM     11  C   UNL     1      -1.738   3.430   0.120  0.00  0.00    +0.167 C 
ATOM     12  C   UNL     1      -1.586   1.934  -0.217  0.00  0.00    +0.129 C 
ATOM     13  C   UNL     1      -0.474   4.219  -0.244  0.00  0.00    +0.149 C 
ATOM     14  C   UNL     1       0.783   3.645   0.432  0.00  0.00    +0.074 C 
ATOM     15  C   UNL     1       0.797   2.144   0.486  0.00  0.00    +0.015 C 
ATOM     16  C   UNL     1      -0.254   1.365   0.189  0.00  0.00    +0.006 C 
ENDROOT
BRANCH  12   7
ATOM      4  O   UNL     1      -4.162   1.307  -1.357  0.00  0.00    -0.253 OA
ATOM      7  N   UNL     1      -2.634   1.145   0.384  0.00  0.00    -0.291 N 
ATOM      9  N   UNL     1      -4.678   0.104   0.559  0.00  0.00    -0.299 N 
ATOM     19  C   UNL     1      -3.853   0.891  -0.241  0.00  0.00    +0.300 C 
ATOM     32  H   UNL     1      -2.500   0.797   1.329  0.00  0.00    +0.151 HD
ATOM     36  H   UNL     1      -4.334  -0.200   1.465  0.00  0.00    +0.150 HD
BRANCH   9  23
ATOM     23  C   UNL     1      -6.001  -0.307   0.153  0.00  0.00    +0.105 C 
BRANCH  23  24
ATOM     24  C   UNL     1      -5.991  -1.635  -0.595  0.00  0.00    +0.015 C 
ATOM     30  C   UNL     1      -5.449  -2.781   0.248  0.00  0.00    +0.005 C 
ENDBRANCH  23  24
ENDBRANCH   9  23
ENDBRANCH  12   7
BRANCH  15  17
ATOM      3  O   UNL     1       2.561   1.679   1.966  0.00  0.00    -0.271 OA
ATOM      8  N   UNL     1       2.539   0.647  -0.124  0.00  0.00    -0.300 N 
ATOM     17  C   UNL     1       2.047   1.479   0.866  0.00  0.00    +0.241 C 
ATOM     35  H   UNL     1       2.076   0.627  -1.028  0.00  0.00    +0.150 HD
BRANCH   8  18
ATOM     18  C   UNL     1       3.760  -0.114   0.019  0.00  0.00    +0.163 C 
BRANCH  18  22
ATOM      5  O   UNL     1       4.817   1.619  -1.318  0.00  0.00    -0.274 OA
ATOM     10  N   UNL     1       6.039   0.619   0.351  0.00  0.00    -0.328 N 
ATOM     22  C   UNL     1       4.905   0.791  -0.414  0.00  0.00    +0.231 C 
ATOM     37  H   UNL     1       6.872   1.172   0.177  0.00  0.00    +0.145 HD
ATOM     38  H   UNL     1       6.096  -0.066   1.097  0.00  0.00    +0.145 HD
ENDBRANCH  18  22
BRANCH  18  20
ATOM     20  C   UNL     1       3.745  -1.396  -0.822  0.00  0.00    +0.067 C 
BRANCH  20  21
ATOM     21  C   UNL     1       2.611  -2.321  -0.455  0.00  0.00    -0.045 A 
ATOM     25  C   UNL     1       1.380  -2.205  -1.103  0.00  0.00    +0.007 A 
ATOM     26  C   UNL     1       2.792  -3.292   0.530  0.00  0.00    +0.007 A 
ATOM     27  C   UNL     1       0.331  -3.060  -0.764  0.00  0.00    +0.046 A 
ATOM     28  C   UNL     1       1.742  -4.146   0.868  0.00  0.00    +0.046 A 
ATOM     29  C   UNL     1       0.512  -4.030   0.221  0.00  0.00    +0.120 A 
BRANCH  29   6
ATOM      6  O   UNL     1      -0.512  -4.864   0.551  0.00  0.00    -0.495 OA
ATOM     31  C   UNL     1      -1.742  -4.691  -0.150  0.00  0.00    +0.277 C 
ENDBRANCH  29   6
ENDBRANCH  20  21
ENDBRANCH  18  20
ENDBRANCH   8  18
ENDBRANCH  15  17
BRANCH  11   1
ATOM      1  O   UNL     1      -1.987   3.583   1.519  0.00  0.00    -0.387 OA
ATOM     33  H   UNL     1      -2.106   4.533   1.693  0.00  0.00    +0.210 HD
ENDBRANCH  11   1
BRANCH  13   2
ATOM      2  O   UNL     1      -0.301   4.242  -1.660  0.00  0.00    -0.389 OA
ATOM     34  H   UNL     1       0.481   4.786  -1.852  0.00  0.00    +0.210 HD
ENDBRANCH  13   2
TORSDOF 11
