REMARK  Name = 11912447
REMARK  11 active torsions:
REMARK  status: ('A' for Active; 'I' for Inactive)
REMARK    1  A    between atoms: O_3  and  C_26
REMARK    2  A    between atoms: O_3  and  C_27
REMARK    3  A    between atoms: C_7  and  C_12
REMARK    4  A    between atoms: C_8  and  C_13
REMARK    5  A    between atoms: C_12  and  C_14
REMARK    6  A    between atoms: C_13  and  C_20
REMARK    7  A    between atoms: C_15  and  C_16
REMARK    8  A    between atoms: C_16  and  C_23
REMARK    9  A    between atoms: C_16  and  C_24
REMARK   10  A    between atoms: C_16  and  C_25
REMARK   11  A    between atoms: C_19  and  C_26
REMARK                            x       y       z     vdW  Elec       q    Type
REMARK                         _______ _______ _______ _____ _____    ______ ____
ROOT
ATOM      2  O   UNL     1      -5.580   1.184  -1.290  0.00  0.00    -0.275 OA
ATOM      5  N   UNL     1      -3.634   0.204  -0.480  0.00  0.00    -0.301 N 
ATOM      7  C   UNL     1      -1.197   0.693   1.067  0.00  0.00    +0.004 C 
ATOM      8  C   UNL     1      -2.014   1.844   0.429  0.00  0.00    +0.010 C 
ATOM      9  C   UNL     1      -2.127  -0.503   1.342  0.00  0.00    +0.023 C 
ATOM     10  C   UNL     1      -2.803   1.368  -0.800  0.00  0.00    +0.111 C 
ATOM     11  C   UNL     1      -2.913  -0.932   0.105  0.00  0.00    +0.108 C 
ATOM     15  C   UNL     1      -4.992   0.216  -0.798  0.00  0.00    +0.221 C 
ENDROOT
BRANCH  15  16
ATOM     16  C   UNL     1      -5.766  -1.046  -0.511  0.00  0.00    +0.039 C 
ATOM     23  C   UNL     1      -5.669  -1.325   0.990  0.00  0.00    +0.020 C 
ATOM     24  C   UNL     1      -5.149  -2.195  -1.310  0.00  0.00    +0.020 C 
ATOM     25  C   UNL     1      -7.224  -0.835  -0.923  0.00  0.00    +0.020 C 
ENDBRANCH  15  16
BRANCH   8  13
ATOM     13  C   UNL     1      -1.160   3.063   0.081  0.00  0.00    +0.002 C 
ATOM     20  C   UNL     1      -0.376   3.542   1.284  0.00  0.00    +0.004 C 
ENDBRANCH   8  13
BRANCH   7  12
ATOM     12  C   UNL     1       0.022   0.261   0.243  0.00  0.00    +0.100 C 
BRANCH  12  14
ATOM      1  O   UNL     1       0.769  -0.584   2.327  0.00  0.00    -0.276 OA
ATOM      6  N   UNL     1       2.177  -0.917   0.509  0.00  0.00    -0.301 N 
ATOM     14  C   UNL     1       1.016  -0.450   1.126  0.00  0.00    +0.216 C 
ATOM     17  C   UNL     1       3.173  -1.653   1.292  0.00  0.00    +0.108 C 
ATOM     18  C   UNL     1       2.499  -0.774  -0.916  0.00  0.00    +0.108 C 
ATOM     19  C   UNL     1       4.948  -0.863  -0.315  0.00  0.00    +0.101 C 
ATOM     21  C   UNL     1       4.552  -1.013   1.156  0.00  0.00    +0.033 C 
ATOM     22  C   UNL     1       3.865  -0.115  -1.097  0.00  0.00    +0.033 C 
BRANCH  19  26
ATOM      4  O   UNL     1       6.865   0.300   0.560  0.00  0.00    -0.251 OA
ATOM     26  C   UNL     1       6.249  -0.127  -0.407  0.00  0.00    +0.310 C 
BRANCH  26   3
ATOM      3  O   UNL     1       6.619  -0.016  -1.715  0.00  0.00    -0.468 OA
ATOM     27  C   UNL     1       7.852   0.672  -1.950  0.00  0.00    +0.280 C 
ENDBRANCH  26   3
ENDBRANCH  19  26
ENDBRANCH  12  14
ENDBRANCH   7  12
TORSDOF 6
