REMARK  Name = 25389612
REMARK  11 active torsions:
REMARK  status: ('A' for Active; 'I' for Inactive)
REMARK    1  A    between atoms: O_1  and  C_17
REMARK    2  A    between atoms: O_1  and  C_22
REMARK    3  A    between atoms: O_3  and  C_23
REMARK    4  A    between atoms: O_3  and  C_31
REMARK    5  A    between atoms: O_4  and  C_34
REMARK    6  A    between atoms: O_4  and  C_35
REMARK    7  A    between atoms: N_6  and  C_20
REMARK    8  A    between atoms: N_8  and  C_27
REMARK    9  A    between atoms: C_10  and  C_16
REMARK   10  A    between atoms: C_11  and  C_17
REMARK   11  A    between atoms: C_19  and  C_21
REMARK                            x       y       z     vdW  Elec       q    Type
REMARK                         _______ _______ _______ _____ _____    ______ ____
ROOT
ATOM      5  N   UNL     1       0.997  -4.155   0.550  0.00  0.00    -0.296 NA
ATOM      9  C   UNL     1       2.120  -2.914  -1.445  0.00  0.00    +0.002 C 
ATOM     10  C   UNL     1       2.868  -2.600  -0.120  0.00  0.00    +0.055 C 
ATOM     11  C   UNL     1      -0.031  -3.427  -0.239  0.00  0.00    +0.095 C 
ATOM     12  C   UNL     1       0.634  -2.522  -1.298  0.00  0.00    +0.026 C 
ATOM     13  C   UNL     1       2.168  -4.445  -1.633  0.00  0.00    +0.019 C 
ATOM     14  C   UNL     1       2.027  -3.206   1.040  0.00  0.00    +0.094 C 
ATOM     15  C   UNL     1       1.657  -5.129  -0.353  0.00  0.00    +0.085 C 
ENDROOT
BRANCH  10  16
ATOM      6  N   UNL     1       4.378  -0.823   0.879  0.00  0.00    -0.270 N 
ATOM      7  N   UNL     1       4.562   0.502   1.006  0.00  0.00    -0.171 NA
ATOM     16  C   UNL     1       3.274  -1.159   0.153  0.00  0.00    +0.044 A 
ATOM     18  C   UNL     1       2.694   0.029  -0.221  0.00  0.00    +0.053 A 
ATOM     19  C   UNL     1       3.530   1.017   0.331  0.00  0.00    +0.096 A 
ATOM     20  C   UNL     1       5.321  -1.728   1.496  0.00  0.00    +0.172 C 
BRANCH  19  21
ATOM     21  C   UNL     1       3.361   2.443   0.229  0.00  0.00    +0.044 A 
ATOM     23  C   UNL     1       4.340   3.240  -0.364  0.00  0.00    +0.129 A 
ATOM     24  C   UNL     1       2.199   3.027   0.733  0.00  0.00    +0.014 A 
ATOM     25  C   UNL     1       4.157   4.620  -0.453  0.00  0.00    +0.046 A 
ATOM     26  C   UNL     1       2.015   4.407   0.644  0.00  0.00    +0.001 A 
ATOM     28  C   UNL     1       2.995   5.203   0.051  0.00  0.00    +0.004 A 
BRANCH  23   3
ATOM      3  O   UNL     1       5.487   2.697  -0.865  0.00  0.00    -0.494 OA
ATOM     31  C   UNL     1       6.425   3.596  -1.452  0.00  0.00    +0.277 C 
ENDBRANCH  23   3
ENDBRANCH  19  21
ENDBRANCH  10  16
BRANCH  11  17
ATOM     17  C   UNL     1      -1.003  -2.647   0.649  0.00  0.00    +0.252 C 
BRANCH  17   1
ATOM      1  O   UNL     1      -2.004  -2.081  -0.175  0.00  0.00    -0.449 OA
BRANCH   1  22
ATOM      2  O   UNL     1      -2.996  -1.157   1.667  0.00  0.00    -0.226 OA
ATOM      8  N   UNL     1      -3.869  -0.858  -0.485  0.00  0.00    -0.251 N 
ATOM     22  C   UNL     1      -2.976  -1.336   0.455  0.00  0.00    +0.405 C 
ATOM     36  H   UNL     1      -3.684  -1.115  -1.451  0.00  0.00    +0.158 HD
BRANCH   8  27
ATOM     27  C   UNL     1      -5.011  -0.054  -0.270  0.00  0.00    +0.037 A 
ATOM     29  C   UNL     1      -5.803   0.336  -1.351  0.00  0.00    +0.027 A 
ATOM     30  C   UNL     1      -5.347   0.349   1.022  0.00  0.00    +0.027 A 
ATOM     32  C   UNL     1      -6.930   1.129  -1.139  0.00  0.00    +0.047 A 
ATOM     33  C   UNL     1      -6.475   1.143   1.234  0.00  0.00    +0.047 A 
ATOM     34  C   UNL     1      -7.266   1.532   0.154  0.00  0.00    +0.120 A 
BRANCH  34   4
ATOM      4  O   UNL     1      -8.367   2.306   0.360  0.00  0.00    -0.495 OA
ATOM     35  C   UNL     1      -9.132   2.666  -0.790  0.00  0.00    +0.277 C 
ENDBRANCH  34   4
ENDBRANCH   8  27
ENDBRANCH   1  22
ENDBRANCH  17   1
ENDBRANCH  11  17
TORSDOF 8
