REMARK  Name = 11882072
REMARK  11 active torsions:
REMARK  status: ('A' for Active; 'I' for Inactive)
REMARK    1  A    between atoms: O_6  and  C_35
REMARK    2  A    between atoms: O_6  and  C_38
REMARK    3  A    between atoms: N_8  and  C_13
REMARK    4  A    between atoms: N_9  and  C_20
REMARK    5  A    between atoms: N_10  and  C_28
REMARK    6  A    between atoms: N_11  and  C_29
REMARK    7  A    between atoms: C_14  and  C_17
REMARK    8  A    between atoms: C_18  and  C_19
REMARK    9  A    between atoms: C_20  and  C_22
REMARK   10  A    between atoms: C_20  and  C_24
REMARK   11  A    between atoms: C_22  and  C_27
REMARK                            x       y       z     vdW  Elec       q    Type
REMARK                         _______ _______ _______ _____ _____    ______ ____
ROOT
ATOM      3  O   UNL     1       2.588  -1.115  -1.392  0.00  0.00    -0.268 OA
ATOM      7  N   UNL     1       1.508  -1.791   0.531  0.00  0.00    -0.283 N 
ATOM     13  C   UNL     1      -0.398  -0.972   1.679  0.00  0.00    +0.105 C 
ATOM     14  C   UNL     1       0.661  -0.607   0.639  0.00  0.00    +0.182 C 
ATOM     15  C   UNL     1       0.316  -1.994   2.568  0.00  0.00    +0.043 C 
ATOM     16  C   UNL     1       1.212  -2.750   1.596  0.00  0.00    +0.111 C 
ATOM     18  C   UNL     1       2.395  -1.977  -0.533  0.00  0.00    +0.264 C 
ENDROOT
BRANCH  13   8
ATOM      4  O   UNL     1      -2.774   0.409   0.872  0.00  0.00    -0.252 OA
ATOM      8  N   UNL     1      -1.564  -1.552   1.056  0.00  0.00    -0.294 N 
ATOM     11  N   UNL     1      -3.655  -1.630   0.112  0.00  0.00    -0.269 N 
ATOM     21  C   UNL     1      -2.688  -0.803   0.691  0.00  0.00    +0.304 C 
ATOM     39  H   UNL     1      -1.544  -2.538   0.812  0.00  0.00    +0.151 HD
ATOM     41  H   UNL     1      -3.426  -2.618   0.038  0.00  0.00    +0.156 HD
BRANCH  11  29
ATOM     29  C   UNL     1      -4.926  -1.262  -0.387  0.00  0.00    +0.038 A 
ATOM     31  C   UNL     1      -5.338   0.070  -0.331  0.00  0.00    +0.069 A 
ATOM     32  C   UNL     1      -5.768  -2.230  -0.934  0.00  0.00    +0.023 A 
ATOM     35  C   UNL     1      -6.592   0.433  -0.823  0.00  0.00    +0.122 A 
ATOM     36  C   UNL     1      -7.022  -1.867  -1.426  0.00  0.00    +0.005 A 
ATOM     37  C   UNL     1      -7.434  -0.535  -1.371  0.00  0.00    +0.046 A 
BRANCH  35   6
ATOM      6  O   UNL     1      -6.995   1.732  -0.769  0.00  0.00    -0.495 OA
ATOM     38  C   UNL     1      -6.085   2.671  -0.197  0.00  0.00    +0.277 C 
ENDBRANCH  35   6
ENDBRANCH  11  29
ENDBRANCH  13   8
BRANCH  18  19
ATOM     10  N   UNL     1       4.478  -3.366  -0.530  0.00  0.00    -0.346 N 
ATOM     19  C   UNL     1       3.114  -3.244  -0.567  0.00  0.00    +0.104 A 
ATOM     23  C   UNL     1       2.578  -4.511  -0.641  0.00  0.00    +0.032 A 
ATOM     25  C   UNL     1       4.822  -4.692  -0.579  0.00  0.00    +0.086 A 
ATOM     26  C   UNL     1       3.659  -5.427  -0.648  0.00  0.00    +0.020 A 
ATOM     28  C   UNL     1       5.425  -2.276  -0.451  0.00  0.00    +0.149 C 
ENDBRANCH  18  19
BRANCH  14  17
ATOM      2  O   UNL     1       2.504   0.304   1.854  0.00  0.00    -0.274 OA
ATOM      9  N   UNL     1       1.110   1.746   0.674  0.00  0.00    -0.302 N 
ATOM     17  C   UNL     1       1.538   0.509   1.125  0.00  0.00    +0.236 C 
ATOM     40  H   UNL     1       0.247   1.802   0.139  0.00  0.00    +0.150 HD
BRANCH   9  20
ATOM     20  C   UNL     1       1.769   2.985   1.019  0.00  0.00    +0.163 C 
BRANCH  20  24
ATOM      5  O   UNL     1      -0.000   3.293   2.656  0.00  0.00    -0.274 OA
ATOM     12  N   UNL     1       2.112   4.036   3.169  0.00  0.00    -0.328 N 
ATOM     24  C   UNL     1       1.176   3.454   2.340  0.00  0.00    +0.231 C 
ATOM     42  H   UNL     1       1.852   4.378   4.088  0.00  0.00    +0.145 HD
ATOM     43  H   UNL     1       3.082   4.159   2.896  0.00  0.00    +0.145 HD
ENDBRANCH  20  24
BRANCH  20  22
ATOM     22  C   UNL     1       1.589   4.060  -0.060  0.00  0.00    +0.074 C 
BRANCH  22  27
ATOM      1  S   UNL     1       3.597   5.125  -1.671  0.00  0.00    -0.102 S 
ATOM     27  C   UNL     1       2.526   3.864  -1.228  0.00  0.00    -0.008 A 
ATOM     30  C   UNL     1       2.662   2.761  -2.042  0.00  0.00    +0.011 A 
ATOM     33  C   UNL     1       3.658   2.953  -3.043  0.00  0.00    +0.008 A 
ATOM     34  C   UNL     1       4.245   4.196  -2.956  0.00  0.00    +0.045 A 
ENDBRANCH  22  27
ENDBRANCH  20  22
ENDBRANCH   9  20
ENDBRANCH  14  17
TORSDOF 9
