REMARK  Name = 38030802
REMARK  14 active torsions:
REMARK  status: ('A' for Active; 'I' for Inactive)
REMARK    1  A    between atoms: O_2  and  C_28
REMARK    2  A    between atoms: O_2  and  C_29
REMARK    3  A    between atoms: N_3  and  C_13
REMARK    4  A    between atoms: N_3  and  C_19
REMARK    5  A    between atoms: C_6  and  C_10
REMARK    6  A    between atoms: C_7  and  C_13
REMARK    7  A    between atoms: C_9  and  C_14
REMARK    8  A    between atoms: C_10  and  C_15
REMARK    9  A    between atoms: C_10  and  C_16
REMARK   10  A    between atoms: C_11  and  C_17
REMARK   11  A    between atoms: C_14  and  C_18
REMARK   12  A    between atoms: C_19  and  C_20
REMARK   13  A    between atoms: C_19  and  C_21
REMARK   14  A    between atoms: C_22  and  C_23
REMARK                            x       y       z     vdW  Elec       q    Type
REMARK                         _______ _______ _______ _____ _____    ______ ____
ROOT
ATOM      6  C   UNL     1       2.069  -0.183  -1.163  0.00  0.00    +0.000 C 
ATOM      7  C   UNL     1       3.616  -0.245  -1.131  0.00  0.00    +0.029 C 
ATOM      8  C   UNL     1       1.593   1.270  -1.314  0.00  0.00    +0.012 C 
ATOM      9  C   UNL     1       2.095   2.170  -0.169  0.00  0.00    +0.024 C 
ATOM     11  C   UNL     1       3.572   1.966   0.102  0.00  0.00    -0.073 C 
ATOM     12  C   UNL     1       4.238   0.887  -0.347  0.00  0.00    -0.023 C 
ATOM     17  C   UNL     1       4.277   3.054   0.863  0.00  0.00    +0.039 C 
ENDROOT
BRANCH   6  10
ATOM     10  C   UNL     1       1.488  -1.039  -2.292  0.00  0.00    -0.013 C 
ATOM     15  C   UNL     1       0.057  -1.452  -1.965  0.00  0.00    +0.007 C 
ATOM     16  C   UNL     1       1.544  -0.283  -3.616  0.00  0.00    +0.007 C 
ENDBRANCH   6  10
BRANCH   7  13
ATOM     13  C   UNL     1       4.105  -1.584  -0.568  0.00  0.00    +0.089 C 
BRANCH  13   3
ATOM      3  N   UNL     1       3.711  -1.730   0.823  0.00  0.00    -0.313 NA
ATOM     30  H   UNL     1       4.111  -0.969   1.371  0.00  0.00    +0.122 HD
BRANCH   3  19
ATOM     19  C   UNL     1       4.163  -3.006   1.365  0.00  0.00    +0.047 C 
ATOM     20  C   UNL     1       3.229  -4.129   0.923  0.00  0.00    +0.023 C 
ATOM     21  C   UNL     1       4.231  -2.916   2.886  0.00  0.00    +0.023 C 
ENDBRANCH   3  19
ENDBRANCH  13   3
ENDBRANCH   7  13
BRANCH   9  14
ATOM     14  C   UNL     1       1.269   1.955   1.104  0.00  0.00    +0.105 C 
BRANCH  14  18
ATOM      1  O   UNL     1      -0.984   1.086   0.748  0.00  0.00    -0.420 OA
ATOM      4  N   UNL     1      -0.848   3.319   0.721  0.00  0.00    -0.112 NA
ATOM      5  N   UNL     1      -2.168   2.969   0.508  0.00  0.00    -0.107 NA
ATOM     18  C   UNL     1      -0.194   2.189   0.855  0.00  0.00    +0.218 A 
ATOM     22  C   UNL     1      -2.200   1.657   0.532  0.00  0.00    +0.248 A 
BRANCH  22  23
ATOM     23  C   UNL     1      -3.299   0.749   0.369  0.00  0.00    +0.039 A 
ATOM     24  C   UNL     1      -4.584   1.242   0.144  0.00  0.00    +0.017 A 
ATOM     25  C   UNL     1      -3.082  -0.627   0.436  0.00  0.00    +0.017 A 
ATOM     26  C   UNL     1      -5.652   0.359  -0.014  0.00  0.00    +0.046 A 
ATOM     27  C   UNL     1      -4.150  -1.510   0.277  0.00  0.00    +0.046 A 
ATOM     28  C   UNL     1      -5.435  -1.017   0.052  0.00  0.00    +0.120 A 
BRANCH  28   2
ATOM      2  O   UNL     1      -6.477  -1.878  -0.105  0.00  0.00    -0.495 OA
ATOM     29  C   UNL     1      -6.184  -3.273  -0.025  0.00  0.00    +0.277 C 
ENDBRANCH  28   2
ENDBRANCH  22  23
ENDBRANCH  14  18
ENDBRANCH   9  14
TORSDOF 8
