REMARK  Name = 45784243
REMARK  3 active torsions:
REMARK  status: ('A' for Active; 'I' for Inactive)
REMARK    1  A    between atoms: N_3  and  C_7
REMARK    2  A    between atoms: C_8  and  C_16
REMARK    3  A    between atoms: C_17  and  C_20
REMARK                            x       y       z     vdW  Elec       q    Type
REMARK                         _______ _______ _______ _____ _____    ______ ____
ROOT
ATOM      3  N   UNL     1       1.471   0.918  -0.402  0.00  0.00    -0.299 NA
ATOM      8  C   UNL     1      -0.810   0.993  -0.941  0.00  0.00    +0.070 C 
ATOM      9  C   UNL     1       0.314   0.031  -0.534  0.00  0.00    +0.096 C 
ATOM     10  C   UNL     1       0.964   2.099   0.297  0.00  0.00    +0.085 C 
ATOM     11  C   UNL     1      -0.363   2.364  -0.403  0.00  0.00    +0.028 C 
ENDROOT
BRANCH   8  16
ATOM      1  F   UNL     1      -7.710  -1.188  -0.307  0.00  0.00    -0.205 F 
ATOM      5  N   UNL     1      -3.181   0.284  -1.357  0.00  0.00    -0.341 N 
ATOM      6  N   UNL     1      -2.550   0.345   0.773  0.00  0.00    -0.232 NA
ATOM     16  C   UNL     1      -2.173   0.541  -0.470  0.00  0.00    +0.113 A 
ATOM     18  C   UNL     1      -4.283  -0.104  -0.638  0.00  0.00    +0.069 A 
ATOM     19  C   UNL     1      -3.864  -0.057   0.689  0.00  0.00    +0.089 A 
ATOM     21  C   UNL     1      -5.570  -0.479  -1.022  0.00  0.00    +0.066 A 
ATOM     22  C   UNL     1      -4.769  -0.403   1.706  0.00  0.00    +0.032 A 
ATOM     23  C   UNL     1      -6.459  -0.820   0.003  0.00  0.00    +0.125 A 
ATOM     24  C   UNL     1      -6.068  -0.783   1.343  0.00  0.00    +0.040 A 
ATOM     25  H   UNL     1      -3.128   0.364  -2.364  0.00  0.00    +0.167 HD
ENDBRANCH   8  16
BRANCH   3   7
ATOM      2  O   UNL     1       7.540   0.069   0.108  0.00  0.00    -0.276 OA
ATOM      4  N   UNL     1       5.334  -0.608   0.381  0.00  0.00    -0.302 N 
ATOM      7  C   UNL     1       2.581   0.286   0.307  0.00  0.00    +0.060 C 
ATOM     12  C   UNL     1       3.744   1.275   0.454  0.00  0.00    +0.038 C 
ATOM     13  C   UNL     1       3.038  -0.971  -0.446  0.00  0.00    +0.038 C 
ATOM     14  C   UNL     1       4.950   0.604   1.108  0.00  0.00    +0.109 C 
ATOM     15  C   UNL     1       4.260  -1.597   0.226  0.00  0.00    +0.109 C 
ATOM     17  C   UNL     1       6.645  -0.763  -0.066  0.00  0.00    +0.212 C 
ATOM     20  C   UNL     1       6.959  -2.037  -0.809  0.00  0.00    +0.109 C 
ENDBRANCH   3   7
TORSDOF 2
