REMARK  Name = 56775618
REMARK  10 active torsions:
REMARK  status: ('A' for Active; 'I' for Inactive)
REMARK    1  A    between atoms: N_4  and  C_7
REMARK    2  A    between atoms: N_4  and  C_12
REMARK    3  A    between atoms: N_6  and  C_16
REMARK    4  A    between atoms: N_6  and  C_19
REMARK    5  A    between atoms: N_6  and  C_22
REMARK    6  A    between atoms: C_7  and  C_10
REMARK    7  A    between atoms: C_10  and  C_11
REMARK    8  A    between atoms: C_12  and  C_14
REMARK    9  A    between atoms: C_15  and  C_16
REMARK   10  A    between atoms: C_19  and  C_23
REMARK                            x       y       z     vdW  Elec       q    Type
REMARK                         _______ _______ _______ _____ _____    ______ ____
ROOT
ATOM     10  C   UNL     1       1.573  -2.985  -0.232  0.00  0.00    +0.085 C 
ENDROOT
BRANCH  10  11
ATOM      3  O   UNL     1      -1.993  -3.106  -0.372  0.00  0.00    -0.358 OA
ATOM      5  N   UNL     1      -0.769  -3.519   0.140  0.00  0.00    -0.083 NA
ATOM     11  C   UNL     1       0.142  -2.803  -0.525  0.00  0.00    +0.086 A 
ATOM     13  C   UNL     1      -0.442  -1.931  -1.460  0.00  0.00    +0.072 A 
ATOM     15  C   UNL     1      -1.786  -2.161  -1.323  0.00  0.00    +0.151 A 
BRANCH  15  16
ATOM     16  C   UNL     1      -3.012  -1.597  -1.990  0.00  0.00    +0.161 C 
BRANCH  16   6
ATOM      6  N   UNL     1      -3.338  -0.262  -1.490  0.00  0.00    -0.294 NA
ATOM     22  C   UNL     1      -4.199   0.443  -2.439  0.00  0.00    +0.105 C 
BRANCH   6  19
ATOM     19  C   UNL     1      -3.986  -0.350  -0.181  0.00  0.00    +0.119 C 
BRANCH  19  23
ATOM     23  C   UNL     1      -3.850   0.931   0.599  0.00  0.00    -0.033 A 
ATOM     25  C   UNL     1      -2.756   1.121   1.443  0.00  0.00    +0.005 A 
ATOM     26  C   UNL     1      -4.819   1.927   0.477  0.00  0.00    +0.005 A 
ATOM     27  C   UNL     1      -2.631   2.308   2.165  0.00  0.00    +0.000 A 
ATOM     28  C   UNL     1      -4.694   3.114   1.199  0.00  0.00    +0.000 A 
ATOM     29  C   UNL     1      -3.599   3.304   2.044  0.00  0.00    +0.000 A 
ENDBRANCH  19  23
ENDBRANCH   6  19
ENDBRANCH  16   6
ENDBRANCH  15  16
ENDBRANCH  10  11
BRANCH  10   7
ATOM      2  O   UNL     1       2.655  -2.314   2.900  0.00  0.00    -0.376 OA
ATOM      7  C   UNL     1       2.037  -2.030   0.877  0.00  0.00    +0.072 C 
ATOM      8  C   UNL     1       3.331  -2.335   1.622  0.00  0.00    +0.184 C 
ATOM      9  C   UNL     1       1.379  -2.118   2.249  0.00  0.00    +0.184 C 
BRANCH   7   4
ATOM      4  N   UNL     1       2.056  -0.636   0.454  0.00  0.00    -0.302 NA
ATOM     30  H   UNL     1       1.168  -0.262   0.127  0.00  0.00    +0.123 HD
BRANCH   4  12
ATOM     12  C   UNL     1       3.095  -0.440  -0.555  0.00  0.00    +0.118 C 
BRANCH  12  14
ATOM      1 CL   UNL     1       1.291   1.662  -1.921  0.00  0.00    -0.083 Cl
ATOM     14  C   UNL     1       3.575   0.986  -0.595  0.00  0.00    -0.015 A 
ATOM     17  C   UNL     1       2.820   1.995  -1.194  0.00  0.00    +0.045 A 
ATOM     18  C   UNL     1       4.807   1.287  -0.015  0.00  0.00    +0.006 A 
ATOM     20  C   UNL     1       3.299   3.306  -1.212  0.00  0.00    +0.020 A 
ATOM     21  C   UNL     1       5.285   2.597  -0.033  0.00  0.00    +0.000 A 
ATOM     24  C   UNL     1       4.531   3.607  -0.631  0.00  0.00    +0.001 A 
ENDBRANCH  12  14
ENDBRANCH   4  12
ENDBRANCH   7   4
ENDBRANCH  10   7
TORSDOF 9
