REMARK  Name = 11912763
REMARK  12 active torsions:
REMARK  status: ('A' for Active; 'I' for Inactive)
REMARK    1  A    between atoms: S_1  and  N_7
REMARK    2  A    between atoms: S_1  and  C_18
REMARK    3  A    between atoms: O_5  and  C_24
REMARK    4  A    between atoms: O_5  and  C_26
REMARK    5  A    between atoms: O_6  and  C_25
REMARK    6  A    between atoms: O_6  and  C_27
REMARK    7  A    between atoms: N_8  and  C_21
REMARK    8  A    between atoms: C_9  and  C_14
REMARK    9  A    between atoms: C_10  and  C_15
REMARK   10  A    between atoms: C_14  and  C_16
REMARK   11  A    between atoms: C_15  and  C_17
REMARK   12  A    between atoms: C_21  and  C_25
REMARK                            x       y       z     vdW  Elec       q    Type
REMARK                         _______ _______ _______ _____ _____    ______ ____
ROOT
ATOM      7  N   UNL     1       1.307   1.714   0.353  0.00  0.00    -0.176 NA
ATOM      9  C   UNL     1      -0.740   1.630  -1.055  0.00  0.00    +0.008 C 
ATOM     10  C   UNL     1      -1.421   0.756   0.026  0.00  0.00    +0.003 C 
ATOM     11  C   UNL     1      -0.802   0.994   1.412  0.00  0.00    +0.021 C 
ATOM     12  C   UNL     1       0.782   1.420  -1.014  0.00  0.00    +0.113 C 
ATOM     13  C   UNL     1       0.713   0.816   1.384  0.00  0.00    +0.110 C 
ENDROOT
BRANCH   7   1
ATOM      1  S   UNL     1       3.004   1.926   0.456  0.00  0.00    +0.061 S 
ATOM      2  O   UNL     1       3.347   2.340   1.799  0.00  0.00    -0.153 OA
ATOM      3  O   UNL     1       3.453   2.679  -0.695  0.00  0.00    -0.153 OA
BRANCH   1  18
ATOM     18  C   UNL     1       3.535   0.254   0.253  0.00  0.00    +0.106 A 
ATOM     19  C   UNL     1       3.797  -0.244  -1.023  0.00  0.00    +0.032 A 
ATOM     20  C   UNL     1       3.694  -0.567   1.369  0.00  0.00    +0.032 A 
ATOM     22  C   UNL     1       4.218  -1.564  -1.183  0.00  0.00    +0.047 A 
ATOM     23  C   UNL     1       4.114  -1.887   1.209  0.00  0.00    +0.047 A 
ATOM     24  C   UNL     1       4.377  -2.386  -0.067  0.00  0.00    +0.120 A 
BRANCH  24   5
ATOM      5  O   UNL     1       4.786  -3.675  -0.224  0.00  0.00    -0.495 OA
ATOM     26  C   UNL     1       5.035  -4.119  -1.556  0.00  0.00    +0.277 C 
ENDBRANCH  24   5
ENDBRANCH   1  18
ENDBRANCH   7   1
BRANCH   9  14
ATOM     14  C   UNL     1      -1.080   3.123  -0.958  0.00  0.00    +0.002 C 
ATOM     16  C   UNL     1      -0.468   3.898  -2.106  0.00  0.00    +0.004 C 
ENDBRANCH   9  14
BRANCH  10  15
ATOM     15  C   UNL     1      -2.938   0.935   0.076  0.00  0.00    +0.099 C 
BRANCH  15  17
ATOM      4  O   UNL     1      -3.044  -1.251   1.107  0.00  0.00    -0.276 OA
ATOM      8  N   UNL     1      -5.008  -0.059   0.754  0.00  0.00    -0.313 N 
ATOM     17  C   UNL     1      -3.635  -0.253   0.703  0.00  0.00    +0.213 C 
ATOM     28  H   UNL     1      -5.402   0.800   0.382  0.00  0.00    +0.149 HD
BRANCH   8  21
ATOM     21  C   UNL     1      -5.923  -1.034   1.302  0.00  0.00    +0.132 C 
BRANCH  21  25
ATOM     25  C   UNL     1      -6.407  -2.003   0.238  0.00  0.00    +0.178 C 
BRANCH  25   6
ATOM      6  O   UNL     1      -7.108  -1.287  -0.769  0.00  0.00    -0.381 OA
ATOM     27  C   UNL     1      -7.587  -2.154  -1.788  0.00  0.00    +0.194 C 
ENDBRANCH  25   6
ENDBRANCH  21  25
ENDBRANCH   8  21
ENDBRANCH  15  17
ENDBRANCH  10  15
TORSDOF 9
