REMARK  Name = 40777712
REMARK  14 active torsions:
REMARK  status: ('A' for Active; 'I' for Inactive)
REMARK    1  A    between atoms: O_2  and  C_29
REMARK    2  A    between atoms: O_2  and  C_30
REMARK    3  A    between atoms: O_3  and  C_31
REMARK    4  A    between atoms: N_5  and  C_17
REMARK    5  A    between atoms: N_6  and  C_10
REMARK    6  A    between atoms: C_8  and  C_11
REMARK    7  A    between atoms: C_14  and  C_18
REMARK    8  A    between atoms: C_15  and  C_20
REMARK    9  A    between atoms: C_16  and  C_19
REMARK   10  A    between atoms: C_16  and  C_26
REMARK   11  A    between atoms: C_16  and  C_27
REMARK   12  A    between atoms: C_16  and  C_28
REMARK   13  A    between atoms: C_21  and  C_29
REMARK   14  A    between atoms: C_30  and  C_31
REMARK                            x       y       z     vdW  Elec       q    Type
REMARK                         _______ _______ _______ _____ _____    ______ ____
ROOT
ATOM      5  N   UNL     1      -2.606   0.950   0.356  0.00  0.00    -0.236 N 
ATOM      7  N   UNL     1      -2.385   2.018   1.142  0.00  0.00    -0.171 NA
ATOM     11  C   UNL     1      -0.490   1.386   0.034  0.00  0.00    +0.003 A 
ATOM     14  C   UNL     1      -1.504   0.533  -0.330  0.00  0.00    +0.046 A 
ATOM     15  C   UNL     1      -1.091   2.279   0.941  0.00  0.00    +0.064 A 
ATOM     18  C   UNL     1      -1.511  -0.621  -1.252  0.00  0.00    +0.066 C 
ATOM     20  C   UNL     1      -0.462   3.408   1.649  0.00  0.00    +0.068 C 
ENDROOT
BRANCH   5  17
ATOM     17  C   UNL     1      -3.879   0.382   0.303  0.00  0.00    +0.066 A 
ATOM     19  C   UNL     1      -6.425  -0.755   0.206  0.00  0.00    -0.042 A 
ATOM     22  C   UNL     1      -4.968   1.144  -0.121  0.00  0.00    +0.028 A 
ATOM     23  C   UNL     1      -4.064  -0.949   0.678  0.00  0.00    +0.028 A 
ATOM     24  C   UNL     1      -6.241   0.576  -0.170  0.00  0.00    +0.006 A 
ATOM     25  C   UNL     1      -5.337  -1.517   0.630  0.00  0.00    +0.006 A 
BRANCH  19  16
ATOM     16  C   UNL     1      -7.786  -1.362   0.154  0.00  0.00    -0.013 C 
ATOM     26  C   UNL     1      -8.367  -1.326  -1.293  0.00  0.00    +0.015 C 
ATOM     27  C   UNL     1      -8.783  -0.597   1.080  0.00  0.00    +0.015 C 
ATOM     28  C   UNL     1      -7.871  -2.860   0.599  0.00  0.00    +0.015 C 
ENDBRANCH  19  16
ENDBRANCH   5  17
BRANCH  11   8
ATOM      8  C   UNL     1       0.946   1.367  -0.437  0.00  0.00    +0.047 C 
ATOM      9  C   UNL     1       1.667   0.036  -0.139  0.00  0.00    +0.039 C 
ATOM     10  C   UNL     1       2.632  -0.188  -1.310  0.00  0.00    +0.097 C 
ATOM     12  C   UNL     1       1.122   1.504  -1.921  0.00  0.00    -0.021 C 
ATOM     13  C   UNL     1       2.045   0.658  -2.391  0.00  0.00    -0.009 C 
BRANCH  10   6
ATOM      1  O   UNL     1       4.829  -1.753  -0.263  0.00  0.00    -0.273 OA
ATOM      6  N   UNL     1       3.967   0.269  -1.026  0.00  0.00    -0.307 N 
ATOM     21  C   UNL     1       4.963  -0.560  -0.521  0.00  0.00    +0.239 C 
ATOM     32  H   UNL     1       4.181   1.253  -1.166  0.00  0.00    +0.149 HD
BRANCH  21  29
ATOM     29  C   UNL     1       6.267   0.181  -0.319  0.00  0.00    +0.256 C 
BRANCH  29   2
ATOM      2  O   UNL     1       7.261  -0.687   0.181  0.00  0.00    -0.359 OA
BRANCH   2  30
ATOM     30  C   UNL     1       8.501  -0.015   0.382  0.00  0.00    +0.280 C 
BRANCH  30  31
ATOM      4  O   UNL     1       9.329  -2.161   1.165  0.00  0.00    -0.248 OA
ATOM     31  C   UNL     1       9.524  -0.982   0.913  0.00  0.00    +0.331 C 
BRANCH  31   3
ATOM      3  O   UNL     1      10.717  -0.357   1.078  0.00  0.00    -0.479 OA
ATOM     33  H   UNL     1      11.404  -0.966   1.424  0.00  0.00    +0.295 HD
ENDBRANCH  31   3
ENDBRANCH  30  31
ENDBRANCH   2  30
ENDBRANCH  29   2
ENDBRANCH  21  29
ENDBRANCH  10   6
ENDBRANCH  11   8
TORSDOF 9
