REMARK  Name = 45784127
REMARK  11 active torsions:
REMARK  status: ('A' for Active; 'I' for Inactive)
REMARK    1  A    between atoms: O_2  and  C_15
REMARK    2  A    between atoms: O_4  and  C_21
REMARK    3  A    between atoms: O_4  and  C_22
REMARK    4  A    between atoms: C_7  and  C_11
REMARK    5  A    between atoms: C_9  and  C_15
REMARK    6  A    between atoms: C_10  and  C_14
REMARK    7  A    between atoms: C_11  and  C_16
REMARK    8  A    between atoms: C_11  and  C_17
REMARK    9  A    between atoms: C_12  and  C_18
REMARK   10  A    between atoms: C_14  and  C_19
REMARK   11  A    between atoms: C_20  and  C_21
REMARK                            x       y       z     vdW  Elec       q    Type
REMARK                         _______ _______ _______ _____ _____    ______ ____
ROOT
ATOM     14  C   UNL     1       2.489   1.918   0.621  0.00  0.00    +0.105 C 
ENDROOT
BRANCH  14  10
ATOM      7  C   UNL     1       2.487  -1.231  -0.035  0.00  0.00    +0.001 C 
ATOM      8  C   UNL     1       2.366  -0.034  -0.990  0.00  0.00    +0.012 C 
ATOM      9  C   UNL     1       3.966  -1.672   0.095  0.00  0.00    +0.040 C 
ATOM     10  C   UNL     1       3.196   1.174  -0.518  0.00  0.00    +0.024 C 
ATOM     12  C   UNL     1       4.599   0.770  -0.113  0.00  0.00    -0.073 C 
ATOM     13  C   UNL     1       4.928  -0.508   0.144  0.00  0.00    -0.022 C 
ATOM     18  C   UNL     1       5.628   1.865  -0.055  0.00  0.00    +0.039 C 
BRANCH   7  11
ATOM     11  C   UNL     1       1.593  -2.376  -0.521  0.00  0.00    -0.013 C 
ATOM     16  C   UNL     1       1.684  -2.514  -2.038  0.00  0.00    +0.007 C 
ATOM     17  C   UNL     1       0.149  -2.146  -0.085  0.00  0.00    +0.007 C 
ENDBRANCH   7  11
BRANCH   9  15
ATOM     15  C   UNL     1       4.173  -2.557   1.330  0.00  0.00    +0.163 C 
BRANCH  15   2
ATOM      2  O   UNL     1       5.503  -3.037   1.313  0.00  0.00    -0.394 OA
ATOM     28  H   UNL     1       5.620  -3.588   2.106  0.00  0.00    +0.209 HD
ENDBRANCH  15   2
ENDBRANCH   9  15
ENDBRANCH  14  10
BRANCH  14  19
ATOM      3  O   UNL     1       0.068   1.629   0.709  0.00  0.00    -0.421 OA
ATOM      5  N   UNL     1       0.739   3.351  -0.551  0.00  0.00    -0.112 NA
ATOM      6  N   UNL     1      -0.642   3.305  -0.590  0.00  0.00    -0.109 NA
ATOM     19  C   UNL     1       1.110   2.354   0.218  0.00  0.00    +0.218 A 
ATOM     20  C   UNL     1      -0.990   2.285   0.159  0.00  0.00    +0.254 A 
BRANCH  20  21
ATOM     21  C   UNL     1      -2.328   1.771   0.478  0.00  0.00    +0.326 C 
BRANCH  21   4
ATOM      4  O   UNL     1      -2.586   0.572  -0.256  0.00  0.00    -0.483 OA
BRANCH   4  22
ATOM      1  F   UNL     1      -7.575  -1.651   0.360  0.00  0.00    -0.205 F 
ATOM     22  C   UNL     1      -3.827   0.019  -0.103  0.00  0.00    +0.121 A 
ATOM     23  C   UNL     1      -4.762   0.626   0.736  0.00  0.00    +0.048 A 
ATOM     24  C   UNL     1      -4.158  -1.151  -0.785  0.00  0.00    +0.048 A 
ATOM     25  C   UNL     1      -6.028   0.062   0.893  0.00  0.00    +0.042 A 
ATOM     26  C   UNL     1      -5.424  -1.715  -0.629  0.00  0.00    +0.042 A 
ATOM     27  C   UNL     1      -6.359  -1.109   0.210  0.00  0.00    +0.124 A 
ENDBRANCH   4  22
ENDBRANCH  21   4
ENDBRANCH  20  21
ENDBRANCH  14  19
TORSDOF 8
