REMARK  Name = 45784432
REMARK  10 active torsions:
REMARK  status: ('A' for Active; 'I' for Inactive)
REMARK    1  A    between atoms: O_3  and  C_12
REMARK    2  A    between atoms: N_6  and  C_16
REMARK    3  A    between atoms: N_7  and  C_25
REMARK    4  A    between atoms: N_8  and  C_26
REMARK    5  A    between atoms: C_9  and  C_19
REMARK    6  A    between atoms: C_11  and  C_21
REMARK    7  A    between atoms: C_15  and  C_20
REMARK    8  A    between atoms: C_20  and  C_22
REMARK    9  A    between atoms: C_20  and  C_23
REMARK   10  A    between atoms: C_25  and  C_27
REMARK                            x       y       z     vdW  Elec       q    Type
REMARK                         _______ _______ _______ _____ _____    ______ ____
ROOT
ATOM      9  C   UNL     1      -0.743  -0.458  -1.611  0.00  0.00    -0.027 C 
ATOM     10  C   UNL     1      -0.511  -0.697  -0.082  0.00  0.00    +0.028 C 
ATOM     11  C   UNL     1       0.951  -1.203   0.190  0.00  0.00    +0.012 C 
ATOM     12  C   UNL     1      -1.645  -1.568   0.531  0.00  0.00    +0.122 C 
ATOM     13  C   UNL     1      -2.150   0.146  -1.832  0.00  0.00    +0.007 C 
ATOM     14  C   UNL     1       0.295   0.566  -2.124  0.00  0.00    +0.009 C 
ATOM     15  C   UNL     1      -3.055  -1.015   0.217  0.00  0.00    +0.029 C 
ATOM     16  C   UNL     1       1.985  -0.202  -0.397  0.00  0.00    +0.078 C 
ATOM     17  C   UNL     1      -3.265  -0.724  -1.268  0.00  0.00    +0.007 C 
ATOM     18  C   UNL     1       1.734   0.141  -1.865  0.00  0.00    +0.023 C 
ATOM     19  C   UNL     1      -0.625  -1.762  -2.440  0.00  0.00    +0.011 C 
ATOM     21  C   UNL     1       1.256  -1.431   1.680  0.00  0.00    +0.010 C 
ENDROOT
BRANCH  16   6
ATOM      5  O   UNL     1       4.349   1.371  -0.018  0.00  0.00    -0.253 OA
ATOM      6  N   UNL     1       3.341  -0.694  -0.267  0.00  0.00    -0.296 N 
ATOM      8  N   UNL     1       5.614  -0.606   0.008  0.00  0.00    -0.269 N 
ATOM     24  C   UNL     1       4.441   0.147  -0.084  0.00  0.00    +0.304 C 
ATOM     36  H   UNL     1       3.507  -1.688  -0.393  0.00  0.00    +0.151 HD
ATOM     39  H   UNL     1       5.516  -1.615  -0.065  0.00  0.00    +0.156 HD
BRANCH   8  26
ATOM      2  F   UNL     1       8.716   3.010   0.601  0.00  0.00    -0.205 F 
ATOM     26  C   UNL     1       6.935  -0.136   0.194  0.00  0.00    +0.037 A 
ATOM     28  C   UNL     1       7.179   1.233   0.309  0.00  0.00    +0.061 A 
ATOM     29  C   UNL     1       7.995  -1.041   0.262  0.00  0.00    +0.023 A 
ATOM     31  C   UNL     1       8.482   1.696   0.492  0.00  0.00    +0.125 A 
ATOM     32  C   UNL     1       9.297  -0.578   0.445  0.00  0.00    +0.005 A 
ATOM     35  C   UNL     1       9.541   0.791   0.560  0.00  0.00    +0.038 A 
ENDBRANCH   8  26
ENDBRANCH  16   6
BRANCH  12   3
ATOM      3  O   UNL     1      -1.520  -1.583   1.953  0.00  0.00    -0.391 OA
ATOM     37  H   UNL     1      -1.590  -0.667   2.273  0.00  0.00    +0.210 HD
ENDBRANCH  12   3
BRANCH  15  20
ATOM     20  C   UNL     1      -4.159  -1.956   0.716  0.00  0.00    +0.077 C 
ATOM     22  C   UNL     1      -4.020  -3.324   0.058  0.00  0.00    +0.017 C 
BRANCH  20  23
ATOM      4  O   UNL     1      -6.159  -1.561  -0.592  0.00  0.00    -0.276 OA
ATOM      7  N   UNL     1      -5.963  -0.526   1.475  0.00  0.00    -0.310 N 
ATOM     23  C   UNL     1      -5.529  -1.343   0.441  0.00  0.00    +0.216 C 
ATOM     38  H   UNL     1      -5.364  -0.382   2.283  0.00  0.00    +0.149 HD
BRANCH   7  25
ATOM     25  C   UNL     1      -7.230   0.167   1.443  0.00  0.00    +0.146 C 
BRANCH  25  27
ATOM      1  S   UNL     1      -8.466   2.149  -0.060  0.00  0.00    -0.100 S 
ATOM     27  C   UNL     1      -7.119   1.510   0.782  0.00  0.00    +0.007 A 
ATOM     30  C   UNL     1      -6.035   2.361   0.744  0.00  0.00    +0.013 A 
ATOM     33  C   UNL     1      -6.316   3.552   0.015  0.00  0.00    +0.008 A 
ATOM     34  C   UNL     1      -7.602   3.567  -0.477  0.00  0.00    +0.045 A 
ENDBRANCH  25  27
ENDBRANCH   7  25
ENDBRANCH  20  23
ENDBRANCH  15  20
TORSDOF 7
