REMARK  Name = 11941985
REMARK  6 active torsions:
REMARK  status: ('A' for Active; 'I' for Inactive)
REMARK    1  A    between atoms: O_3  and  C_24
REMARK    2  A    between atoms: O_3  and  C_25
REMARK    3  A    between atoms: N_6  and  C_16
REMARK    4  A    between atoms: C_10  and  C_17
REMARK    5  A    between atoms: C_11  and  C_16
REMARK    6  A    between atoms: C_23  and  C_24
REMARK                            x       y       z     vdW  Elec       q    Type
REMARK                         _______ _______ _______ _____ _____    ______ ____
ROOT
ATOM      4  N   UNL     1      -0.656  -0.976   0.441  0.00  0.00    -0.297 NA
ATOM      9  C   UNL     1       1.540  -1.614  -0.800  0.00  0.00    +0.005 C 
ATOM     10  C   UNL     1       1.812  -0.606   0.333  0.00  0.00    +0.092 C 
ATOM     11  C   UNL     1      -0.828  -0.787  -1.024  0.00  0.00    +0.078 C 
ATOM     12  C   UNL     1       0.505  -1.012  -1.771  0.00  0.00    +0.025 C 
ATOM     13  C   UNL     1       0.893  -2.849  -0.149  0.00  0.00    +0.020 C 
ATOM     14  C   UNL     1       0.472  -0.150   0.937  0.00  0.00    +0.097 C 
ATOM     15  C   UNL     1      -0.325  -2.403   0.681  0.00  0.00    +0.085 C 
ENDROOT
BRANCH  10  17
ATOM      1  O   UNL     1       2.054   1.568  -0.582  0.00  0.00    -0.275 OA
ATOM      2  O   UNL     1       6.723   0.521   0.667  0.00  0.00    -0.377 OA
ATOM      5  N   UNL     1       4.014   0.420  -0.102  0.00  0.00    -0.297 N 
ATOM     17  C   UNL     1       2.629   0.562  -0.161  0.00  0.00    +0.220 C 
ATOM     18  C   UNL     1       4.729  -0.804   0.272  0.00  0.00    +0.136 C 
ATOM     19  C   UNL     1       4.881   1.507  -0.557  0.00  0.00    +0.136 C 
ATOM     21  C   UNL     1       5.868  -0.478   1.230  0.00  0.00    +0.179 C 
ATOM     22  C   UNL     1       6.008   1.738   0.439  0.00  0.00    +0.179 C 
ENDBRANCH  10  17
BRANCH  11  16
ATOM     16  C   UNL     1      -1.451   0.567  -1.368  0.00  0.00    +0.164 C 
BRANCH  16   6
ATOM      6  N   UNL     1      -2.699   0.785  -0.655  0.00  0.00    -0.250 N 
ATOM      7  N   UNL     1      -2.692   1.370   0.547  0.00  0.00    -0.065 NA
ATOM      8  N   UNL     1      -3.956   1.431   0.952  0.00  0.00    -0.132 NA
ATOM     20  C   UNL     1      -3.945   0.453  -1.062  0.00  0.00    +0.136 A 
ATOM     23  C   UNL     1      -4.736   0.873  -0.023  0.00  0.00    +0.108 A 
BRANCH  23  24
ATOM     24  C   UNL     1      -6.195   0.787   0.124  0.00  0.00    +0.218 C 
BRANCH  24   3
ATOM      3  O   UNL     1      -6.617  -0.428   0.755  0.00  0.00    -0.377 OA
ATOM     25  C   UNL     1      -8.028  -0.475   0.878  0.00  0.00    +0.194 C 
ENDBRANCH  24   3
ENDBRANCH  23  24
ENDBRANCH  16   6
ENDBRANCH  11  16
TORSDOF 5
