REMARK  Name = 25313359
REMARK  12 active torsions:
REMARK  status: ('A' for Active; 'I' for Inactive)
REMARK    1  A    between atoms: O_3  and  C_23
REMARK    2  A    between atoms: N_6  and  C_15
REMARK    3  A    between atoms: N_7  and  C_27
REMARK    4  A    between atoms: C_8  and  C_12
REMARK    5  A    between atoms: C_9  and  C_14
REMARK    6  A    between atoms: C_12  and  C_15
REMARK    7  A    between atoms: C_14  and  C_23
REMARK    8  A    between atoms: C_16  and  C_19
REMARK    9  A    between atoms: C_19  and  C_20
REMARK   10  A    between atoms: C_20  and  C_24
REMARK   11  A    between atoms: C_20  and  C_25
REMARK   12  A    between atoms: C_20  and  C_26
REMARK                            x       y       z     vdW  Elec       q    Type
REMARK                         _______ _______ _______ _____ _____    ______ ____
ROOT
ATOM      2  O   UNL     1       3.051   3.200   1.272  0.00  0.00    -0.276 OA
ATOM      5  N   UNL     1       3.553   1.417  -0.129  0.00  0.00    -0.301 N 
ATOM      8  C   UNL     1       3.111  -0.868  -1.000  0.00  0.00    +0.011 C 
ATOM      9  C   UNL     1       4.303  -1.381  -0.153  0.00  0.00    +0.006 C 
ATOM     10  C   UNL     1       3.313   0.620  -1.339  0.00  0.00    +0.111 C 
ATOM     11  C   UNL     1       4.550  -0.489   1.076  0.00  0.00    +0.023 C 
ATOM     13  C   UNL     1       4.692   0.978   0.676  0.00  0.00    +0.108 C 
ATOM     16  C   UNL     1       2.813   2.532   0.264  0.00  0.00    +0.216 C 
ENDROOT
BRANCH   8  12
ATOM     12  C   UNL     1       1.742  -1.083  -0.344  0.00  0.00    +0.020 C 
BRANCH  12  15
ATOM     15  C   UNL     1       0.644  -1.168  -1.394  0.00  0.00    +0.085 C 
BRANCH  15   6
ATOM      6  N   UNL     1      -0.653  -1.355  -0.744  0.00  0.00    -0.299 NA
ATOM      7  N   UNL     1      -3.444  -0.922  -0.320  0.00  0.00    -0.327 N 
ATOM     17  C   UNL     1      -1.639  -1.873  -1.700  0.00  0.00    +0.103 C 
ATOM     18  C   UNL     1      -1.129  -0.090  -0.170  0.00  0.00    +0.103 C 
ATOM     21  C   UNL     1      -2.986  -2.127  -1.019  0.00  0.00    +0.120 C 
ATOM     22  C   UNL     1      -2.458  -0.286   0.563  0.00  0.00    +0.120 C 
BRANCH   7  27
ATOM      1  F   UNL     1      -8.799  -0.347   0.928  0.00  0.00    -0.205 F 
ATOM     27  C   UNL     1      -4.800  -0.776  -0.004  0.00  0.00    +0.030 A 
ATOM     28  C   UNL     1      -5.583  -1.904   0.244  0.00  0.00    +0.026 A 
ATOM     29  C   UNL     1      -5.368   0.496   0.063  0.00  0.00    +0.026 A 
ATOM     30  C   UNL     1      -6.934  -1.759   0.560  0.00  0.00    +0.040 A 
ATOM     31  C   UNL     1      -6.719   0.640   0.378  0.00  0.00    +0.040 A 
ATOM     32  C   UNL     1      -7.502  -0.487   0.626  0.00  0.00    +0.124 A 
ENDBRANCH   7  27
ENDBRANCH  15   6
ENDBRANCH  12  15
ENDBRANCH   8  12
BRANCH   9  14
ATOM     14  C   UNL     1       4.158  -2.844   0.265  0.00  0.00    +0.124 C 
BRANCH  14  23
ATOM      4  O   UNL     1       6.579  -2.914   0.539  0.00  0.00    -0.251 OA
ATOM     23  C   UNL     1       5.489  -3.465   0.585  0.00  0.00    +0.305 C 
BRANCH  23   3
ATOM      3  O   UNL     1       5.314  -4.763   0.945  0.00  0.00    -0.481 OA
ATOM     33  H   UNL     1       6.165  -5.200   1.162  0.00  0.00    +0.295 HD
ENDBRANCH  23   3
ENDBRANCH  14  23
ENDBRANCH   9  14
BRANCH  16  19
ATOM     19  C   UNL     1       1.653   2.918  -0.619  0.00  0.00    +0.102 C 
BRANCH  19  20
ATOM     20  C   UNL     1       0.931   4.188  -0.135  0.00  0.00    -0.029 C 
ATOM     24  C   UNL     1       0.372   4.003   1.286  0.00  0.00    +0.011 C 
ATOM     25  C   UNL     1      -0.214   4.574  -1.087  0.00  0.00    +0.011 C 
ATOM     26  C   UNL     1       1.958   5.336  -0.113  0.00  0.00    +0.011 C 
ENDBRANCH  19  20
ENDBRANCH  16  19
TORSDOF 9
