REMARK  Name = 56775621
REMARK  10 active torsions:
REMARK  status: ('A' for Active; 'I' for Inactive)
REMARK    1  A    between atoms: N_3  and  C_6
REMARK    2  A    between atoms: N_3  and  C_8
REMARK    3  A    between atoms: N_5  and  C_20
REMARK    4  A    between atoms: N_5  and  C_21
REMARK    5  A    between atoms: N_5  and  C_22
REMARK    6  A    between atoms: C_6  and  C_13
REMARK    7  A    between atoms: C_7  and  C_8
REMARK    8  A    between atoms: C_13  and  C_17
REMARK    9  A    between atoms: C_19  and  C_20
REMARK   10  A    between atoms: C_21  and  C_23
REMARK                            x       y       z     vdW  Elec       q    Type
REMARK                         _______ _______ _______ _____ _____    ______ ____
ROOT
ATOM      2  O   UNL     1      -1.079  -3.583   0.592  0.00  0.00    -0.358 OA
ATOM      4  N   UNL     1       0.242  -3.731   0.187  0.00  0.00    -0.083 NA
ATOM     17  C   UNL     1       0.881  -2.674   0.697  0.00  0.00    +0.086 A 
ATOM     18  C   UNL     1       0.023  -1.833   1.426  0.00  0.00    +0.072 A 
ATOM     19  C   UNL     1      -1.197  -2.449   1.329  0.00  0.00    +0.151 A 
ENDROOT
BRANCH  17  13
ATOM     13  C   UNL     1       2.366  -2.502   0.457  0.00  0.00    +0.085 C 
BRANCH  13   6
ATOM      1  O   UNL     1       3.434  -2.379  -2.649  0.00  0.00    -0.376 OA
ATOM      6  C   UNL     1       2.615  -1.714  -0.793  0.00  0.00    +0.072 C 
ATOM     11  C   UNL     1       3.988  -1.786  -1.452  0.00  0.00    +0.184 C 
ATOM     12  C   UNL     1       2.094  -2.252  -2.121  0.00  0.00    +0.184 C 
BRANCH   6   3
ATOM      3  N   UNL     1       2.224  -0.305  -0.668  0.00  0.00    -0.306 NA
ATOM     29  H   UNL     1       2.289   0.219  -1.541  0.00  0.00    +0.123 HD
BRANCH   3   8
ATOM      8  C   UNL     1       3.045   0.339   0.346  0.00  0.00    +0.085 C 
BRANCH   8   7
ATOM      7  C   UNL     1       2.949   1.860   0.239  0.00  0.00    +0.003 C 
ATOM      9  C   UNL     1       3.899   2.534   1.239  0.00  0.00    +0.005 C 
ATOM     10  C   UNL     1       1.504   2.328   0.457  0.00  0.00    +0.005 C 
ATOM     14  C   UNL     1       3.782   4.055   1.189  0.00  0.00    +0.000 C 
ATOM     15  C   UNL     1       1.392   3.850   0.407  0.00  0.00    +0.000 C 
ATOM     16  C   UNL     1       2.343   4.517   1.396  0.00  0.00    +0.000 C 
ENDBRANCH   8   7
ENDBRANCH   3   8
ENDBRANCH   6   3
ENDBRANCH  13   6
ENDBRANCH  17  13
BRANCH  19  20
ATOM     20  C   UNL     1      -2.537  -2.137   1.841  0.00  0.00    +0.161 C 
BRANCH  20   5
ATOM      5  N   UNL     1      -3.042  -0.830   1.388  0.00  0.00    -0.294 NA
ATOM     22  C   UNL     1      -4.112  -0.374   2.268  0.00  0.00    +0.105 C 
BRANCH   5  21
ATOM     21  C   UNL     1      -3.509  -0.925   0.009  0.00  0.00    +0.119 C 
BRANCH  21  23
ATOM     23  C   UNL     1      -3.531   0.419  -0.669  0.00  0.00    -0.033 A 
ATOM     24  C   UNL     1      -4.677   1.212  -0.610  0.00  0.00    +0.005 A 
ATOM     25  C   UNL     1      -2.405   0.872  -1.356  0.00  0.00    +0.005 A 
ATOM     26  C   UNL     1      -4.698   2.457  -1.239  0.00  0.00    +0.000 A 
ATOM     27  C   UNL     1      -2.425   2.118  -1.984  0.00  0.00    +0.000 A 
ATOM     28  C   UNL     1      -3.571   2.910  -1.926  0.00  0.00    +0.000 A 
ENDBRANCH  21  23
ENDBRANCH   5  21
ENDBRANCH  20   5
ENDBRANCH  19  20
TORSDOF 9
