REMARK  Name = 25313019
REMARK  7 active torsions:
REMARK  status: ('A' for Active; 'I' for Inactive)
REMARK    1  A    between atoms: O_3  and  C_23
REMARK    2  A    between atoms: N_6  and  C_15
REMARK    3  A    between atoms: N_7  and  C_16
REMARK    4  A    between atoms: C_8  and  C_12
REMARK    5  A    between atoms: C_9  and  C_14
REMARK    6  A    between atoms: C_12  and  C_15
REMARK    7  A    between atoms: C_14  and  C_23
REMARK                            x       y       z     vdW  Elec       q    Type
REMARK                         _______ _______ _______ _____ _____    ______ ____
ROOT
ATOM      1  O   UNL     1       0.255   3.473  -1.427  0.00  0.00    -0.253 OA
ATOM      5  N   UNL     1      -0.916   2.280   0.181  0.00  0.00    -0.285 N 
ATOM      7  N   UNL     1       1.448   2.326   0.161  0.00  0.00    -0.296 N 
ATOM      8  C   UNL     1      -1.751   0.111   1.041  0.00  0.00    +0.011 C 
ATOM      9  C   UNL     1      -3.138   0.442   0.428  0.00  0.00    +0.006 C 
ATOM     10  C   UNL     1      -1.006   1.417   1.367  0.00  0.00    +0.113 C 
ATOM     11  C   UNL     1      -3.021   1.421  -0.754  0.00  0.00    +0.023 C 
ATOM     13  C   UNL     1      -2.215   2.662  -0.376  0.00  0.00    +0.109 C 
ATOM     17  C   UNL     1       0.261   2.745  -0.428  0.00  0.00    +0.302 C 
ATOM     28  H   UNL     1       1.443   1.610   0.873  0.00  0.00    +0.151 HD
ENDROOT
BRANCH   7  16
ATOM     16  C   UNL     1       2.742   2.714  -0.355  0.00  0.00    +0.074 C 
ATOM     18  C   UNL     1       3.769   2.843   0.774  0.00  0.00    +0.022 C 
ATOM     19  C   UNL     1       3.221   1.735  -1.433  0.00  0.00    +0.022 C 
ATOM     20  C   UNL     1       4.178   1.488   1.351  0.00  0.00    +0.002 C 
ATOM     21  C   UNL     1       3.631   0.382  -0.853  0.00  0.00    +0.002 C 
ATOM     22  C   UNL     1       4.662   0.535   0.261  0.00  0.00    +0.000 C 
ENDBRANCH   7  16
BRANCH   8  12
ATOM     12  C   UNL     1      -0.881  -0.796   0.163  0.00  0.00    +0.020 C 
BRANCH  12  15
ATOM     15  C   UNL     1       0.119  -1.573   1.007  0.00  0.00    +0.085 C 
BRANCH  15   6
ATOM      2  O   UNL     1       2.367  -4.817  -0.422  0.00  0.00    -0.377 OA
ATOM      6  N   UNL     1       0.947  -2.416   0.147  0.00  0.00    -0.298 NA
ATOM     24  C   UNL     1       0.245  -3.661  -0.195  0.00  0.00    +0.112 C 
ATOM     25  C   UNL     1       2.229  -2.723   0.796  0.00  0.00    +0.112 C 
ATOM     26  C   UNL     1       1.133  -4.529  -1.082  0.00  0.00    +0.175 C 
ATOM     27  C   UNL     1       3.070  -3.612  -0.115  0.00  0.00    +0.175 C 
ENDBRANCH  15   6
ENDBRANCH  12  15
ENDBRANCH   8  12
BRANCH   9  14
ATOM     14  C   UNL     1      -3.927  -0.802   0.021  0.00  0.00    +0.124 C 
BRANCH  14  23
ATOM      4  O   UNL     1      -5.955   0.539   0.186  0.00  0.00    -0.251 OA
ATOM     23  C   UNL     1      -5.404  -0.526  -0.043  0.00  0.00    +0.305 C 
BRANCH  23   3
ATOM      3  O   UNL     1      -6.065  -1.657  -0.402  0.00  0.00    -0.481 OA
ATOM     29  H   UNL     1      -7.034  -1.513  -0.454  0.00  0.00    +0.295 HD
ENDBRANCH  23   3
ENDBRANCH  14  23
ENDBRANCH   9  14
TORSDOF 7
