REMARK  Name = 11884204
REMARK  1 active torsions:
REMARK  status: ('A' for Active; 'I' for Inactive)
REMARK    1  A    between atoms: C_8  and  C_15
REMARK                            x       y       z     vdW  Elec       q    Type
REMARK                         _______ _______ _______ _____ _____    ______ ____
ROOT
ATOM      1 BR   UNL     1       7.446   1.040  -0.499  0.00  0.00    -0.050 Br
ATOM      2  O   UNL     1      -3.303  -1.374  -1.664  0.00  0.00    -0.275 OA
ATOM      3  O   UNL     1      -0.116  -2.131   0.588  0.00  0.00    -0.273 OA
ATOM      4  O   UNL     1       2.462   2.483   0.677  0.00  0.00    -0.270 OA
ATOM      5  N   UNL     1      -1.772   0.045  -0.632  0.00  0.00    -0.298 N 
ATOM      6  N   UNL     1       0.941   0.916  -0.087  0.00  0.00    -0.283 N 
ATOM      7  N   UNL     1       2.114  -1.685   0.696  0.00  0.00    -0.283 N 
ATOM     11  C   UNL     1       0.696  -0.330  -0.799  0.00  0.00    +0.180 C 
ATOM     12  C   UNL     1      -0.665  -0.350  -1.505  0.00  0.00    +0.139 C 
ATOM     15  C   UNL     1      -3.033  -0.531  -0.813  0.00  0.00    +0.219 C 
ATOM     17  C   UNL     1      -1.482   1.050   0.394  0.00  0.00    +0.127 C 
ATOM     18  C   UNL     1      -0.198   1.815   0.108  0.00  0.00    +0.128 C 
ATOM     19  C   UNL     1       0.839  -1.434   0.236  0.00  0.00    +0.239 C 
ATOM     20  C   UNL     1       2.219   1.353   0.250  0.00  0.00    +0.249 C 
ATOM     21  C   UNL     1       3.360   0.408   0.121  0.00  0.00    +0.059 A 
ATOM     22  C   UNL     1       3.294  -0.960   0.432  0.00  0.00    +0.046 A 
ATOM     23  C   UNL     1       4.610   0.991  -0.161  0.00  0.00    +0.030 A 
ATOM     24  C   UNL     1       4.489  -1.695   0.523  0.00  0.00    +0.025 A 
ATOM     25  C   UNL     1       5.780   0.235  -0.114  0.00  0.00    +0.019 A 
ATOM     26  C   UNL     1       5.721  -1.105   0.242  0.00  0.00    +0.017 A 
ATOM     27  H   UNL     1       2.230  -2.555   1.209  0.00  0.00    +0.155 HD
ENDROOT
BRANCH  15   8
ATOM      8  C   UNL     1      -4.133  -0.065   0.094  0.00  0.00    +0.075 C 
ATOM      9  C   UNL     1      -4.818   1.165  -0.505  0.00  0.00    +0.013 C 
ATOM     10  C   UNL     1      -5.130  -1.201   0.331  0.00  0.00    +0.013 C 
ATOM     13  C   UNL     1      -6.005   1.618   0.341  0.00  0.00    +0.001 C 
ATOM     14  C   UNL     1      -6.318  -0.743   1.174  0.00  0.00    +0.001 C 
ATOM     16  C   UNL     1      -6.998   0.482   0.571  0.00  0.00    +0.000 C 
ENDBRANCH  15   8
TORSDOF 1
