REMARK  Name = 11881998
REMARK  12 active torsions:
REMARK  status: ('A' for Active; 'I' for Inactive)
REMARK    1  A    between atoms: S_1  and  C_21
REMARK    2  A    between atoms: S_1  and  C_25
REMARK    3  A    between atoms: O_2  and  C_12
REMARK    4  A    between atoms: O_3  and  C_14
REMARK    5  A    between atoms: N_9  and  C_13
REMARK    6  A    between atoms: N_10  and  C_19
REMARK    7  A    between atoms: C_16  and  C_18
REMARK    8  A    between atoms: C_19  and  C_20
REMARK    9  A    between atoms: C_19  and  C_23
REMARK   10  A    between atoms: C_20  and  C_21
REMARK   11  A    between atoms: C_22  and  C_24
REMARK   12  A    between atoms: C_30  and  C_31
REMARK                            x       y       z     vdW  Elec       q    Type
REMARK                         _______ _______ _______ _____ _____    ______ ____
ROOT
ATOM     12  C   UNL     1      -1.411   3.208   0.099  0.00  0.00    +0.167 C 
ATOM     13  C   UNL     1      -1.073   1.794  -0.412  0.00  0.00    +0.128 C 
ATOM     14  C   UNL     1      -0.185   4.129   0.056  0.00  0.00    +0.149 C 
ATOM     15  C   UNL     1       1.003   3.549   0.843  0.00  0.00    +0.074 C 
ATOM     16  C   UNL     1       1.148   2.061   0.692  0.00  0.00    +0.015 C 
ATOM     17  C   UNL     1       0.230   1.264   0.124  0.00  0.00    +0.006 C 
ENDROOT
BRANCH  16  18
ATOM      4  O   UNL     1       2.703   1.503   2.362  0.00  0.00    -0.271 OA
ATOM     10  N   UNL     1       3.093   0.798   0.174  0.00  0.00    -0.300 N 
ATOM     18  C   UNL     1       2.381   1.435   1.176  0.00  0.00    +0.241 C 
ATOM     33  H   UNL     1       2.731   0.809  -0.776  0.00  0.00    +0.150 HD
BRANCH  10  19
ATOM     19  C   UNL     1       4.343   0.111   0.408  0.00  0.00    +0.160 C 
BRANCH  19  23
ATOM      8  O   UNL     1       4.801   0.822  -1.870  0.00  0.00    -0.274 OA
ATOM     11  N   UNL     1       6.475  -0.213  -0.686  0.00  0.00    -0.328 N 
ATOM     23  C   UNL     1       5.195   0.274  -0.843  0.00  0.00    +0.231 C 
ATOM     36  H   UNL     1       7.149  -0.157  -1.443  0.00  0.00    +0.145 HD
ATOM     37  H   UNL     1       6.803  -0.625   0.182  0.00  0.00    +0.145 HD
ENDBRANCH  19  23
BRANCH  19  20
ATOM     20  C   UNL     1       4.133  -1.371   0.725  0.00  0.00    +0.054 C 
BRANCH  20  21
ATOM     21  C   UNL     1       3.398  -2.104  -0.390  0.00  0.00    +0.168 C 
BRANCH  21   1
ATOM      1  S   UNL     1       3.147  -3.803   0.017  0.00  0.00    -0.034 S 
ATOM      6  O   UNL     1       4.448  -4.442   0.121  0.00  0.00    -0.175 OA
ATOM      7  O   UNL     1       2.198  -3.873   1.115  0.00  0.00    -0.175 OA
ATOM     25  C   UNL     1       2.343  -4.457  -1.429  0.00  0.00    +0.194 C 
ENDBRANCH  21   1
ENDBRANCH  20  21
ENDBRANCH  19  20
ENDBRANCH  10  19
ENDBRANCH  16  18
BRANCH  13   9
ATOM      5  O   UNL     1      -3.360   1.184  -2.036  0.00  0.00    -0.270 OA
ATOM      9  N   UNL     1      -2.121   0.853  -0.104  0.00  0.00    -0.302 N 
ATOM     22  C   UNL     1      -3.192   0.624  -0.956  0.00  0.00    +0.245 C 
ATOM     32  H   UNL     1      -2.102   0.425   0.817  0.00  0.00    +0.150 HD
BRANCH  22  24
ATOM     24  C   UNL     1      -4.202  -0.357  -0.482  0.00  0.00    +0.037 A 
ATOM     26  C   UNL     1      -5.523  -0.264  -0.918  0.00  0.00    +0.013 A 
ATOM     27  C   UNL     1      -3.828  -1.372   0.400  0.00  0.00    +0.013 A 
ATOM     28  C   UNL     1      -6.471  -1.185  -0.474  0.00  0.00    +0.004 A 
ATOM     29  C   UNL     1      -4.777  -2.293   0.845  0.00  0.00    +0.004 A 
ATOM     30  C   UNL     1      -6.098  -2.200   0.408  0.00  0.00    -0.050 A 
ATOM     31  C   UNL     1      -7.112  -3.185   0.882  0.00  0.00    +0.044 C 
ENDBRANCH  22  24
ENDBRANCH  13   9
BRANCH  12   2
ATOM      2  O   UNL     1      -1.882   3.132   1.446  0.00  0.00    -0.387 OA
ATOM     34  H   UNL     1      -2.113   4.034   1.726  0.00  0.00    +0.210 HD
ENDBRANCH  12   2
BRANCH  14   3
ATOM      3  O   UNL     1       0.197   4.376  -1.296  0.00  0.00    -0.389 OA
ATOM     35  H   UNL     1       0.946   4.996  -1.281  0.00  0.00    +0.210 HD
ENDBRANCH  14   3
TORSDOF 10
