REMARK  Name = 11884016
REMARK  14 active torsions:
REMARK  status: ('A' for Active; 'I' for Inactive)
REMARK    1  A    between atoms: S_1  and  N_12
REMARK    2  A    between atoms: S_1  and  C_20
REMARK    3  A    between atoms: O_4  and  C_17
REMARK    4  A    between atoms: O_4  and  C_21
REMARK    5  A    between atoms: O_8  and  C_22
REMARK    6  A    between atoms: O_8  and  C_30
REMARK    7  A    between atoms: O_9  and  C_24
REMARK    8  A    between atoms: O_9  and  C_33
REMARK    9  A    between atoms: O_10  and  C_35
REMARK   10  A    between atoms: O_10  and  C_36
REMARK   11  A    between atoms: N_12  and  C_16
REMARK   12  A    between atoms: N_13  and  C_26
REMARK   13  A    between atoms: C_31  and  C_35
REMARK   14  A    between atoms: C_36  and  C_37
REMARK                            x       y       z     vdW  Elec       q    Type
REMARK                         _______ _______ _______ _____ _____    ______ ____
ROOT
ATOM      2  O   UNL     1       0.391   0.893  -1.260  0.00  0.00    -0.369 OA
ATOM      3  O   UNL     1       1.939   1.241   1.375  0.00  0.00    -0.368 OA
ATOM     14  C   UNL     1       2.055   0.271   0.313  0.00  0.00    +0.171 C 
ATOM     15  C   UNL     1       0.649  -0.015  -0.176  0.00  0.00    +0.191 C 
ATOM     16  C   UNL     1       2.737   0.894  -0.880  0.00  0.00    +0.133 C 
ATOM     17  C   UNL     1      -0.192   0.306   1.035  0.00  0.00    +0.235 C 
ATOM     18  C   UNL     1       1.597   1.600  -1.589  0.00  0.00    +0.183 C 
ATOM     19  C   UNL     1       0.548   1.480   1.635  0.00  0.00    +0.207 C 
ENDROOT
BRANCH  16  12
ATOM     12  N   UNL     1       3.292  -0.165  -1.756  0.00  0.00    -0.182 NA
ATOM     38  H   UNL     1       2.735  -1.018  -1.886  0.00  0.00    +0.148 HD
BRANCH  12   1
ATOM      1  S   UNL     1       4.936  -0.133  -2.180  0.00  0.00    +0.062 S 
ATOM      5  O   UNL     1       5.260   1.155  -2.762  0.00  0.00    -0.153 OA
ATOM      6  O   UNL     1       5.258  -1.356  -2.890  0.00  0.00    -0.153 OA
BRANCH   1  20
ATOM     20  C   UNL     1       5.723  -0.232  -0.600  0.00  0.00    +0.150 A 
ATOM     22  C   UNL     1       5.678  -1.407   0.150  0.00  0.00    +0.147 A 
ATOM     23  C   UNL     1       6.395   0.886  -0.106  0.00  0.00    +0.077 A 
ATOM     24  C   UNL     1       7.022   0.829   1.138  0.00  0.00    +0.122 A 
ATOM     25  C   UNL     1       6.305  -1.464   1.394  0.00  0.00    +0.051 A 
ATOM     27  C   UNL     1       6.978  -0.346   1.889  0.00  0.00    +0.049 A 
BRANCH  22   8
ATOM      8  O   UNL     1       5.027  -2.510  -0.313  0.00  0.00    -0.493 OA
ATOM     30  C   UNL     1       5.035  -3.666   0.523  0.00  0.00    +0.277 C 
ENDBRANCH  22   8
BRANCH  24   9
ATOM      9  O   UNL     1       7.679   1.919   1.621  0.00  0.00    -0.495 OA
ATOM     33  C   UNL     1       7.686   3.087   0.802  0.00  0.00    +0.277 C 
ENDBRANCH  24   9
ENDBRANCH   1  20
ENDBRANCH  12   1
ENDBRANCH  16  12
BRANCH  17   4
ATOM      4  O   UNL     1      -1.529   0.625   0.724  0.00  0.00    -0.442 OA
BRANCH   4  21
ATOM      7  O   UNL     1      -2.126  -1.562   1.024  0.00  0.00    -0.226 OA
ATOM     13  N   UNL     1      -3.694   0.069   0.422  0.00  0.00    -0.251 N 
ATOM     21  C   UNL     1      -2.440  -0.411   0.748  0.00  0.00    +0.405 C 
ATOM     39  H   UNL     1      -3.757   1.064   0.224  0.00  0.00    +0.158 HD
BRANCH  13  26
ATOM     26  C   UNL     1      -4.905  -0.654   0.331  0.00  0.00    +0.037 A 
ATOM     28  C   UNL     1      -6.086   0.003  -0.014  0.00  0.00    +0.038 A 
ATOM     29  C   UNL     1      -4.920  -2.026   0.586  0.00  0.00    +0.023 A 
ATOM     31  C   UNL     1      -7.281  -0.710  -0.103  0.00  0.00    +0.061 A 
ATOM     32  C   UNL     1      -6.115  -2.739   0.496  0.00  0.00    +0.003 A 
ATOM     34  C   UNL     1      -7.295  -2.082   0.152  0.00  0.00    +0.015 A 
BRANCH  31  35
ATOM     11  O   UNL     1      -9.455  -0.552  -1.069  0.00  0.00    -0.245 OA
ATOM     35  C   UNL     1      -8.513  -0.026  -0.463  0.00  0.00    +0.339 C 
BRANCH  35  10
ATOM     10  O   UNL     1      -8.504   1.278  -0.047  0.00  0.00    -0.461 OA
BRANCH  10  36
ATOM     36  C   UNL     1      -9.667   2.059  -0.342  0.00  0.00    +0.229 C 
ATOM     37  C   UNL     1      -9.468   3.461   0.194  0.00  0.00    +0.048 C 
ENDBRANCH  10  36
ENDBRANCH  35  10
ENDBRANCH  31  35
ENDBRANCH  13  26
ENDBRANCH   4  21
ENDBRANCH  17   4
TORSDOF 11
