REMARK  Name = 45783658
REMARK  4 active torsions:
REMARK  status: ('A' for Active; 'I' for Inactive)
REMARK    1  A    between atoms: N_2  and  C_8
REMARK    2  A    between atoms: N_6  and  C_24
REMARK    3  A    between atoms: C_9  and  C_18
REMARK    4  A    between atoms: C_19  and  C_20
REMARK                            x       y       z     vdW  Elec       q    Type
REMARK                         _______ _______ _______ _____ _____    ______ ____
ROOT
ATOM      1  O   UNL     1      -1.594  -2.050   1.629  0.00  0.00    -0.336 OA
ATOM      3  N   UNL     1      -0.929  -0.878  -0.159  0.00  0.00    -0.190 NA
ATOM      4  N   UNL     1      -0.212  -1.873   1.772  0.00  0.00    -0.056 NA
ATOM     18  C   UNL     1      -1.935  -1.435   0.467  0.00  0.00    +0.245 A 
ATOM     19  C   UNL     1       0.106  -1.173   0.679  0.00  0.00    +0.204 A 
ENDROOT
BRANCH  19  20
ATOM      5  N   UNL     1       3.775  -0.696   1.050  0.00  0.00    -0.237 NA
ATOM     20  C   UNL     1       1.449  -0.755   0.395  0.00  0.00    +0.041 A 
ATOM     21  C   UNL     1       1.746  -0.029  -0.753  0.00  0.00    +0.017 A 
ATOM     22  C   UNL     1       2.490  -1.061   1.257  0.00  0.00    +0.124 A 
ATOM     23  C   UNL     1       3.057   0.364  -1.001  0.00  0.00    +0.047 A 
ATOM     24  C   UNL     1       4.026   0.008  -0.076  0.00  0.00    +0.139 A 
BRANCH  24   6
ATOM      6  N   UNL     1       5.334   0.398  -0.319  0.00  0.00    -0.290 N 
ATOM      7  N   UNL     1       7.521   0.640  -0.024  0.00  0.00    -0.244 NA
ATOM     25  C   UNL     1       5.780   1.110  -1.396  0.00  0.00    +0.114 A 
ATOM     26  C   UNL     1       6.415   0.138   0.477  0.00  0.00    +0.205 A 
ATOM     27  C   UNL     1       7.133   1.248  -1.191  0.00  0.00    +0.130 A 
ENDBRANCH  24   6
ENDBRANCH  19  20
BRANCH  18   9
ATOM      2  N   UNL     1      -3.803  -0.337  -0.756  0.00  0.00    -0.288 NA
ATOM      9  C   UNL     1      -3.398  -1.484   0.081  0.00  0.00    +0.146 C 
ATOM     12  C   UNL     1      -4.898  -0.810  -1.604  0.00  0.00    +0.085 C 
ATOM     13  C   UNL     1      -3.749  -2.725  -0.761  0.00  0.00    +0.030 C 
ATOM     14  C   UNL     1      -4.401  -2.179  -2.023  0.00  0.00    +0.017 C 
BRANCH   2   8
ATOM      8  C   UNL     1      -4.180   0.840   0.023  0.00  0.00    +0.057 C 
ATOM     10  C   UNL     1      -2.999   1.291   0.890  0.00  0.00    +0.019 C 
ATOM     11  C   UNL     1      -4.637   1.962  -0.915  0.00  0.00    +0.019 C 
ATOM     15  C   UNL     1      -3.331   2.566   1.663  0.00  0.00    +0.002 C 
ATOM     16  C   UNL     1      -4.967   3.237  -0.140  0.00  0.00    +0.002 C 
ATOM     17  C   UNL     1      -3.798   3.683   0.734  0.00  0.00    +0.000 C 
ENDBRANCH   2   8
ENDBRANCH  18   9
TORSDOF 4
