REMARK  Name = 45361457
REMARK  11 active torsions:
REMARK  status: ('A' for Active; 'I' for Inactive)
REMARK    1  A    between atoms: O_1  and  C_9
REMARK    2  A    between atoms: N_4  and  C_13
REMARK    3  A    between atoms: N_5  and  C_28
REMARK    4  A    between atoms: C_6  and  C_16
REMARK    5  A    between atoms: C_8  and  C_18
REMARK    6  A    between atoms: C_12  and  C_17
REMARK    7  A    between atoms: C_17  and  C_19
REMARK    8  A    between atoms: C_17  and  C_20
REMARK    9  A    between atoms: C_21  and  C_22
REMARK   10  A    between atoms: C_28  and  C_29
REMARK   11  A    between atoms: C_28  and  C_30
REMARK                            x       y       z     vdW  Elec       q    Type
REMARK                         _______ _______ _______ _____ _____    ______ ____
ROOT
ATOM      6  C   UNL     1      -0.610   1.787   0.231  0.00  0.00    -0.027 C 
ATOM      7  C   UNL     1      -0.416   0.280  -0.143  0.00  0.00    +0.028 C 
ATOM      8  C   UNL     1       1.001   0.039  -0.776  0.00  0.00    +0.012 C 
ATOM      9  C   UNL     1      -1.619  -0.254  -0.973  0.00  0.00    +0.122 C 
ATOM     10  C   UNL     1      -1.966   1.970   0.953  0.00  0.00    +0.007 C 
ATOM     11  C   UNL     1       0.507   2.211   1.213  0.00  0.00    +0.009 C 
ATOM     12  C   UNL     1      -2.980   0.024  -0.294  0.00  0.00    +0.029 C 
ATOM     13  C   UNL     1       2.114   0.537   0.189  0.00  0.00    +0.076 C 
ATOM     14  C   UNL     1      -3.149   1.484   0.127  0.00  0.00    +0.007 C 
ATOM     15  C   UNL     1       1.907   1.975   0.663  0.00  0.00    +0.023 C 
ATOM     16  C   UNL     1      -0.578   2.716  -1.010  0.00  0.00    +0.011 C 
ATOM     18  C   UNL     1       1.270  -1.431  -1.142  0.00  0.00    +0.010 C 
ENDROOT
BRANCH  13   4
ATOM      3  O   UNL     1       4.632   0.015   1.535  0.00  0.00    -0.276 OA
ATOM      4  N   UNL     1       3.428   0.437  -0.411  0.00  0.00    -0.312 N 
ATOM     21  C   UNL     1       4.574   0.184   0.320  0.00  0.00    +0.216 C 
ATOM     31  H   UNL     1       3.504   0.613  -1.409  0.00  0.00    +0.149 HD
BRANCH  21  22
ATOM     22  C   UNL     1       5.795   0.106  -0.550  0.00  0.00    +0.075 C 
ATOM     23  C   UNL     1       7.037   0.592   0.201  0.00  0.00    +0.013 C 
ATOM     24  C   UNL     1       5.956  -1.310  -1.107  0.00  0.00    +0.013 C 
ATOM     25  C   UNL     1       7.574  -0.424   1.208  0.00  0.00    +0.001 C 
ATOM     26  C   UNL     1       6.490  -2.301  -0.074  0.00  0.00    +0.001 C 
ATOM     27  C   UNL     1       7.772  -1.798   0.579  0.00  0.00    +0.000 C 
ENDBRANCH  21  22
ENDBRANCH  13   4
BRANCH   9   1
ATOM      1  O   UNL     1      -1.512  -1.672  -1.109  0.00  0.00    -0.391 OA
ATOM     32  H   UNL     1      -1.519  -2.062  -0.218  0.00  0.00    +0.210 HD
ENDBRANCH   9   1
BRANCH  12  17
ATOM     17  C   UNL     1      -4.156  -0.392  -1.186  0.00  0.00    +0.077 C 
ATOM     19  C   UNL     1      -4.109   0.372  -2.506  0.00  0.00    +0.017 C 
BRANCH  17  20
ATOM      2  O   UNL     1      -6.104   0.895  -0.543  0.00  0.00    -0.276 OA
ATOM      5  N   UNL     1      -5.860  -1.248   0.309  0.00  0.00    -0.313 N 
ATOM     20  C   UNL     1      -5.473  -0.156  -0.454  0.00  0.00    +0.216 C 
ATOM     33  H   UNL     1      -5.238  -2.049   0.377  0.00  0.00    +0.149 HD
BRANCH   5  28
ATOM     28  C   UNL     1      -7.072  -1.262   1.095  0.00  0.00    +0.067 C 
ATOM     29  C   UNL     1      -6.808  -0.702   2.487  0.00  0.00    +0.027 C 
ATOM     30  C   UNL     1      -7.646  -2.672   1.167  0.00  0.00    +0.027 C 
ENDBRANCH   5  28
ENDBRANCH  17  20
ENDBRANCH  12  17
TORSDOF 6
