REMARK  Name = 75536720
REMARK  9 active torsions:
REMARK  status: ('A' for Active; 'I' for Inactive)
REMARK    1  A    between atoms: O_2  and  C_8
REMARK    2  A    between atoms: N_4  and  C_7
REMARK    3  A    between atoms: N_4  and  C_12
REMARK    4  A    between atoms: N_4  and  C_13
REMARK    5  A    between atoms: N_5  and  C_11
REMARK    6  A    between atoms: N_6  and  C_15
REMARK    7  A    between atoms: C_9  and  C_11
REMARK    8  A    between atoms: C_15  and  C_16
REMARK    9  A    between atoms: C_15  and  C_17
REMARK                            x       y       z     vdW  Elec       q    Type
REMARK                         _______ _______ _______ _____ _____    ______ ____
ROOT
ATOM      1  O   UNL     1      -1.019   1.325  -0.377  0.00  0.00    -0.371 OA
ATOM      7  C   UNL     1      -3.056   0.327   0.328  0.00  0.00    +0.113 C 
ATOM      8  C   UNL     1      -2.152  -0.747  -0.249  0.00  0.00    +0.164 C 
ATOM      9  C   UNL     1      -0.790  -0.074  -0.140  0.00  0.00    +0.165 C 
ATOM     10  C   UNL     1      -2.426   1.588  -0.242  0.00  0.00    +0.181 C 
ENDROOT
BRANCH   7   4
ATOM      4  N   UNL     1      -4.453   0.175  -0.042  0.00  0.00    -0.301 NA
ATOM     12  C   UNL     1      -4.997  -1.082   0.481  0.00  0.00    +0.105 C 
ATOM     13  C   UNL     1      -5.247   1.307   0.443  0.00  0.00    +0.105 C 
ENDBRANCH   7   4
BRANCH   8   2
ATOM      2  O   UNL     1      -2.204  -1.955   0.484  0.00  0.00    -0.388 OA
ATOM     18  H   UNL     1      -1.986  -1.759   1.411  0.00  0.00    +0.210 HD
ENDBRANCH   8   2
BRANCH   9  11
ATOM     11  C   UNL     1       0.223  -0.605  -1.139  0.00  0.00    +0.140 C 
BRANCH  11   5
ATOM      3  O   UNL     1       2.426  -1.390   0.552  0.00  0.00    -0.253 OA
ATOM      5  N   UNL     1       1.487   0.059  -1.002  0.00  0.00    -0.297 N 
ATOM      6  N   UNL     1       3.624   0.442  -0.218  0.00  0.00    -0.297 N 
ATOM     14  C   UNL     1       2.507  -0.388  -0.157  0.00  0.00    +0.300 C 
ATOM     19  H   UNL     1       1.643   0.907  -1.538  0.00  0.00    +0.150 HD
ATOM     20  H   UNL     1       3.623   1.203  -0.891  0.00  0.00    +0.150 HD
BRANCH   6  15
ATOM     15  C   UNL     1       4.818   0.205   0.558  0.00  0.00    +0.068 C 
ATOM     16  C   UNL     1       5.773  -0.712  -0.196  0.00  0.00    +0.027 C 
ATOM     17  C   UNL     1       5.488   1.525   0.915  0.00  0.00    +0.027 C 
ENDBRANCH   6  15
ENDBRANCH  11   5
ENDBRANCH   9  11
TORSDOF 5
