REMARK  Name = 7663767
REMARK  5 active torsions:
REMARK  status: ('A' for Active; 'I' for Inactive)
REMARK    1  A    between atoms: O_4  and  C_23
REMARK    2  A    between atoms: O_4  and  C_31
REMARK    3  A    between atoms: N_7  and  C_21
REMARK    4  A    between atoms: C_18  and  C_20
REMARK    5  A    between atoms: C_22  and  C_25
REMARK                            x       y       z     vdW  Elec       q    Type
REMARK                         _______ _______ _______ _____ _____    ______ ____
ROOT
ATOM      2  O   UNL     1      -0.530   2.593  -1.720  0.00  0.00    -0.267 OA
ATOM      3  O   UNL     1       3.560  -0.664  -2.211  0.00  0.00    -0.252 OA
ATOM      5  N   UNL     1       3.900   0.686  -0.363  0.00  0.00    -0.284 N 
ATOM      6  N   UNL     1       1.241   2.452  -0.210  0.00  0.00    -0.311 N 
ATOM      7  N   UNL     1       3.152  -1.537  -0.102  0.00  0.00    -0.266 N 
ATOM      8  C   UNL     1       3.631   3.128  -0.830  0.00  0.00    +0.027 C 
ATOM      9  C   UNL     1       3.154   2.260   1.418  0.00  0.00    +0.054 C 
ATOM     10  C   UNL     1       3.787   3.421   0.656  0.00  0.00    +0.018 C 
ATOM     11  C   UNL     1       4.338   1.811  -1.193  0.00  0.00    +0.114 C 
ATOM     12  C   UNL     1       2.139   3.096  -1.179  0.00  0.00    +0.130 C 
ATOM     13  C   UNL     1       3.897   0.949   1.088  0.00  0.00    +0.119 C 
ATOM     14  C   UNL     1       1.683   2.116   1.071  0.00  0.00    +0.027 A 
ATOM     15  C   UNL     1       0.817   1.637   1.977  0.00  0.00    +0.022 A 
ATOM     16  C   UNL     1      -0.103   2.290  -0.604  0.00  0.00    +0.259 A 
ATOM     17  C   UNL     1       3.529  -0.527  -0.985  0.00  0.00    +0.307 C 
ATOM     18  C   UNL     1      -1.045   1.724   0.425  0.00  0.00    +0.040 A 
ATOM     19  C   UNL     1      -0.565   1.440   1.644  0.00  0.00    +0.015 A 
ATOM     35  H   UNL     1       3.551  -1.535   0.830  0.00  0.00    +0.156 HD
ENDROOT
BRANCH   7  21
ATOM     21  C   UNL     1       2.296  -2.634  -0.370  0.00  0.00    +0.077 A 
ATOM     23  C   UNL     1       2.086  -3.619   0.592  0.00  0.00    +0.141 A 
ATOM     24  C   UNL     1       1.664  -2.715  -1.609  0.00  0.00    +0.027 A 
ATOM     26  C   UNL     1       1.239  -4.692   0.313  0.00  0.00    +0.047 A 
ATOM     27  C   UNL     1       0.817  -3.788  -1.887  0.00  0.00    +0.002 A 
ATOM     28  C   UNL     1       0.605  -4.777  -0.926  0.00  0.00    +0.004 A 
BRANCH  23   4
ATOM      4  O   UNL     1       2.697  -3.555   1.808  0.00  0.00    -0.493 OA
ATOM     31  C   UNL     1       2.003  -2.866   2.846  0.00  0.00    +0.277 C 
ENDBRANCH  23   4
ENDBRANCH   7  21
BRANCH  18  20
ATOM     20  C   UNL     1      -2.432   1.512   0.093  0.00  0.00    +0.014 C 
ATOM     22  C   UNL     1      -3.172   0.544   0.646  0.00  0.00    +0.008 C 
BRANCH  22  25
ATOM      1 CL   UNL     1      -8.904  -0.513  -0.623  0.00  0.00    -0.084 Cl
ATOM     25  C   UNL     1      -4.588   0.283   0.332  0.00  0.00    -0.025 A 
ATOM     29  C   UNL     1      -5.349   1.282  -0.253  0.00  0.00    +0.009 A 
ATOM     30  C   UNL     1      -5.131  -0.957   0.629  0.00  0.00    +0.009 A 
ATOM     32  C   UNL     1      -6.689   1.035  -0.549  0.00  0.00    +0.020 A 
ATOM     33  C   UNL     1      -6.471  -1.204   0.332  0.00  0.00    +0.020 A 
ATOM     34  C   UNL     1      -7.250  -0.208  -0.257  0.00  0.00    +0.041 A 
ENDBRANCH  22  25
ENDBRANCH  18  20
TORSDOF 4
