REMARK  Name = 51137721
REMARK  4 active torsions:
REMARK  status: ('A' for Active; 'I' for Inactive)
REMARK    1  A    between atoms: N_4  and  C_13
REMARK    2  A    between atoms: C_7  and  C_11
REMARK    3  A    between atoms: C_13  and  C_15
REMARK    4  A    between atoms: C_14  and  C_16
REMARK                            x       y       z     vdW  Elec       q    Type
REMARK                         _______ _______ _______ _____ _____    ______ ____
ROOT
ATOM      2  O   UNL     1       1.192  -1.684   1.666  0.00  0.00    -0.253 OA
ATOM      3  N   UNL     1      -0.468  -1.681   0.066  0.00  0.00    -0.285 N 
ATOM      4  N   UNL     1       1.786  -1.588  -0.560  0.00  0.00    -0.295 N 
ATOM      7  C   UNL     1      -2.824  -1.391   0.210  0.00  0.00    +0.095 C 
ATOM      8  C   UNL     1      -2.460  -1.926  -1.183  0.00  0.00    +0.033 C 
ATOM      9  C   UNL     1      -1.569  -1.737   1.021  0.00  0.00    +0.122 C 
ATOM     10  C   UNL     1      -0.966  -1.650  -1.307  0.00  0.00    +0.110 C 
ATOM     12  C   UNL     1       0.862  -1.655   0.477  0.00  0.00    +0.302 C 
ATOM     22  H   UNL     1       1.467  -1.517  -1.520  0.00  0.00    +0.151 HD
ENDROOT
BRANCH   7  11
ATOM      1  O   UNL     1      -4.537   0.347  -0.050  0.00  0.00    -0.425 OA
ATOM      5  N   UNL     1      -2.476   1.147   0.292  0.00  0.00    -0.112 NA
ATOM      6  N   UNL     1      -3.336   2.222   0.164  0.00  0.00    -0.113 NA
ATOM     11  C   UNL     1      -3.221   0.074   0.160  0.00  0.00    +0.222 A 
ATOM     14  C   UNL     1      -4.527   1.708  -0.034  0.00  0.00    +0.214 A 
ATOM     16  C   UNL     1      -5.816   2.384  -0.233  0.00  0.00    +0.111 C 
ENDBRANCH   7  11
BRANCH   4  13
ATOM     13  C   UNL     1       3.211  -1.549  -0.327  0.00  0.00    +0.141 C 
BRANCH  13  15
ATOM     15  C   UNL     1       3.719  -0.143  -0.189  0.00  0.00    -0.030 A 
ATOM     17  C   UNL     1       4.149   0.557  -1.316  0.00  0.00    +0.005 A 
ATOM     18  C   UNL     1       3.761   0.463   1.067  0.00  0.00    +0.005 A 
ATOM     19  C   UNL     1       4.621   1.864  -1.187  0.00  0.00    +0.000 A 
ATOM     20  C   UNL     1       4.234   1.769   1.196  0.00  0.00    +0.000 A 
ATOM     21  C   UNL     1       4.663   2.469   0.069  0.00  0.00    +0.000 A 
ENDBRANCH  13  15
ENDBRANCH   4  13
TORSDOF 3
