REMARK  Name = 45361325
REMARK  10 active torsions:
REMARK  status: ('A' for Active; 'I' for Inactive)
REMARK    1  A    between atoms: O_2  and  C_10
REMARK    2  A    between atoms: N_6  and  C_28
REMARK    3  A    between atoms: N_6  and  C_29
REMARK    4  A    between atoms: C_8  and  C_16
REMARK    5  A    between atoms: C_11  and  C_17
REMARK    6  A    between atoms: C_13  and  C_20
REMARK    7  A    between atoms: C_17  and  C_21
REMARK    8  A    between atoms: C_17  and  C_22
REMARK    9  A    between atoms: C_24  and  C_27
REMARK   10  A    between atoms: C_28  and  C_30
REMARK                            x       y       z     vdW  Elec       q    Type
REMARK                         _______ _______ _______ _____ _____    ______ ____
ROOT
ATOM      1  S   UNL     1       3.787   1.803   1.052  0.00  0.00    -0.057 S 
ATOM      4  O   UNL     1       6.131  -1.690  -1.026  0.00  0.00    -0.275 OA
ATOM      5  N   UNL     1       3.498  -0.352  -0.347  0.00  0.00    -0.229 NA
ATOM      7  N   UNL     1       5.753   0.282   0.217  0.00  0.00    -0.264 N 
ATOM      8  C   UNL     1      -0.206   1.692   0.072  0.00  0.00    -0.022 C 
ATOM      9  C   UNL     1      -0.308   0.118  -0.016  0.00  0.00    +0.033 C 
ATOM     10  C   UNL     1      -1.617  -0.326  -0.729  0.00  0.00    +0.123 C 
ATOM     11  C   UNL     1      -2.879   0.326  -0.122  0.00  0.00    +0.029 C 
ATOM     12  C   UNL     1      -1.494   2.263   0.709  0.00  0.00    +0.008 C 
ATOM     13  C   UNL     1       0.998  -0.527  -0.637  0.00  0.00    +0.042 C 
ATOM     14  C   UNL     1      -2.761   1.847  -0.026  0.00  0.00    +0.007 C 
ATOM     15  C   UNL     1       0.988   2.092   0.994  0.00  0.00    +0.051 C 
ATOM     16  C   UNL     1      -0.003   2.340  -1.322  0.00  0.00    +0.012 C 
ATOM     18  C   UNL     1       2.233   0.150  -0.093  0.00  0.00    +0.057 A 
ATOM     19  C   UNL     1       2.209   1.326   0.627  0.00  0.00    +0.015 A 
ATOM     20  C   UNL     1       1.091  -2.043  -0.414  0.00  0.00    +0.014 C 
ATOM     23  C   UNL     1       4.392   0.429   0.218  0.00  0.00    +0.165 A 
ATOM     27  C   UNL     1       6.535  -0.732  -0.381  0.00  0.00    +0.222 C 
ATOM     33  H   UNL     1       6.252   1.015   0.717  0.00  0.00    +0.157 HD
ENDROOT
BRANCH  27  24
ATOM     24  C   UNL     1       8.011  -0.581  -0.183  0.00  0.00    +0.075 C 
ATOM     25  C   UNL     1       8.786  -1.714   0.422  0.00  0.00    +0.013 C 
ATOM     26  C   UNL     1       8.552  -0.460   1.212  0.00  0.00    +0.013 C 
ENDBRANCH  27  24
BRANCH  10   2
ATOM      2  O   UNL     1      -1.769  -1.739  -0.604  0.00  0.00    -0.391 OA
ATOM     32  H   UNL     1      -1.828  -1.953   0.343  0.00  0.00    +0.210 HD
ENDBRANCH  10   2
BRANCH  11  17
ATOM     17  C   UNL     1      -4.144  -0.043  -0.907  0.00  0.00    +0.078 C 
ATOM     21  C   UNL     1      -4.005   0.438  -2.352  0.00  0.00    +0.017 C 
BRANCH  17  22
ATOM      3  O   UNL     1      -5.726   1.720  -0.558  0.00  0.00    -0.275 OA
ATOM      6  N   UNL     1      -6.030  -0.169   0.743  0.00  0.00    -0.301 N 
ATOM     22  C   UNL     1      -5.370   0.581  -0.235  0.00  0.00    +0.219 C 
ATOM     29  C   UNL     1      -7.189   0.405   1.418  0.00  0.00    +0.132 C 
BRANCH   6  28
ATOM     28  C   UNL     1      -5.697  -1.531   1.156  0.00  0.00    +0.134 C 
BRANCH  28  30
ATOM     30  C   UNL     1      -6.458  -2.498   0.311  0.00  0.00    -0.016 C 
ATOM     31  C   UNL     1      -7.309  -3.407   0.801  0.00  0.00    +0.005 C 
ENDBRANCH  28  30
ENDBRANCH   6  28
ENDBRANCH  17  22
ENDBRANCH  11  17
TORSDOF 6
