REMARK  Name = 51137752
REMARK  6 active torsions:
REMARK  status: ('A' for Active; 'I' for Inactive)
REMARK    1  A    between atoms: C_6  and  C_10
REMARK    2  A    between atoms: C_9  and  C_14
REMARK    3  A    between atoms: C_15  and  C_16
REMARK    4  A    between atoms: C_15  and  C_17
REMARK    5  A    between atoms: C_15  and  C_18
REMARK    6  A    between atoms: C_15  and  C_19
REMARK                            x       y       z     vdW  Elec       q    Type
REMARK                         _______ _______ _______ _____ _____    ______ ____
ROOT
ATOM      1  O   UNL     1       3.392   0.482  -1.590  0.00  0.00    -0.275 OA
ATOM      3  N   UNL     1       2.033  -0.832  -0.254  0.00  0.00    -0.300 N 
ATOM      9  C   UNL     1       0.291  -2.149   0.690  0.00  0.00    +0.095 C 
ATOM     10  C   UNL     1       2.942   0.187  -0.487  0.00  0.00    +0.219 C 
ATOM     11  C   UNL     1       1.451  -1.204   1.034  0.00  0.00    +0.120 C 
ATOM     12  C   UNL     1       0.776  -2.792  -0.618  0.00  0.00    +0.033 C 
ATOM     13  C   UNL     1       1.517  -1.667  -1.327  0.00  0.00    +0.108 C 
ENDROOT
BRANCH   9  14
ATOM      2  O   UNL     1      -1.105  -0.204   0.147  0.00  0.00    -0.424 OA
ATOM      4  N   UNL     1      -2.270  -2.034   0.691  0.00  0.00    -0.112 NA
ATOM      5  N   UNL     1      -3.170  -1.022   0.411  0.00  0.00    -0.112 NA
ATOM     14  C   UNL     1      -1.078  -1.511   0.525  0.00  0.00    +0.222 A 
ATOM     16  C   UNL     1      -2.445   0.026   0.098  0.00  0.00    +0.223 A 
BRANCH  16  15
ATOM     15  C   UNL     1      -2.873   1.377  -0.289  0.00  0.00    +0.040 C 
ATOM     17  C   UNL     1      -4.435   1.516  -0.313  0.00  0.00    +0.020 C 
ATOM     18  C   UNL     1      -2.364   1.768  -1.721  0.00  0.00    +0.020 C 
ATOM     19  C   UNL     1      -2.385   2.552   0.638  0.00  0.00    +0.020 C 
ENDBRANCH  16  15
ENDBRANCH   9  14
BRANCH  10   6
ATOM      6  C   UNL     1       3.369   0.984   0.702  0.00  0.00    +0.075 C 
ATOM      7  C   UNL     1       2.515   2.130   1.160  0.00  0.00    +0.013 C 
ATOM      8  C   UNL     1       3.838   2.396   0.502  0.00  0.00    +0.013 C 
ENDBRANCH  10   6
TORSDOF 3
