REMARK  Name = 45783631
REMARK  10 active torsions:
REMARK  status: ('A' for Active; 'I' for Inactive)
REMARK    1  A    between atoms: O_3  and  C_23
REMARK    2  A    between atoms: O_4  and  C_29
REMARK    3  A    between atoms: O_4  and  C_30
REMARK    4  A    between atoms: N_6  and  C_15
REMARK    5  A    between atoms: N_10  and  C_27
REMARK    6  A    between atoms: C_11  and  C_16
REMARK    7  A    between atoms: C_15  and  C_17
REMARK    8  A    between atoms: C_19  and  C_22
REMARK    9  A    between atoms: C_20  and  C_23
REMARK   10  A    between atoms: C_28  and  C_29
REMARK                            x       y       z     vdW  Elec       q    Type
REMARK                         _______ _______ _______ _____ _____    ______ ____
ROOT
ATOM      1  O   UNL     1      -2.636  -0.979   1.988  0.00  0.00    -0.336 OA
ATOM      7  N   UNL     1      -1.455  -1.183   0.095  0.00  0.00    -0.190 NA
ATOM      8  N   UNL     1      -1.304  -0.709   2.328  0.00  0.00    -0.056 NA
ATOM     16  C   UNL     1      -2.636  -1.249   0.656  0.00  0.00    +0.245 A 
ATOM     19  C   UNL     1      -0.670  -0.849   1.160  0.00  0.00    +0.204 A 
ENDROOT
BRANCH  19  22
ATOM      9  N   UNL     1       2.868  -0.133   2.054  0.00  0.00    -0.239 NA
ATOM     22  C   UNL     1       0.746  -0.663   1.024  0.00  0.00    +0.041 A 
ATOM     24  C   UNL     1       1.373  -0.818  -0.207  0.00  0.00    +0.016 A 
ATOM     25  C   UNL     1       1.530  -0.323   2.114  0.00  0.00    +0.124 A 
ATOM     26  C   UNL     1       2.748  -0.631  -0.309  0.00  0.00    +0.044 A 
ATOM     27  C   UNL     1       3.443  -0.292   0.841  0.00  0.00    +0.125 A 
BRANCH  27  10
ATOM      5  O   UNL     1       5.251  -0.506  -1.555  0.00  0.00    -0.273 OA
ATOM     10  N   UNL     1       4.826  -0.106   0.727  0.00  0.00    -0.268 N 
ATOM     28  C   UNL     1       5.618  -0.219  -0.419  0.00  0.00    +0.244 C 
ATOM     32  H   UNL     1       5.289   0.141   1.598  0.00  0.00    +0.156 HD
BRANCH  28  29
ATOM     29  C   UNL     1       7.079   0.052  -0.130  0.00  0.00    +0.255 C 
BRANCH  29   4
ATOM      4  O   UNL     1       7.814  -0.086  -1.328  0.00  0.00    -0.374 OA
ATOM     30  C   UNL     1       9.203   0.157  -1.129  0.00  0.00    +0.194 C 
ENDBRANCH  29   4
ENDBRANCH  28  29
ENDBRANCH  27  10
ENDBRANCH  19  22
BRANCH  16  11
ATOM      6  N   UNL     1      -4.324  -0.671  -1.079  0.00  0.00    -0.284 NA
ATOM     11  C   UNL     1      -3.977  -1.578   0.034  0.00  0.00    +0.146 C 
ATOM     12  C   UNL     1      -4.017  -2.988  -0.583  0.00  0.00    +0.030 C 
ATOM     13  C   UNL     1      -4.454  -2.779  -2.026  0.00  0.00    +0.017 C 
ATOM     14  C   UNL     1      -5.168  -1.443  -1.992  0.00  0.00    +0.085 C 
BRANCH   6  15
ATOM     15  C   UNL     1      -4.972   0.557  -0.639  0.00  0.00    +0.159 C 
BRANCH  15  17
ATOM      2  O   UNL     1      -3.007   1.951  -0.985  0.00  0.00    -0.461 OA
ATOM     17  C   UNL     1      -3.978   1.560  -0.118  0.00  0.00    +0.119 A 
ATOM     18  C   UNL     1      -3.828   2.196   1.093  0.00  0.00    +0.046 A 
ATOM     20  C   UNL     1      -2.229   2.845  -0.320  0.00  0.00    +0.131 A 
ATOM     21  C   UNL     1      -2.692   3.030   0.962  0.00  0.00    +0.047 A 
BRANCH  20  23
ATOM     23  C   UNL     1      -1.100   3.410  -1.073  0.00  0.00    +0.230 C 
BRANCH  23   3
ATOM      3  O   UNL     1      -0.050   2.446  -1.187  0.00  0.00    -0.387 OA
ATOM     31  H   UNL     1       0.668   2.867  -1.688  0.00  0.00    +0.210 HD
ENDBRANCH  23   3
ENDBRANCH  20  23
ENDBRANCH  15  17
ENDBRANCH   6  15
ENDBRANCH  16  11
TORSDOF 9
