REMARK  Name = 11941479
REMARK  6 active torsions:
REMARK  status: ('A' for Active; 'I' for Inactive)
REMARK    1  A    between atoms: S_1  and  C_24
REMARK    2  A    between atoms: S_1  and  C_31
REMARK    3  A    between atoms: N_9  and  C_11
REMARK    4  A    between atoms: C_19  and  C_24
REMARK    5  A    between atoms: C_22  and  C_25
REMARK    6  A    between atoms: C_28  and  C_32
REMARK                            x       y       z     vdW  Elec       q    Type
REMARK                         _______ _______ _______ _____ _____    ______ ____
ROOT
ATOM      5  O   UNL     1      -4.230  -2.809   0.586  0.00  0.00    -0.273 OA
ATOM      6  O   UNL     1      -0.484  -1.014  -2.655  0.00  0.00    -0.270 OA
ATOM      8  N   UNL     1      -2.400  -0.908  -1.388  0.00  0.00    -0.284 N 
ATOM     10  N   UNL     1      -1.967  -2.786   0.835  0.00  0.00    -0.283 N 
ATOM     11  C   UNL     1      -4.451  -0.196  -0.448  0.00  0.00    +0.104 C 
ATOM     12  C   UNL     1      -3.083  -0.806  -0.111  0.00  0.00    +0.183 C 
ATOM     13  C   UNL     1      -4.684  -0.624  -1.898  0.00  0.00    +0.043 C 
ATOM     14  C   UNL     1      -3.288  -0.602  -2.500  0.00  0.00    +0.111 C 
ATOM     15  C   UNL     1      -3.158  -2.224   0.426  0.00  0.00    +0.240 C 
ATOM     16  C   UNL     1      -1.046  -1.097  -1.563  0.00  0.00    +0.249 C 
ATOM     17  C   UNL     1      -0.228  -1.443  -0.372  0.00  0.00    +0.059 A 
ATOM     18  C   UNL     1      -0.655  -2.291   0.663  0.00  0.00    +0.046 A 
ATOM     20  C   UNL     1       1.110  -1.009  -0.402  0.00  0.00    +0.023 A 
ATOM     21  C   UNL     1       0.287  -2.738   1.606  0.00  0.00    +0.024 A 
ATOM     22  C   UNL     1       2.019  -1.425   0.569  0.00  0.00    -0.017 A 
ATOM     23  C   UNL     1       1.611  -2.301   1.567  0.00  0.00    +0.010 A 
ATOM     34  H   UNL     1      -2.053  -3.624   1.405  0.00  0.00    +0.155 HD
ENDROOT
BRANCH  22  25
ATOM     25  C   UNL     1       3.390  -0.966   0.525  0.00  0.00    -0.017 A 
ATOM     26  C   UNL     1       3.688   0.294   0.005  0.00  0.00    +0.021 A 
ATOM     27  C   UNL     1       4.416  -1.783   1.002  0.00  0.00    +0.008 A 
ATOM     28  C   UNL     1       5.010   0.737  -0.037  0.00  0.00    +0.055 A 
ATOM     29  C   UNL     1       5.738  -1.340   0.959  0.00  0.00    +0.001 A 
ATOM     30  C   UNL     1       6.035  -0.080   0.440  0.00  0.00    +0.012 A 
BRANCH  28  32
ATOM      2  F   UNL     1       6.661   2.385  -0.568  0.00  0.00    -0.166 F 
ATOM      3  F   UNL     1       4.950   2.244  -1.894  0.00  0.00    -0.166 F 
ATOM      4  F   UNL     1       4.714   3.093   0.095  0.00  0.00    -0.166 F 
ATOM     32  C   UNL     1       5.328   2.085  -0.591  0.00  0.00    +0.417 C 
ENDBRANCH  28  32
ENDBRANCH  22  25
BRANCH  11   9
ATOM      7  O   UNL     1      -5.178   1.383   1.866  0.00  0.00    -0.275 OA
ATOM      9  N   UNL     1      -4.418   1.243  -0.326  0.00  0.00    -0.309 N 
ATOM     19  C   UNL     1      -4.787   1.915   0.829  0.00  0.00    +0.223 C 
ATOM     33  H   UNL     1      -4.054   1.780  -1.108  0.00  0.00    +0.149 HD
BRANCH  19  24
ATOM     24  C   UNL     1      -4.682   3.416   0.696  0.00  0.00    +0.164 C 
BRANCH  24   1
ATOM      1  S   UNL     1      -3.015   3.932   1.170  0.00  0.00    -0.155 S 
ATOM     31  C   UNL     1      -3.201   5.712   0.914  0.00  0.00    +0.085 C 
ENDBRANCH  24   1
ENDBRANCH  19  24
ENDBRANCH  11   9
TORSDOF 5
