REMARK  Name = 75537130
REMARK  3 active torsions:
REMARK  status: ('A' for Active; 'I' for Inactive)
REMARK    1  A    between atoms: N_2  and  C_8
REMARK    2  A    between atoms: N_4  and  C_19
REMARK    3  A    between atoms: C_19  and  C_20
REMARK                            x       y       z     vdW  Elec       q    Type
REMARK                         _______ _______ _______ _____ _____    ______ ____
ROOT
ATOM      1  O   UNL     1       2.333   2.731  -0.067  0.00  0.00    -0.252 OA
ATOM      2  N   UNL     1       2.172   0.380  -0.169  0.00  0.00    -0.281 N 
ATOM      3  N   UNL     1       0.286   1.596  -0.270  0.00  0.00    -0.278 N 
ATOM      4  N   UNL     1      -2.407   0.936   0.202  0.00  0.00    -0.292 NA
ATOM      7  C   UNL     1      -0.150   0.232  -0.481  0.00  0.00    +0.109 C 
ATOM      9  C   UNL     1       1.097  -0.598  -0.183  0.00  0.00    +0.133 C 
ATOM     10  C   UNL     1      -1.357  -0.084   0.401  0.00  0.00    +0.109 C 
ATOM     13  C   UNL     1       1.680   1.701  -0.161  0.00  0.00    +0.305 C 
ATOM     14  C   UNL     1      -0.691   2.665  -0.295  0.00  0.00    +0.125 C 
ATOM     15  C   UNL     1      -1.907   2.281   0.552  0.00  0.00    +0.104 C 
ENDROOT
BRANCH   2   8
ATOM      8  C   UNL     1       3.555  -0.005  -0.026  0.00  0.00    +0.078 C 
ATOM     11  C   UNL     1       4.042  -0.734  -1.282  0.00  0.00    +0.022 C 
ATOM     12  C   UNL     1       3.752  -0.863   1.227  0.00  0.00    +0.022 C 
ATOM     16  C   UNL     1       5.488  -1.200  -1.137  0.00  0.00    +0.002 C 
ATOM     17  C   UNL     1       5.199  -1.327   1.368  0.00  0.00    +0.002 C 
ATOM     18  C   UNL     1       5.683  -2.051   0.115  0.00  0.00    +0.000 C 
ENDBRANCH   2   8
BRANCH   4  19
ATOM     19  C   UNL     1      -3.591   0.610   0.996  0.00  0.00    +0.158 C 
BRANCH  19  20
ATOM      5  N   UNL     1      -5.206  -0.253  -0.715  0.00  0.00    -0.347 N 
ATOM      6  N   UNL     1      -4.451  -1.749   0.743  0.00  0.00    -0.239 NA
ATOM     20  C   UNL     1      -4.403  -0.490   0.366  0.00  0.00    +0.121 A 
ATOM     21  C   UNL     1      -5.804  -1.435  -1.048  0.00  0.00    +0.104 A 
ATOM     22  C   UNL     1      -5.322  -2.343  -0.135  0.00  0.00    +0.130 A 
ATOM     23  H   UNL     1      -5.334   0.634  -1.183  0.00  0.00    +0.167 HD
ENDBRANCH  19  20
ENDBRANCH   4  19
TORSDOF 3
