REMARK  Name = 26742444
REMARK  11 active torsions:
REMARK  status: ('A' for Active; 'I' for Inactive)
REMARK    1  A    between atoms: S_1  and  N_8
REMARK    2  A    between atoms: S_1  and  C_23
REMARK    3  A    between atoms: O_5  and  C_26
REMARK    4  A    between atoms: O_5  and  C_34
REMARK    5  A    between atoms: O_6  and  C_29
REMARK    6  A    between atoms: O_6  and  C_35
REMARK    7  A    between atoms: N_8  and  C_18
REMARK    8  A    between atoms: C_12  and  C_19
REMARK    9  A    between atoms: C_13  and  C_18
REMARK   10  A    between atoms: C_21  and  C_24
REMARK   11  A    between atoms: C_22  and  C_25
REMARK                            x       y       z     vdW  Elec       q    Type
REMARK                         _______ _______ _______ _____ _____    ______ ____
ROOT
ATOM      7  N   UNL     1       1.047   3.188   1.843  0.00  0.00    -0.297 NA
ATOM     11  C   UNL     1       0.157   3.674  -0.555  0.00  0.00    +0.002 C 
ATOM     12  C   UNL     1      -0.935   2.970   0.298  0.00  0.00    +0.055 C 
ATOM     13  C   UNL     1       2.023   2.704   0.831  0.00  0.00    +0.072 C 
ATOM     14  C   UNL     1       1.424   2.794  -0.589  0.00  0.00    +0.024 C 
ATOM     15  C   UNL     1       0.528   4.977   0.185  0.00  0.00    +0.019 C 
ATOM     16  C   UNL     1      -0.269   2.534   1.634  0.00  0.00    +0.094 C 
ATOM     17  C   UNL     1       0.876   4.647   1.647  0.00  0.00    +0.085 C 
ENDROOT
BRANCH  12  19
ATOM      9  N   UNL     1      -1.421   1.528  -1.617  0.00  0.00    -0.237 NA
ATOM     10  N   UNL     1      -3.132  -0.167  -1.547  0.00  0.00    -0.229 NA
ATOM     19  C   UNL     1      -1.733   1.845  -0.344  0.00  0.00    +0.050 A 
ATOM     20  C   UNL     1      -2.719   1.209   0.384  0.00  0.00    +0.055 A 
ATOM     21  C   UNL     1      -3.392   0.201  -0.275  0.00  0.00    +0.110 A 
ATOM     22  C   UNL     1      -2.149   0.528  -2.150  0.00  0.00    +0.127 A 
ATOM     25  C   UNL     1      -1.831   0.149  -3.557  0.00  0.00    +0.088 C 
BRANCH  21  24
ATOM      4  O   UNL     1      -5.023  -1.507  -0.398  0.00  0.00    -0.461 OA
ATOM     24  C   UNL     1      -4.444  -0.542   0.365  0.00  0.00    +0.153 A 
ATOM     28  C   UNL     1      -5.020  -0.503   1.614  0.00  0.00    +0.051 A 
ATOM     31  C   UNL     1      -6.017  -1.507   1.618  0.00  0.00    +0.042 A 
ATOM     33  C   UNL     1      -5.980  -2.089   0.372  0.00  0.00    +0.196 A 
ENDBRANCH  21  24
ENDBRANCH  12  19
BRANCH  13  18
ATOM     18  C   UNL     1       2.538   1.298   1.144  0.00  0.00    +0.124 C 
BRANCH  18   8
ATOM      8  N   UNL     1       3.586   0.939   0.174  0.00  0.00    -0.188 NA
ATOM     36  H   UNL     1       3.503   1.352  -0.763  0.00  0.00    +0.148 HD
BRANCH   8   1
ATOM      1  S   UNL     1       4.359  -0.575   0.270  0.00  0.00    +0.062 S 
ATOM      2  O   UNL     1       4.895  -0.755   1.606  0.00  0.00    -0.153 OA
ATOM      3  O   UNL     1       5.216  -0.745  -0.888  0.00  0.00    -0.153 OA
BRANCH   1  23
ATOM     23  C   UNL     1       3.000  -1.688   0.073  0.00  0.00    +0.150 A 
ATOM     26  C   UNL     1       2.348  -1.811  -1.154  0.00  0.00    +0.147 A 
ATOM     27  C   UNL     1       2.580  -2.447   1.165  0.00  0.00    +0.077 A 
ATOM     29  C   UNL     1       1.508  -3.330   1.030  0.00  0.00    +0.122 A 
ATOM     30  C   UNL     1       1.276  -2.693  -1.289  0.00  0.00    +0.051 A 
ATOM     32  C   UNL     1       0.857  -3.453  -0.197  0.00  0.00    +0.049 A 
BRANCH  26   5
ATOM      5  O   UNL     1       2.740  -1.079  -2.234  0.00  0.00    -0.493 OA
ATOM     34  C   UNL     1       2.013  -1.272  -3.446  0.00  0.00    +0.277 C 
ENDBRANCH  26   5
BRANCH  29   6
ATOM      6  O   UNL     1       1.098  -4.071   2.096  0.00  0.00    -0.495 OA
ATOM     35  C   UNL     1      -0.004  -4.953   1.887  0.00  0.00    +0.277 C 
ENDBRANCH  29   6
ENDBRANCH   1  23
ENDBRANCH   8   1
ENDBRANCH  18   8
ENDBRANCH  13  18
TORSDOF 8
