REMARK  Name = 11885051
REMARK  13 active torsions:
REMARK  status: ('A' for Active; 'I' for Inactive)
REMARK    1  A    between atoms: O_2  and  C_14
REMARK    2  A    between atoms: O_3  and  C_19
REMARK    3  A    between atoms: O_4  and  C_23
REMARK    4  A    between atoms: C_9  and  C_17
REMARK    5  A    between atoms: C_11  and  C_19
REMARK    6  A    between atoms: C_11  and  C_20
REMARK    7  A    between atoms: C_12  and  C_22
REMARK    8  A    between atoms: C_22  and  C_23
REMARK    9  A    between atoms: C_25  and  C_26
REMARK   10  A    between atoms: C_26  and  C_27
REMARK   11  A    between atoms: C_27  and  C_28
REMARK   12  A    between atoms: C_27  and  C_29
REMARK   13  A    between atoms: C_27  and  C_30
REMARK                            x       y       z     vdW  Elec       q    Type
REMARK                         _______ _______ _______ _____ _____    ______ ____
ROOT
ATOM      1  S   UNL     1       0.920   2.247  -0.341  0.00  0.00    -0.057 S 
ATOM      6  O   UNL     1       4.145  -1.094  -0.734  0.00  0.00    -0.275 OA
ATOM      7  N   UNL     1       1.304  -0.310  -0.412  0.00  0.00    -0.229 NA
ATOM      8  N   UNL     1       3.257   1.088  -0.609  0.00  0.00    -0.265 N 
ATOM      9  C   UNL     1      -2.439  -0.763   0.396  0.00  0.00    -0.019 C 
ATOM     10  C   UNL     1      -2.845   0.581  -0.356  0.00  0.00    +0.011 C 
ATOM     11  C   UNL     1      -4.356   1.025  -0.263  0.00  0.00    +0.021 C 
ATOM     12  C   UNL     1      -1.028  -1.244  -0.179  0.00  0.00    +0.055 C 
ATOM     13  C   UNL     1      -3.491  -1.861   0.093  0.00  0.00    +0.010 C 
ATOM     14  C   UNL     1      -5.269  -0.201  -0.547  0.00  0.00    +0.123 C 
ATOM     15  C   UNL     1      -1.835   1.727  -0.058  0.00  0.00    +0.049 C 
ATOM     16  C   UNL     1      -4.930  -1.415   0.311  0.00  0.00    +0.032 C 
ATOM     17  C   UNL     1      -2.335  -0.584   1.931  0.00  0.00    +0.012 C 
ATOM     18  C   UNL     1      -0.053  -0.097  -0.251  0.00  0.00    +0.058 A 
ATOM     20  C   UNL     1      -4.642   2.082  -1.367  0.00  0.00    +0.016 C 
ATOM     21  C   UNL     1      -0.438   1.228  -0.213  0.00  0.00    +0.015 A 
ATOM     24  C   UNL     1       1.915   0.853  -0.465  0.00  0.00    +0.165 A 
ATOM     25  C   UNL     1       4.274   0.127  -0.733  0.00  0.00    +0.219 C 
ATOM     33  H   UNL     1       3.519   2.070  -0.623  0.00  0.00    +0.157 HD
ENDROOT
BRANCH  14   2
ATOM      2  O   UNL     1      -6.641   0.136  -0.344  0.00  0.00    -0.391 OA
ATOM     31  H   UNL     1      -6.935   0.669  -1.101  0.00  0.00    +0.210 HD
ENDBRANCH  14   2
BRANCH  11  19
ATOM     19  C   UNL     1      -4.743   1.703   1.070  0.00  0.00    +0.165 C 
BRANCH  19   3
ATOM      3  O   UNL     1      -6.108   2.050   0.998  0.00  0.00    -0.394 OA
ATOM     32  H   UNL     1      -6.174   2.931   0.593  0.00  0.00    +0.209 HD
ENDBRANCH  19   3
ENDBRANCH  11  19
BRANCH  12  22
ATOM     22  C   UNL     1      -0.422  -2.453   0.545  0.00  0.00    +0.130 C 
BRANCH  22  23
ATOM      5  O   UNL     1       1.035  -2.898  -1.358  0.00  0.00    -0.251 OA
ATOM     23  C   UNL     1       0.804  -2.956  -0.159  0.00  0.00    +0.305 C 
BRANCH  23   4
ATOM      4  O   UNL     1       1.654  -3.506   0.747  0.00  0.00    -0.481 OA
ATOM     34  H   UNL     1       2.470  -3.845   0.323  0.00  0.00    +0.295 HD
ENDBRANCH  23   4
ENDBRANCH  22  23
ENDBRANCH  12  22
BRANCH  25  26
ATOM     26  C   UNL     1       5.659   0.749  -0.870  0.00  0.00    +0.102 C 
BRANCH  26  27
ATOM     27  C   UNL     1       6.435   0.901   0.460  0.00  0.00    -0.029 C 
ATOM     28  C   UNL     1       5.722   1.863   1.424  0.00  0.00    +0.011 C 
ATOM     29  C   UNL     1       7.826   1.482   0.136  0.00  0.00    +0.011 C 
ATOM     30  C   UNL     1       6.625  -0.460   1.149  0.00  0.00    +0.011 C 
ENDBRANCH  26  27
ENDBRANCH  25  26
TORSDOF 8
