REMARK  Name = 56775627
REMARK  12 active torsions:
REMARK  status: ('A' for Active; 'I' for Inactive)
REMARK    1  A    between atoms: O_4  and  C_24
REMARK    2  A    between atoms: N_5  and  C_8
REMARK    3  A    between atoms: N_5  and  C_13
REMARK    4  A    between atoms: N_7  and  C_17
REMARK    5  A    between atoms: N_7  and  C_21
REMARK    6  A    between atoms: N_7  and  C_22
REMARK    7  A    between atoms: C_8  and  C_11
REMARK    8  A    between atoms: C_11  and  C_12
REMARK    9  A    between atoms: C_13  and  C_15
REMARK   10  A    between atoms: C_16  and  C_17
REMARK   11  A    between atoms: C_19  and  C_24
REMARK   12  A    between atoms: C_21  and  C_23
REMARK                            x       y       z     vdW  Elec       q    Type
REMARK                         _______ _______ _______ _____ _____    ______ ____
ROOT
ATOM     11  C   UNL     1      -3.662   1.113  -0.503  0.00  0.00    +0.085 C 
ENDROOT
BRANCH  11  12
ATOM      2  O   UNL     1      -0.829   3.287  -0.510  0.00  0.00    -0.358 OA
ATOM      6  N   UNL     1      -2.109   2.938  -0.096  0.00  0.00    -0.083 NA
ATOM     12  C   UNL     1      -2.369   1.784  -0.716  0.00  0.00    +0.086 A 
ATOM     14  C   UNL     1      -1.302   1.360  -1.526  0.00  0.00    +0.072 A 
ATOM     16  C   UNL     1      -0.359   2.339  -1.361  0.00  0.00    +0.151 A 
BRANCH  16  17
ATOM     17  C   UNL     1       1.026   2.557  -1.911  0.00  0.00    +0.161 C 
BRANCH  17   7
ATOM      7  N   UNL     1       2.013   1.700  -1.256  0.00  0.00    -0.294 NA
ATOM     22  C   UNL     1       3.210   1.572  -2.087  0.00  0.00    +0.105 C 
BRANCH   7  21
ATOM     21  C   UNL     1       2.361   2.234   0.060  0.00  0.00    +0.119 C 
BRANCH  21  23
ATOM     23  C   UNL     1       2.916   1.169   0.969  0.00  0.00    -0.033 A 
ATOM     25  C   UNL     1       2.058   0.430   1.783  0.00  0.00    +0.005 A 
ATOM     26  C   UNL     1       4.288   0.922   0.996  0.00  0.00    +0.005 A 
ATOM     27  C   UNL     1       2.572  -0.556   2.625  0.00  0.00    +0.000 A 
ATOM     28  C   UNL     1       4.803  -0.065   1.837  0.00  0.00    +0.000 A 
ATOM     29  C   UNL     1       3.944  -0.804   2.651  0.00  0.00    +0.000 A 
ENDBRANCH  21  23
ENDBRANCH   7  21
ENDBRANCH  17   7
ENDBRANCH  16  17
ENDBRANCH  11  12
BRANCH  11   8
ATOM      1  O   UNL     1      -4.820  -0.173   2.401  0.00  0.00    -0.376 OA
ATOM      8  C   UNL     1      -3.593   0.141   0.683  0.00  0.00    +0.072 C 
ATOM      9  C   UNL     1      -3.704   0.696   2.099  0.00  0.00    +0.184 C 
ATOM     10  C   UNL     1      -4.830  -0.673   1.044  0.00  0.00    +0.184 C 
BRANCH   8   5
ATOM      5  N   UNL     1      -2.445  -0.752   0.618  0.00  0.00    -0.300 NA
ATOM     30  H   UNL     1      -2.313  -1.333   1.447  0.00  0.00    +0.123 HD
BRANCH   5  13
ATOM     13  C   UNL     1      -2.555  -1.615  -0.556  0.00  0.00    +0.156 C 
BRANCH  13  15
ATOM      3  O   UNL     1      -0.232  -1.865  -1.235  0.00  0.00    -0.461 OA
ATOM     15  C   UNL     1      -1.335  -2.479  -0.733  0.00  0.00    +0.119 A 
ATOM     18  C   UNL     1      -1.079  -3.808  -0.490  0.00  0.00    +0.046 A 
ATOM     19  C   UNL     1       0.739  -2.812  -1.313  0.00  0.00    +0.131 A 
ATOM     20  C   UNL     1       0.268  -4.025  -0.866  0.00  0.00    +0.047 A 
BRANCH  19  24
ATOM     24  C   UNL     1       2.040  -2.370  -1.836  0.00  0.00    +0.230 C 
BRANCH  24   4
ATOM      4  O   UNL     1       2.984  -2.245  -0.769  0.00  0.00    -0.387 OA
ATOM     31  H   UNL     1       3.817  -1.933  -1.163  0.00  0.00    +0.210 HD
ENDBRANCH  24   4
ENDBRANCH  19  24
ENDBRANCH  13  15
ENDBRANCH   5  13
ENDBRANCH   8   5
ENDBRANCH  11   8
TORSDOF 11
