REMARK  Name = 28960538
REMARK  5 active torsions:
REMARK  status: ('A' for Active; 'I' for Inactive)
REMARK    1  A    between atoms: O_3  and  C_11
REMARK    2  A    between atoms: N_6  and  C_10
REMARK    3  A    between atoms: N_7  and  C_12
REMARK    4  A    between atoms: N_9  and  C_23
REMARK    5  A    between atoms: C_20  and  C_21
REMARK                            x       y       z     vdW  Elec       q    Type
REMARK                         _______ _______ _______ _____ _____    ______ ____
ROOT
ATOM      1  O   UNL     1       1.944  -1.991   1.614  0.00  0.00    -0.342 OA
ATOM      2  O   UNL     1       3.113  -3.433   0.222  0.00  0.00    -0.347 OA
ATOM     10  C   UNL     1       2.396  -1.295  -0.651  0.00  0.00    +0.143 C 
ATOM     11  C   UNL     1       1.062  -1.913  -1.127  0.00  0.00    +0.159 C 
ATOM     12  C   UNL     1       0.196  -2.471   0.024  0.00  0.00    +0.136 C 
ATOM     13  C   UNL     1       2.934  -2.052   0.577  0.00  0.00    +0.270 C 
ATOM     14  C   UNL     1       1.030  -3.013   1.203  0.00  0.00    +0.170 C 
ATOM     15  C   UNL     1       2.000  -4.115   0.822  0.00  0.00    +0.196 C 
ENDROOT
BRANCH  12   7
ATOM      5  O   UNL     1      -2.428  -1.925  -0.986  0.00  0.00    -0.252 OA
ATOM      7  N   UNL     1      -0.719  -1.454   0.497  0.00  0.00    -0.291 N 
ATOM      9  N   UNL     1      -2.640  -0.210   0.602  0.00  0.00    -0.269 N 
ATOM     22  C   UNL     1      -1.986  -1.256  -0.055  0.00  0.00    +0.304 C 
ATOM     29  H   UNL     1      -0.394  -0.808   1.210  0.00  0.00    +0.151 HD
ATOM     33  H   UNL     1      -2.132   0.244   1.357  0.00  0.00    +0.156 HD
BRANCH   9  23
ATOM     23  C   UNL     1      -3.934   0.302   0.347  0.00  0.00    +0.035 A 
ATOM     24  C   UNL     1      -4.428   1.360   1.110  0.00  0.00    +0.023 A 
ATOM     25  C   UNL     1      -4.716  -0.251  -0.667  0.00  0.00    +0.023 A 
ATOM     26  C   UNL     1      -5.704   1.865   0.859  0.00  0.00    +0.002 A 
ATOM     27  C   UNL     1      -5.992   0.254  -0.918  0.00  0.00    +0.002 A 
ATOM     28  C   UNL     1      -6.486   1.312  -0.155  0.00  0.00    +0.000 A 
ENDBRANCH   9  23
ENDBRANCH  12   7
BRANCH  10   6
ATOM      6  N   UNL     1       2.206   0.118  -0.317  0.00  0.00    -0.293 NA
ATOM     16  C   UNL     1       3.296   0.593   0.546  0.00  0.00    +0.085 C 
ATOM     17  C   UNL     1       2.107   0.926  -1.540  0.00  0.00    +0.085 C 
ATOM     18  C   UNL     1       3.083   2.054   0.949  0.00  0.00    +0.028 C 
ATOM     19  C   UNL     1       1.854   2.398  -1.210  0.00  0.00    +0.028 C 
ATOM     20  C   UNL     1       2.932   2.950  -0.279  0.00  0.00    +0.077 C 
BRANCH  20  21
ATOM      4  O   UNL     1       1.915   4.570   1.152  0.00  0.00    -0.276 OA
ATOM      8  N   UNL     1       3.022   5.314  -0.723  0.00  0.00    -0.329 N 
ATOM     21  C   UNL     1       2.570   4.342   0.138  0.00  0.00    +0.214 C 
ATOM     31  H   UNL     1       3.551   5.097  -1.562  0.00  0.00    +0.145 HD
ATOM     32  H   UNL     1       2.833   6.295  -0.547  0.00  0.00    +0.145 HD
ENDBRANCH  20  21
ENDBRANCH  10   6
BRANCH  11   3
ATOM      3  O   UNL     1       1.373  -2.982  -2.030  0.00  0.00    -0.388 OA
ATOM     30  H   UNL     1       0.534  -3.332  -2.373  0.00  0.00    +0.210 HD
ENDBRANCH  11   3
TORSDOF 5
