REMARK  Name = 7135474
REMARK  6 active torsions:
REMARK  status: ('A' for Active; 'I' for Inactive)
REMARK    1  A    between atoms: O_3  and  C_21
REMARK    2  A    between atoms: C_10  and  C_15
REMARK    3  A    between atoms: C_10  and  C_16
REMARK    4  A    between atoms: C_15  and  C_17
REMARK    5  A    between atoms: C_16  and  C_21
REMARK    6  A    between atoms: C_29  and  C_31
REMARK                            x       y       z     vdW  Elec       q    Type
REMARK                         _______ _______ _______ _____ _____    ______ ____
ROOT
ATOM      2  O   UNL     1       3.758  -0.782   1.958  0.00  0.00    -0.276 OA
ATOM      5  O   UNL     1       0.923   1.639   0.659  0.00  0.00    -0.273 OA
ATOM      6  O   UNL     1      -2.401  -1.579  -1.905  0.00  0.00    -0.270 OA
ATOM      7  N   UNL     1       2.095  -1.099   0.365  0.00  0.00    -0.298 N 
ATOM      8  N   UNL     1      -0.688  -1.013  -0.458  0.00  0.00    -0.283 N 
ATOM      9  N   UNL     1      -1.337   1.741   0.408  0.00  0.00    -0.283 N 
ATOM     17  C   UNL     1       3.417  -0.943   0.784  0.00  0.00    +0.216 C 
ATOM     18  C   UNL     1       1.016  -1.074   1.356  0.00  0.00    +0.139 C 
ATOM     19  C   UNL     1      -0.279  -0.448   0.821  0.00  0.00    +0.180 C 
ATOM     20  C   UNL     1       1.702  -1.290  -1.034  0.00  0.00    +0.127 C 
ATOM     22  C   UNL     1       0.289  -1.837  -1.171  0.00  0.00    +0.128 C 
ATOM     23  C   UNL     1      -0.158   1.050   0.595  0.00  0.00    +0.239 C 
ATOM     24  C   UNL     1      -1.996  -0.947  -0.927  0.00  0.00    +0.249 C 
ATOM     25  C   UNL     1      -2.963  -0.047  -0.243  0.00  0.00    +0.059 A 
ATOM     26  C   UNL     1      -2.640   1.221   0.266  0.00  0.00    +0.046 A 
ATOM     27  C   UNL     1      -4.311  -0.449  -0.288  0.00  0.00    +0.023 A 
ATOM     28  C   UNL     1      -3.681   2.083   0.652  0.00  0.00    +0.024 A 
ATOM     29  C   UNL     1      -5.327   0.401   0.145  0.00  0.00    -0.017 A 
ATOM     30  C   UNL     1      -5.013   1.674   0.603  0.00  0.00    +0.010 A 
ATOM     35  H   UNL     1      -1.266   2.753   0.480  0.00  0.00    +0.155 HD
ENDROOT
BRANCH  29  31
ATOM      1  S   UNL     1      -8.719  -1.615   0.150  0.00  0.00    -0.104 S 
ATOM     31  C   UNL     1      -6.696  -0.028   0.094  0.00  0.00    -0.011 A 
ATOM     32  C   UNL     1      -7.849   0.788  -0.113  0.00  0.00    +0.016 A 
ATOM     33  C   UNL     1      -7.029  -1.357   0.251  0.00  0.00    +0.053 A 
ATOM     34  C   UNL     1      -9.014   0.052  -0.105  0.00  0.00    +0.046 A 
ENDBRANCH  29  31
BRANCH  17  15
ATOM     15  C   UNL     1       4.468  -0.984  -0.299  0.00  0.00    +0.103 C 
BRANCH  15  10
ATOM     10  C   UNL     1       5.649  -0.083   0.084  0.00  0.00    -0.011 C 
ATOM     11  C   UNL     1       6.779  -0.188  -0.965  0.00  0.00    +0.008 C 
ATOM     12  C   UNL     1       6.283  -0.561   1.412  0.00  0.00    +0.008 C 
ATOM     13  C   UNL     1       7.834  -1.081  -0.327  0.00  0.00    +0.001 C 
ATOM     14  C   UNL     1       7.777  -0.681   1.136  0.00  0.00    +0.001 C 
BRANCH  10  16
ATOM     16  C   UNL     1       5.158   1.365   0.200  0.00  0.00    +0.127 C 
BRANCH  16  21
ATOM      4  O   UNL     1       4.836   1.478  -2.214  0.00  0.00    -0.251 OA
ATOM     21  C   UNL     1       4.542   1.838  -1.084  0.00  0.00    +0.305 C 
BRANCH  21   3
ATOM      3  O   UNL     1       3.577   2.753  -0.811  0.00  0.00    -0.481 OA
ATOM     36  H   UNL     1       3.147   3.086  -1.627  0.00  0.00    +0.295 HD
ENDBRANCH  21   3
ENDBRANCH  16  21
ENDBRANCH  10  16
ENDBRANCH  15  10
ENDBRANCH  17  15
TORSDOF 6
