REMARK  Name = 75367805
REMARK  10 active torsions:
REMARK  status: ('A' for Active; 'I' for Inactive)
REMARK    1  A    between atoms: O_1  and  C_5
REMARK    2  A    between atoms: O_1  and  C_11
REMARK    3  A    between atoms: O_3  and  C_21
REMARK    4  A    between atoms: O_3  and  C_22
REMARK    5  A    between atoms: N_4  and  C_9
REMARK    6  A    between atoms: C_9  and  C_14
REMARK    7  A    between atoms: C_11  and  C_12
REMARK    8  A    between atoms: C_12  and  C_13
REMARK    9  A    between atoms: C_13  and  C_15
REMARK   10  A    between atoms: C_13  and  C_16
REMARK                            x       y       z     vdW  Elec       q    Type
REMARK                         _______ _______ _______ _____ _____    ______ ____
ROOT
ATOM      2  O   UNL     1       1.789   3.836  -0.777  0.00  0.00    -0.376 OA
ATOM      4  N   UNL     1      -0.407   2.054   0.540  0.00  0.00    -0.293 NA
ATOM      5  C   UNL     1       1.951   1.467  -0.306  0.00  0.00    +0.158 C 
ATOM      6  C   UNL     1       0.611   1.024   0.303  0.00  0.00    +0.118 C 
ATOM      7  C   UNL     1       0.130   3.341   0.987  0.00  0.00    +0.113 C 
ATOM      8  C   UNL     1       1.830   2.545  -1.375  0.00  0.00    +0.192 C 
ATOM     10  C   UNL     1       0.529   4.188  -0.222  0.00  0.00    +0.175 C 
ENDROOT
BRANCH   5   1
ATOM      1  O   UNL     1       2.568   0.324  -0.900  0.00  0.00    -0.373 OA
BRANCH   1  11
ATOM     11  C   UNL     1       3.210  -0.480   0.076  0.00  0.00    +0.160 C 
BRANCH  11  12
ATOM     12  C   UNL     1       3.860  -1.669  -0.621  0.00  0.00    +0.031 C 
BRANCH  12  13
ATOM     13  C   UNL     1       4.576  -2.634   0.338  0.00  0.00    -0.015 C 
ATOM     15  C   UNL     1       3.576  -3.198   1.350  0.00  0.00    +0.007 C 
ATOM     16  C   UNL     1       5.268  -3.781  -0.399  0.00  0.00    +0.007 C 
ENDBRANCH  12  13
ENDBRANCH  11  12
ENDBRANCH   1  11
ENDBRANCH   5   1
BRANCH   4   9
ATOM      9  C   UNL     1      -1.427   1.551   1.459  0.00  0.00    +0.119 C 
BRANCH   9  14
ATOM     14  C   UNL     1      -2.313   0.523   0.806  0.00  0.00    -0.033 A 
ATOM     17  C   UNL     1      -3.307   0.924  -0.086  0.00  0.00    +0.008 A 
ATOM     18  C   UNL     1      -2.138  -0.831   1.092  0.00  0.00    +0.008 A 
ATOM     19  C   UNL     1      -4.127  -0.028  -0.692  0.00  0.00    +0.046 A 
ATOM     20  C   UNL     1      -2.957  -1.784   0.487  0.00  0.00    +0.046 A 
ATOM     21  C   UNL     1      -3.952  -1.382  -0.405  0.00  0.00    +0.120 A 
BRANCH  21   3
ATOM      3  O   UNL     1      -4.751  -2.312  -0.996  0.00  0.00    -0.495 OA
ATOM     22  C   UNL     1      -4.517  -3.678  -0.658  0.00  0.00    +0.277 C 
ENDBRANCH  21   3
ENDBRANCH   9  14
ENDBRANCH   4   9
TORSDOF 7
