REMARK  Name = 51137543
REMARK  8 active torsions:
REMARK  status: ('A' for Active; 'I' for Inactive)
REMARK    1  A    between atoms: N_5  and  C_13
REMARK    2  A    between atoms: N_8  and  C_26
REMARK    3  A    between atoms: N_8  and  C_29
REMARK    4  A    between atoms: N_8  and  C_30
REMARK    5  A    between atoms: C_9  and  C_14
REMARK    6  A    between atoms: C_13  and  C_15
REMARK    7  A    between atoms: C_18  and  C_21
REMARK    8  A    between atoms: C_22  and  C_25
REMARK                            x       y       z     vdW  Elec       q    Type
REMARK                         _______ _______ _______ _____ _____    ______ ____
ROOT
ATOM      5  N   UNL     1      -1.756  -1.002  -0.315  0.00  0.00    -0.297 NA
ATOM      9  C   UNL     1       0.100  -2.319   0.251  0.00  0.00    +0.092 C 
ATOM     10  C   UNL     1      -0.445  -1.629   1.513  0.00  0.00    +0.029 C 
ATOM     11  C   UNL     1      -0.541  -1.556  -0.916  0.00  0.00    +0.097 C 
ATOM     12  C   UNL     1      -1.335  -0.506   0.996  0.00  0.00    +0.085 C 
ENDROOT
BRANCH   9  14
ATOM      4  O   UNL     1       2.269  -1.186   0.156  0.00  0.00    -0.420 OA
ATOM      6  N   UNL     1       2.402  -3.418   0.081  0.00  0.00    -0.112 NA
ATOM      7  N   UNL     1       3.686  -2.912   0.020  0.00  0.00    -0.107 NA
ATOM     14  C   UNL     1       1.608  -2.376   0.160  0.00  0.00    +0.222 A 
ATOM     18  C   UNL     1       3.561  -1.606   0.066  0.00  0.00    +0.248 A 
BRANCH  18  21
ATOM     21  C   UNL     1       4.556  -0.574   0.038  0.00  0.00    +0.039 A 
ATOM     23  C   UNL     1       5.907  -0.909  -0.052  0.00  0.00    +0.015 A 
ATOM     24  C   UNL     1       4.172   0.766   0.101  0.00  0.00    +0.015 A 
ATOM     26  C   UNL     1       6.491   1.435  -0.017  0.00  0.00    +0.029 A 
ATOM     27  C   UNL     1       6.874   0.096  -0.079  0.00  0.00    +0.024 A 
ATOM     28  C   UNL     1       5.140   1.771   0.073  0.00  0.00    +0.024 A 
BRANCH  26   8
ATOM      8  N   UNL     1       7.469   2.450  -0.043  0.00  0.00    -0.336 N 
ATOM     29  C   UNL     1       8.876   2.112  -0.136  0.00  0.00    +0.129 C 
ATOM     30  C   UNL     1       7.081   3.846   0.013  0.00  0.00    +0.129 C 
ENDBRANCH  26   8
ENDBRANCH  18  21
ENDBRANCH   9  14
BRANCH   5  13
ATOM     13  C   UNL     1      -2.356   0.040  -1.135  0.00  0.00    +0.119 C 
BRANCH  13  15
ATOM     15  C   UNL     1      -3.791   0.294  -0.758  0.00  0.00    -0.033 A 
ATOM     16  C   UNL     1      -4.785  -0.600  -1.157  0.00  0.00    +0.005 A 
ATOM     17  C   UNL     1      -4.127   1.422  -0.009  0.00  0.00    +0.005 A 
ATOM     19  C   UNL     1      -6.115  -0.365  -0.807  0.00  0.00    +0.012 A 
ATOM     20  C   UNL     1      -5.457   1.656   0.341  0.00  0.00    +0.012 A 
ATOM     22  C   UNL     1      -6.450   0.763  -0.059  0.00  0.00    +0.055 A 
BRANCH  22  25
ATOM      1  F   UNL     1      -8.080   1.061   1.667  0.00  0.00    -0.166 F 
ATOM      2  F   UNL     1      -8.715   0.044  -0.147  0.00  0.00    -0.166 F 
ATOM      3  F   UNL     1      -8.367   2.190  -0.163  0.00  0.00    -0.166 F 
ATOM     25  C   UNL     1      -7.872   1.011   0.318  0.00  0.00    +0.417 C 
ENDBRANCH  22  25
ENDBRANCH  13  15
ENDBRANCH   5  13
TORSDOF 6
