REMARK  Name = 25317500
REMARK  6 active torsions:
REMARK  status: ('A' for Active; 'I' for Inactive)
REMARK    1  A    between atoms: O_3  and  C_10
REMARK    2  A    between atoms: N_5  and  C_9
REMARK    3  A    between atoms: N_6  and  C_11
REMARK    4  A    between atoms: N_7  and  C_20
REMARK    5  A    between atoms: N_8  and  C_23
REMARK    6  A    between atoms: C_23  and  C_27
REMARK                            x       y       z     vdW  Elec       q    Type
REMARK                         _______ _______ _______ _____ _____    ______ ____
ROOT
ATOM      1  O   UNL     1       1.511  -2.127  -1.584  0.00  0.00    -0.342 OA
ATOM      2  O   UNL     1       1.984  -3.939  -0.214  0.00  0.00    -0.347 OA
ATOM      9  C   UNL     1       0.637  -2.132   0.664  0.00  0.00    +0.144 C 
ATOM     10  C   UNL     1       1.902  -1.410   1.179  0.00  0.00    +0.159 C 
ATOM     11  C   UNL     1       2.881  -1.007   0.054  0.00  0.00    +0.136 C 
ATOM     12  C   UNL     1       0.968  -2.987  -0.573  0.00  0.00    +0.270 C 
ATOM     13  C   UNL     1       2.864  -1.980  -1.143  0.00  0.00    +0.170 C 
ATOM     14  C   UNL     1       3.195  -3.415  -0.780  0.00  0.00    +0.196 C 
ENDROOT
BRANCH  11   6
ATOM      4  O   UNL     1       3.932   1.458   1.125  0.00  0.00    -0.253 OA
ATOM      6  N   UNL     1       2.590   0.336  -0.401  0.00  0.00    -0.291 N 
ATOM      8  N   UNL     1       2.698   2.628  -0.453  0.00  0.00    -0.296 N 
ATOM     19  C   UNL     1       3.146   1.471   0.178  0.00  0.00    +0.300 C 
ATOM     29  H   UNL     1       1.891   0.457  -1.127  0.00  0.00    +0.151 HD
ATOM     31  H   UNL     1       2.064   2.540  -1.242  0.00  0.00    +0.151 HD
BRANCH   8  23
ATOM     23  C   UNL     1       3.117   3.951  -0.052  0.00  0.00    +0.132 C 
BRANCH  23  27
ATOM     27  C   UNL     1       4.342   4.326  -0.818  0.00  0.00    -0.016 C 
ATOM     28  C   UNL     1       5.509   4.647  -0.246  0.00  0.00    +0.005 C 
ENDBRANCH  23  27
ENDBRANCH   8  23
ENDBRANCH  11   6
BRANCH   9   5
ATOM      5  N   UNL     1      -0.400  -1.154   0.327  0.00  0.00    -0.290 NA
ATOM      7  N   UNL     1      -3.056  -0.115   0.184  0.00  0.00    -0.327 N 
ATOM     15  C   UNL     1      -1.081  -0.687   1.540  0.00  0.00    +0.104 C 
ATOM     16  C   UNL     1      -1.376  -1.738  -0.602  0.00  0.00    +0.104 C 
ATOM     17  C   UNL     1      -2.129   0.378   1.207  0.00  0.00    +0.120 C 
ATOM     18  C   UNL     1      -2.433  -0.708  -1.006  0.00  0.00    +0.120 C 
BRANCH   7  20
ATOM     20  C   UNL     1      -4.312   0.485   0.038  0.00  0.00    +0.030 A 
ATOM     21  C   UNL     1      -4.480   1.835   0.345  0.00  0.00    +0.023 A 
ATOM     22  C   UNL     1      -5.395  -0.266  -0.418  0.00  0.00    +0.023 A 
ATOM     24  C   UNL     1      -5.731   2.435   0.197  0.00  0.00    +0.002 A 
ATOM     25  C   UNL     1      -6.646   0.333  -0.567  0.00  0.00    +0.002 A 
ATOM     26  C   UNL     1      -6.814   1.683  -0.260  0.00  0.00    +0.000 A 
ENDBRANCH   7  20
ENDBRANCH   9   5
BRANCH  10   3
ATOM      3  O   UNL     1       2.576  -2.300   2.079  0.00  0.00    -0.388 OA
ATOM     30  H   UNL     1       3.338  -1.821   2.449  0.00  0.00    +0.210 HD
ENDBRANCH  10   3
TORSDOF 6
