REMARK  Name = 75368712
REMARK  7 active torsions:
REMARK  status: ('A' for Active; 'I' for Inactive)
REMARK    1  A    between atoms: O_2  and  C_17
REMARK    2  A    between atoms: O_2  and  C_21
REMARK    3  A    between atoms: N_4  and  C_14
REMARK    4  A    between atoms: N_5  and  C_15
REMARK    5  A    between atoms: N_6  and  C_20
REMARK    6  A    between atoms: C_14  and  C_16
REMARK    7  A    between atoms: C_15  and  C_17
REMARK                            x       y       z     vdW  Elec       q    Type
REMARK                         _______ _______ _______ _____ _____    ______ ____
ROOT
ATOM      1  O   UNL     1       3.655   1.816  -0.471  0.00  0.00    -0.252 OA
ATOM      3  N   UNL     1       1.388   1.199  -0.451  0.00  0.00    -0.278 N 
ATOM      4  N   UNL     1      -1.261   0.967   0.464  0.00  0.00    -0.295 NA
ATOM      5  N   UNL     1       2.904  -0.338  -1.071  0.00  0.00    -0.281 N 
ATOM      8  C   UNL     1       0.600   0.057  -0.865  0.00  0.00    +0.109 C 
ATOM      9  C   UNL     1      -0.477  -0.251   0.175  0.00  0.00    +0.109 C 
ATOM     10  C   UNL     1       1.637  -1.047  -1.061  0.00  0.00    +0.133 C 
ATOM     11  C   UNL     1       0.715   2.400  -0.003  0.00  0.00    +0.125 C 
ATOM     12  C   UNL     1      -0.393   2.040   0.989  0.00  0.00    +0.104 C 
ATOM     13  C   UNL     1       2.761   0.998  -0.646  0.00  0.00    +0.305 C 
ENDROOT
BRANCH   4  14
ATOM     14  C   UNL     1      -2.334   0.669   1.413  0.00  0.00    +0.122 C 
BRANCH  14  16
ATOM      6  N   UNL     1      -5.276  -0.520  -0.406  0.00  0.00    -0.274 N 
ATOM      7  N   UNL     1      -4.911  -1.704   0.114  0.00  0.00    -0.180 NA
ATOM     16  C   UNL     1      -3.488  -0.036   0.752  0.00  0.00    +0.004 A 
ATOM     18  C   UNL     1      -4.456   0.512  -0.054  0.00  0.00    +0.112 A 
ATOM     19  C   UNL     1      -3.819  -1.403   0.820  0.00  0.00    +0.139 A 
ATOM     20  C   UNL     1      -6.443  -0.436  -1.249  0.00  0.00    +0.172 C 
ENDBRANCH  14  16
ENDBRANCH   4  14
BRANCH   5  15
ATOM     15  C   UNL     1       4.156  -1.009  -1.344  0.00  0.00    +0.137 C 
BRANCH  15  17
ATOM     17  C   UNL     1       4.683  -1.728  -0.115  0.00  0.00    +0.178 C 
BRANCH  17   2
ATOM      2  O   UNL     1       4.929  -0.781   0.917  0.00  0.00    -0.381 OA
ATOM     21  C   UNL     1       5.430  -1.407   2.090  0.00  0.00    +0.194 C 
ENDBRANCH  17   2
ENDBRANCH  15  17
ENDBRANCH   5  15
TORSDOF 5
