REMARK  Name = 40533400
REMARK  3 active torsions:
REMARK  status: ('A' for Active; 'I' for Inactive)
REMARK    1  A    between atoms: N_3  and  C_13
REMARK    2  A    between atoms: C_13  and  C_18
REMARK    3  A    between atoms: C_16  and  C_19
REMARK                            x       y       z     vdW  Elec       q    Type
REMARK                         _______ _______ _______ _____ _____    ______ ____
ROOT
ATOM      2  O   UNL     1       2.652   1.074   1.721  0.00  0.00    -0.267 OA
ATOM      3  N   UNL     1      -2.071   2.109   0.391  0.00  0.00    -0.294 NA
ATOM      4  N   UNL     1       1.114   2.017   0.245  0.00  0.00    -0.311 N 
ATOM      6  C   UNL     1      -0.442   3.943   0.909  0.00  0.00    +0.024 C 
ATOM      7  C   UNL     1      -0.543   3.027  -1.359  0.00  0.00    +0.050 C 
ATOM      8  C   UNL     1      -0.364   4.318  -0.564  0.00  0.00    +0.017 C 
ATOM      9  C   UNL     1      -1.807   3.292   1.219  0.00  0.00    +0.090 C 
ATOM     10  C   UNL     1      -1.924   2.412  -1.041  0.00  0.00    +0.094 C 
ATOM     11  C   UNL     1       0.740   3.024   1.249  0.00  0.00    +0.130 C 
ATOM     12  C   UNL     1       0.565   2.040  -1.040  0.00  0.00    +0.026 A 
ATOM     14  C   UNL     1       1.002   1.183  -1.975  0.00  0.00    +0.022 A 
ATOM     15  C   UNL     1       2.121   1.102   0.610  0.00  0.00    +0.259 A 
ATOM     16  C   UNL     1       2.566   0.130  -0.450  0.00  0.00    +0.048 A 
ATOM     17  C   UNL     1       2.014   0.211  -1.669  0.00  0.00    +0.015 A 
ENDROOT
BRANCH  16  19
ATOM      5  N   UNL     1       5.741  -1.864  -0.663  0.00  0.00    -0.263 NA
ATOM     19  C   UNL     1       3.581  -0.899  -0.164  0.00  0.00    +0.005 A 
ATOM     23  C   UNL     1       3.377  -1.851   0.829  0.00  0.00    +0.011 A 
ATOM     24  C   UNL     1       4.769  -0.948  -0.875  0.00  0.00    +0.119 A 
ATOM     27  C   UNL     1       4.353  -2.810   1.076  0.00  0.00    +0.020 A 
ATOM     30  C   UNL     1       5.506  -2.774   0.309  0.00  0.00    +0.111 A 
ENDBRANCH  16  19
BRANCH   3  13
ATOM     13  C   UNL     1      -3.393   1.555   0.676  0.00  0.00    +0.158 C 
BRANCH  13  18
ATOM      1  O   UNL     1      -2.590  -0.723   0.967  0.00  0.00    -0.458 OA
ATOM     18  C   UNL     1      -3.473   0.091   0.332  0.00  0.00    +0.120 A 
ATOM     20  C   UNL     1      -4.276  -0.631  -0.520  0.00  0.00    +0.054 A 
ATOM     21  C   UNL     1      -3.866  -1.985  -0.406  0.00  0.00    +0.020 A 
ATOM     22  C   UNL     1      -2.827  -1.989   0.520  0.00  0.00    +0.135 A 
ATOM     25  C   UNL     1      -4.256  -3.207  -0.982  0.00  0.00    +0.011 A 
ATOM     26  C   UNL     1      -2.141  -3.134   0.920  0.00  0.00    +0.047 A 
ATOM     28  C   UNL     1      -3.583  -4.376  -0.600  0.00  0.00    +0.001 A 
ATOM     29  C   UNL     1      -2.545  -4.337   0.335  0.00  0.00    +0.004 A 
ENDBRANCH  13  18
ENDBRANCH   3  13
TORSDOF 3
