REMARK  Name = 75367809
REMARK  7 active torsions:
REMARK  status: ('A' for Active; 'I' for Inactive)
REMARK    1  A    between atoms: O_2  and  C_13
REMARK    2  A    between atoms: O_2  and  C_17
REMARK    3  A    between atoms: O_3  and  C_18
REMARK    4  A    between atoms: O_3  and  C_19
REMARK    5  A    between atoms: N_4  and  C_6
REMARK    6  A    between atoms: N_5  and  C_16
REMARK    7  A    between atoms: C_17  and  C_18
REMARK                            x       y       z     vdW  Elec       q    Type
REMARK                         _______ _______ _______ _____ _____    ______ ____
ROOT
ATOM      1  O   UNL     1       1.006   3.289   0.170  0.00  0.00    -0.376 OA
ATOM      4  N   UNL     1      -0.655   0.711  -0.394  0.00  0.00    -0.295 NA
ATOM     11  C   UNL     1       0.644   0.089  -0.116  0.00  0.00    +0.118 C 
ATOM     12  C   UNL     1      -0.978   1.847   0.471  0.00  0.00    +0.113 C 
ATOM     13  C   UNL     1       1.808   1.008   0.285  0.00  0.00    +0.158 C 
ATOM     14  C   UNL     1      -0.378   3.129  -0.107  0.00  0.00    +0.175 C 
ATOM     15  C   UNL     1       1.849   2.333  -0.464  0.00  0.00    +0.192 C 
ENDROOT
BRANCH   4   6
ATOM      5  N   UNL     1      -4.491  -1.027   0.196  0.00  0.00    -0.305 NA
ATOM      6  C   UNL     1      -1.713  -0.300  -0.367  0.00  0.00    +0.059 C 
ATOM      7  C   UNL     1      -2.868   0.117  -1.281  0.00  0.00    +0.034 C 
ATOM      8  C   UNL     1      -2.228  -0.517   1.059  0.00  0.00    +0.034 C 
ATOM      9  C   UNL     1      -4.027  -0.879  -1.191  0.00  0.00    +0.085 C 
ATOM     10  C   UNL     1      -3.408  -1.492   1.073  0.00  0.00    +0.085 C 
ATOM     16  C   UNL     1      -5.630  -1.942   0.259  0.00  0.00    +0.104 C 
ENDBRANCH   4   6
BRANCH  13   2
ATOM      2  O   UNL     1       3.030   0.317   0.024  0.00  0.00    -0.371 OA
BRANCH   2  17
ATOM     17  C   UNL     1       3.329  -0.609   1.057  0.00  0.00    +0.188 C 
BRANCH  17  18
ATOM     18  C   UNL     1       4.620  -1.329   0.718  0.00  0.00    +0.187 C 
BRANCH  18   3
ATOM      3  O   UNL     1       4.450  -2.034  -0.506  0.00  0.00    -0.381 OA
ATOM     19  C   UNL     1       5.640  -2.712  -0.885  0.00  0.00    +0.194 C 
ENDBRANCH  18   3
ENDBRANCH  17  18
ENDBRANCH   2  17
ENDBRANCH  13   2
TORSDOF 5
