REMARK  Name = 71693076
REMARK  9 active torsions:
REMARK  status: ('A' for Active; 'I' for Inactive)
REMARK    1  A    between atoms: N_1  and  C_12
REMARK    2  A    between atoms: N_2  and  C_19
REMARK    3  A    between atoms: C_4  and  C_8
REMARK    4  A    between atoms: C_6  and  C_12
REMARK    5  A    between atoms: C_7  and  C_11
REMARK    6  A    between atoms: C_8  and  C_13
REMARK    7  A    between atoms: C_8  and  C_14
REMARK    8  A    between atoms: C_9  and  C_15
REMARK    9  A    between atoms: C_11  and  C_16
REMARK                            x       y       z     vdW  Elec       q    Type
REMARK                         _______ _______ _______ _____ _____    ______ ____
ROOT
ATOM      4  C   UNL     1      -2.462   1.074  -0.111  0.00  0.00    +0.000 C 
ATOM      5  C   UNL     1      -1.166   0.386   0.340  0.00  0.00    +0.012 C 
ATOM      6  C   UNL     1      -3.695   0.270   0.361  0.00  0.00    +0.029 C 
ATOM      7  C   UNL     1      -1.046  -1.073  -0.149  0.00  0.00    +0.022 C 
ATOM      9  C   UNL     1      -2.364  -1.831  -0.092  0.00  0.00    -0.073 C 
ATOM     10  C   UNL     1      -3.535  -1.214   0.148  0.00  0.00    -0.023 C 
ATOM     15  C   UNL     1      -2.329  -3.307  -0.377  0.00  0.00    +0.039 C 
ENDROOT
BRANCH   4   8
ATOM      8  C   UNL     1      -2.478   1.283  -1.632  0.00  0.00    -0.013 C 
ATOM     13  C   UNL     1      -1.091   1.673  -2.130  0.00  0.00    +0.007 C 
ATOM     14  C   UNL     1      -3.507   2.342  -2.012  0.00  0.00    +0.007 C 
ENDBRANCH   4   8
BRANCH   7  11
ATOM     11  C   UNL     1       0.073  -1.764   0.641  0.00  0.00    +0.082 C 
BRANCH  11  16
ATOM      2  N   UNL     1       2.150  -1.010  -0.555  0.00  0.00    -0.331 N 
ATOM      3  N   UNL     1       1.863  -0.235   1.508  0.00  0.00    -0.232 NA
ATOM     16  C   UNL     1       1.359  -0.992   0.560  0.00  0.00    +0.111 A 
ATOM     17  C   UNL     1       3.238  -0.211  -0.309  0.00  0.00    +0.069 A 
ATOM     18  C   UNL     1       3.035   0.261   0.985  0.00  0.00    +0.089 A 
ATOM     19  C   UNL     1       1.891  -1.739  -1.776  0.00  0.00    +0.150 C 
ATOM     20  C   UNL     1       4.347   0.128  -1.084  0.00  0.00    +0.028 A 
ATOM     21  C   UNL     1       3.986   1.123   1.555  0.00  0.00    +0.030 A 
ATOM     22  C   UNL     1       5.283   0.988  -0.501  0.00  0.00    +0.002 A 
ATOM     23  C   UNL     1       5.108   1.478   0.795  0.00  0.00    +0.002 A 
ENDBRANCH  11  16
ENDBRANCH   7  11
BRANCH   6  12
ATOM     12  C   UNL     1      -4.014   0.536   1.836  0.00  0.00    +0.085 C 
BRANCH  12   1
ATOM      1  N   UNL     1      -4.647   1.833   1.998  0.00  0.00    -0.329 NA
ATOM     24  H   UNL     1      -4.002   2.578   1.741  0.00  0.00    +0.118 HD
ATOM     25  H   UNL     1      -4.870   1.981   2.982  0.00  0.00    +0.118 HD
ENDBRANCH  12   1
ENDBRANCH   6  12
TORSDOF 5
