REMARK  Name = 45783529
REMARK  6 active torsions:
REMARK  status: ('A' for Active; 'I' for Inactive)
REMARK    1  A    between atoms: N_3  and  C_15
REMARK    2  A    between atoms: C_10  and  C_20
REMARK    3  A    between atoms: C_14  and  C_23
REMARK    4  A    between atoms: C_15  and  C_21
REMARK    5  A    between atoms: C_24  and  C_26
REMARK    6  A    between atoms: C_33  and  C_34
REMARK                            x       y       z     vdW  Elec       q    Type
REMARK                         _______ _______ _______ _____ _____    ______ ____
ROOT
ATOM      1  O   UNL     1      -3.214  -1.560   1.989  0.00  0.00    -0.336 OA
ATOM      5  N   UNL     1      -2.405  -1.119  -0.053  0.00  0.00    -0.190 NA
ATOM      6  N   UNL     1      -1.820  -1.515   2.123  0.00  0.00    -0.056 NA
ATOM     20  C   UNL     1      -3.473  -1.317   0.677  0.00  0.00    +0.245 A 
ATOM     24  C   UNL     1      -1.415  -1.251   0.877  0.00  0.00    +0.204 A 
ENDROOT
BRANCH  24  26
ATOM      4  N   UNL     1       3.976  -0.736  -0.387  0.00  0.00    -0.315 N 
ATOM      7  N   UNL     1       2.284  -1.133   1.221  0.00  0.00    -0.240 NA
ATOM     14  C   UNL     1       6.802  -0.510  -1.015  0.00  0.00    +0.078 C 
ATOM     16  C   UNL     1       5.742   0.294  -1.764  0.00  0.00    +0.031 C 
ATOM     17  C   UNL     1       6.207  -1.777  -0.403  0.00  0.00    +0.031 C 
ATOM     18  C   UNL     1       4.465   0.524  -0.954  0.00  0.00    +0.107 C 
ATOM     19  C   UNL     1       4.940  -1.507   0.407  0.00  0.00    +0.107 C 
ATOM     22  C   UNL     1       2.621  -0.867  -0.061  0.00  0.00    +0.121 A 
ATOM     25  C   UNL     1       1.704  -0.713  -1.088  0.00  0.00    +0.044 A 
ATOM     26  C   UNL     1      -0.032  -1.114   0.528  0.00  0.00    +0.041 A 
ATOM     29  C   UNL     1       0.354  -0.841  -0.779  0.00  0.00    +0.016 A 
ATOM     30  C   UNL     1       0.963  -1.250   1.483  0.00  0.00    +0.124 A 
BRANCH  14  23
ATOM      2  O   UNL     1       7.155   1.484   0.257  0.00  0.00    -0.276 OA
ATOM      8  N   UNL     1       8.479  -0.343   0.707  0.00  0.00    -0.329 N 
ATOM     23  C   UNL     1       7.476   0.318   0.040  0.00  0.00    +0.214 C 
ATOM     35  H   UNL     1       9.003   0.119   1.444  0.00  0.00    +0.145 HD
ATOM     36  H   UNL     1       8.771  -1.286   0.472  0.00  0.00    +0.145 HD
ENDBRANCH  14  23
ENDBRANCH  24  26
BRANCH  20  10
ATOM      3  N   UNL     1      -5.187  -0.454  -0.907  0.00  0.00    -0.287 NA
ATOM     10  C   UNL     1      -4.931  -1.310   0.268  0.00  0.00    +0.146 C 
ATOM     11  C   UNL     1      -5.440  -2.703  -0.144  0.00  0.00    +0.030 C 
ATOM     12  C   UNL     1      -6.018  -2.519  -1.540  0.00  0.00    +0.017 C 
ATOM     13  C   UNL     1      -6.334  -1.038  -1.602  0.00  0.00    +0.085 C 
BRANCH   3  15
ATOM     15  C   UNL     1      -5.409   0.945  -0.563  0.00  0.00    +0.120 C 
BRANCH  15  21
ATOM     21  C   UNL     1      -4.115   1.670  -0.303  0.00  0.00    -0.033 A 
ATOM     27  C   UNL     1      -3.894   2.279   0.932  0.00  0.00    +0.006 A 
ATOM     28  C   UNL     1      -3.139   1.733  -1.297  0.00  0.00    +0.006 A 
ATOM     31  C   UNL     1      -2.695   2.951   1.173  0.00  0.00    +0.019 A 
ATOM     32  C   UNL     1      -1.941   2.405  -1.056  0.00  0.00    +0.019 A 
ATOM     33  C   UNL     1      -1.719   3.014   0.179  0.00  0.00    +0.052 A 
BRANCH  33  34
ATOM      9  N   UNL     1       0.506   4.261   0.627  0.00  0.00    -0.191 NA
ATOM     34  C   UNL     1      -0.491   3.702   0.426  0.00  0.00    +0.099 C 
ENDBRANCH  33  34
ENDBRANCH  15  21
ENDBRANCH   3  15
ENDBRANCH  20  10
TORSDOF 6
