REMARK  Name = 56774725
REMARK  9 active torsions:
REMARK  status: ('A' for Active; 'I' for Inactive)
REMARK    1  A    between atoms: O_3  and  C_9
REMARK    2  A    between atoms: N_6  and  C_10
REMARK    3  A    between atoms: N_7  and  C_22
REMARK    4  A    between atoms: C_8  and  C_9
REMARK    5  A    between atoms: C_9  and  C_15
REMARK    6  A    between atoms: C_10  and  C_12
REMARK    7  A    between atoms: C_12  and  C_16
REMARK    8  A    between atoms: C_12  and  C_17
REMARK    9  A    between atoms: C_23  and  C_24
REMARK                            x       y       z     vdW  Elec       q    Type
REMARK                         _______ _______ _______ _____ _____    ______ ____
ROOT
ATOM     15  C   UNL     1      -0.430   0.020  -0.715  0.00  0.00    -0.017 A 
ATOM     18  C   UNL     1       0.447   1.069  -0.988  0.00  0.00    +0.008 A 
ATOM     19  C   UNL     1       0.061  -1.187  -0.216  0.00  0.00    +0.008 A 
ATOM     20  C   UNL     1       1.815   0.912  -0.764  0.00  0.00    +0.023 A 
ATOM     21  C   UNL     1       1.428  -1.344   0.008  0.00  0.00    +0.023 A 
ATOM     22  C   UNL     1       2.305  -0.295  -0.266  0.00  0.00    +0.034 A 
ENDROOT
BRANCH  22   7
ATOM      5  O   UNL     1       4.572   1.622  -0.686  0.00  0.00    -0.269 OA
ATOM      7  N   UNL     1       3.674  -0.453  -0.042  0.00  0.00    -0.281 N 
ATOM     23  C   UNL     1       4.696   0.481  -0.256  0.00  0.00    +0.255 C 
ATOM     29  H   UNL     1       3.951  -1.361   0.326  0.00  0.00    +0.155 HD
BRANCH  23  24
ATOM      1  S   UNL     1       6.273  -1.555   0.739  0.00  0.00    -0.092 S 
ATOM     24  C   UNL     1       6.063   0.023   0.108  0.00  0.00    +0.074 A 
ATOM     25  C   UNL     1       7.256   0.705   0.014  0.00  0.00    +0.021 A 
ATOM     26  C   UNL     1       8.357  -0.078   0.465  0.00  0.00    +0.008 A 
ATOM     27  C   UNL     1       7.964  -1.329   0.888  0.00  0.00    +0.046 A 
ENDBRANCH  23  24
ENDBRANCH  22   7
BRANCH  15   9
ATOM      9  C   UNL     1      -1.908   0.190  -0.958  0.00  0.00    +0.167 C 
BRANCH   9   8
ATOM      2  O   UNL     1      -2.633   2.277   0.974  0.00  0.00    -0.369 OA
ATOM      4  O   UNL     1      -5.964   1.560  -0.224  0.00  0.00    -0.273 OA
ATOM      6  N   UNL     1      -4.159   0.115   0.048  0.00  0.00    -0.291 N 
ATOM      8  C   UNL     1      -2.723  -0.021   0.321  0.00  0.00    +0.135 C 
ATOM     11  C   UNL     1      -2.304   0.962   1.408  0.00  0.00    +0.185 C 
ATOM     13  C   UNL     1      -4.811   1.342   0.153  0.00  0.00    +0.242 C 
ATOM     14  C   UNL     1      -4.030   2.439   0.868  0.00  0.00    +0.255 C 
BRANCH   6  10
ATOM     10  C   UNL     1      -4.849  -1.037  -0.517  0.00  0.00    +0.111 C 
BRANCH  10  12
ATOM     12  C   UNL     1      -6.122  -1.392   0.258  0.00  0.00    +0.000 C 
ATOM     16  C   UNL     1      -5.778  -1.723   1.710  0.00  0.00    +0.009 C 
ATOM     17  C   UNL     1      -6.864  -2.567  -0.383  0.00  0.00    +0.009 C 
ENDBRANCH  10  12
ENDBRANCH   6  10
ENDBRANCH   9   8
BRANCH   9   3
ATOM      3  O   UNL     1      -2.337  -0.738  -1.948  0.00  0.00    -0.385 OA
ATOM     28  H   UNL     1      -2.158  -1.640  -1.632  0.00  0.00    +0.210 HD
ENDBRANCH   9   3
ENDBRANCH  15   9
TORSDOF 7
