REMARK  Name = 11882854
REMARK  12 active torsions:
REMARK  status: ('A' for Active; 'I' for Inactive)
REMARK    1  A    between atoms: O_2  and  C_16
REMARK    2  A    between atoms: O_3  and  C_21
REMARK    3  A    between atoms: O_7  and  C_38
REMARK    4  A    between atoms: O_7  and  C_39
REMARK    5  A    between atoms: N_9  and  C_27
REMARK    6  A    between atoms: C_11  and  C_19
REMARK    7  A    between atoms: C_13  and  C_21
REMARK    8  A    between atoms: C_13  and  C_22
REMARK    9  A    between atoms: C_14  and  C_24
REMARK   10  A    between atoms: C_24  and  C_25
REMARK   11  A    between atoms: C_27  and  C_29
REMARK   12  A    between atoms: C_28  and  C_30
REMARK                            x       y       z     vdW  Elec       q    Type
REMARK                         _______ _______ _______ _____ _____    ______ ____
ROOT
ATOM      1  S   UNL     1      -0.505   2.804   0.231  0.00  0.00    -0.057 S 
ATOM      5  O   UNL     1       2.836  -0.416  -0.146  0.00  0.00    -0.270 OA
ATOM      8  N   UNL     1      -0.038   0.275  -0.043  0.00  0.00    -0.229 NA
ATOM     10  N   UNL     1       1.881   1.726   0.093  0.00  0.00    -0.261 N 
ATOM     11  C   UNL     1      -3.828  -0.332   0.334  0.00  0.00    -0.019 C 
ATOM     12  C   UNL     1      -4.197   1.069  -0.325  0.00  0.00    +0.011 C 
ATOM     13  C   UNL     1      -5.723   1.471  -0.345  0.00  0.00    +0.021 C 
ATOM     14  C   UNL     1      -2.353  -0.725  -0.138  0.00  0.00    +0.054 C 
ATOM     15  C   UNL     1      -4.810  -1.418  -0.177  0.00  0.00    +0.010 C 
ATOM     16  C   UNL     1      -6.565   0.260  -0.836  0.00  0.00    +0.123 C 
ATOM     17  C   UNL     1      -3.257   2.202   0.181  0.00  0.00    +0.049 C 
ATOM     18  C   UNL     1      -6.276  -1.024  -0.066  0.00  0.00    +0.032 C 
ATOM     19  C   UNL     1      -3.882  -0.302   1.881  0.00  0.00    +0.012 C 
ATOM     20  C   UNL     1      -1.410   0.443  -0.001  0.00  0.00    +0.058 A 
ATOM     22  C   UNL     1      -5.930   2.624  -1.368  0.00  0.00    +0.016 C 
ATOM     23  C   UNL     1      -1.837   1.749   0.123  0.00  0.00    +0.015 A 
ATOM     26  C   UNL     1       0.540   1.450   0.077  0.00  0.00    +0.165 A 
ATOM     28  C   UNL     1       2.931   0.799  -0.017  0.00  0.00    +0.250 C 
ATOM     43  H   UNL     1       2.090   2.717   0.155  0.00  0.00    +0.157 HD
ENDROOT
BRANCH  28  30
ATOM     30  C   UNL     1       4.299   1.382   0.000  0.00  0.00    +0.037 A 
ATOM     32  C   UNL     1       5.347   0.720  -0.638  0.00  0.00    +0.016 A 
ATOM     33  C   UNL     1       4.533   2.592   0.653  0.00  0.00    +0.016 A 
ATOM     36  C   UNL     1       6.630   1.267  -0.623  0.00  0.00    +0.046 A 
ATOM     37  C   UNL     1       5.816   3.139   0.669  0.00  0.00    +0.046 A 
ATOM     38  C   UNL     1       6.865   2.477   0.031  0.00  0.00    +0.120 A 
BRANCH  38   7
ATOM      7  O   UNL     1       8.116   3.012   0.044  0.00  0.00    -0.495 OA
ATOM     39  C   UNL     1       9.141   2.283  -0.630  0.00  0.00    +0.277 C 
ENDBRANCH  38   7
ENDBRANCH  28  30
BRANCH  16   2
ATOM      2  O   UNL     1      -7.960   0.547  -0.742  0.00  0.00    -0.391 OA
ATOM     40  H   UNL     1      -8.443  -0.216  -1.102  0.00  0.00    +0.210 HD
ENDBRANCH  16   2
BRANCH  13  21
ATOM     21  C   UNL     1      -6.261   2.008   1.000  0.00  0.00    +0.165 C 
BRANCH  21   3
ATOM      3  O   UNL     1      -7.622   2.331   0.822  0.00  0.00    -0.394 OA
ATOM     41  H   UNL     1      -7.951   2.677   1.669  0.00  0.00    +0.209 HD
ENDBRANCH  21   3
ENDBRANCH  13  21
BRANCH  14  24
ATOM     24  C   UNL     1      -1.785  -1.986   0.527  0.00  0.00    +0.106 C 
BRANCH  24  25
ATOM      4  O   UNL     1      -0.421  -2.265  -1.453  0.00  0.00    -0.276 OA
ATOM      9  N   UNL     1      -0.246  -3.798   0.286  0.00  0.00    -0.308 N 
ATOM     25  C   UNL     1      -0.753  -2.669  -0.341  0.00  0.00    +0.214 C 
ATOM     42  H   UNL     1      -0.577  -4.040   1.216  0.00  0.00    +0.149 HD
BRANCH   9  27
ATOM     27  C   UNL     1       0.755  -4.651  -0.313  0.00  0.00    +0.178 C 
BRANCH  27  29
ATOM      6  O   UNL     1       2.952  -3.802  -0.903  0.00  0.00    -0.466 OA
ATOM     29  C   UNL     1       2.119  -4.188   0.099  0.00  0.00    +0.122 A 
ATOM     31  C   UNL     1       2.741  -4.061   1.320  0.00  0.00    +0.046 A 
ATOM     34  C   UNL     1       4.039  -3.566   1.050  0.00  0.00    +0.041 A 
ATOM     35  C   UNL     1       4.118  -3.425  -0.316  0.00  0.00    +0.195 A 
ENDBRANCH  27  29
ENDBRANCH   9  27
ENDBRANCH  24  25
ENDBRANCH  14  24
TORSDOF 9
