REMARK  Name = 51137142
REMARK  5 active torsions:
REMARK  status: ('A' for Active; 'I' for Inactive)
REMARK    1  A    between atoms: S_1  and  C_22
REMARK    2  A    between atoms: S_1  and  C_24
REMARK    3  A    between atoms: N_6  and  C_8
REMARK    4  A    between atoms: C_9  and  C_15
REMARK    5  A    between atoms: C_24  and  C_25
REMARK                            x       y       z     vdW  Elec       q    Type
REMARK                         _______ _______ _______ _____ _____    ______ ____
ROOT
ATOM      3  O   UNL     1      -0.634  -2.052   0.516  0.00  0.00    -0.439 OA
ATOM      7  N   UNL     1      -0.448  -0.005  -0.439  0.00  0.00    -0.213 NA
ATOM     15  C   UNL     1       0.155  -1.119  -0.087  0.00  0.00    +0.201 A 
ATOM     18  C   UNL     1      -1.747  -0.208  -0.039  0.00  0.00    +0.111 A 
ATOM     19  C   UNL     1      -1.864  -1.460   0.546  0.00  0.00    +0.155 A 
ATOM     20  C   UNL     1      -2.884   0.606  -0.130  0.00  0.00    +0.058 A 
ATOM     21  C   UNL     1      -3.042  -1.986   1.061  0.00  0.00    +0.050 A 
ATOM     22  C   UNL     1      -4.093   0.110   0.379  0.00  0.00    +0.090 A 
ATOM     23  C   UNL     1      -4.168  -1.161   0.962  0.00  0.00    +0.030 A 
ENDROOT
BRANCH  15   9
ATOM      6  N   UNL     1       3.770  -0.600  -0.382  0.00  0.00    -0.298 NA
ATOM      9  C   UNL     1       1.607  -1.498  -0.265  0.00  0.00    +0.090 C 
ATOM     10  C   UNL     1       2.568  -0.540   0.452  0.00  0.00    +0.097 C 
ATOM     11  C   UNL     1       3.277  -0.559  -1.758  0.00  0.00    +0.085 C 
ATOM     12  C   UNL     1       2.095  -1.519  -1.724  0.00  0.00    +0.029 C 
BRANCH   6   8
ATOM      2  O   UNL     1       7.340   1.325   0.705  0.00  0.00    -0.380 OA
ATOM      8  C   UNL     1       4.704   0.486  -0.092  0.00  0.00    +0.061 C 
ATOM     13  C   UNL     1       5.190   0.399   1.357  0.00  0.00    +0.047 C 
ATOM     14  C   UNL     1       5.900   0.455  -1.049  0.00  0.00    +0.047 C 
ATOM     16  C   UNL     1       6.255   1.456   1.624  0.00  0.00    +0.161 C 
ATOM     17  C   UNL     1       6.926   1.509  -0.649  0.00  0.00    +0.161 C 
ENDBRANCH   6   8
ENDBRANCH  15   9
BRANCH  22   1
ATOM      1  S   UNL     1      -5.533   1.099   0.284  0.00  0.00    -0.003 S 
ATOM      4  O   UNL     1      -6.461   0.675   1.321  0.00  0.00    -0.169 OA
ATOM      5  O   UNL     1      -5.112   2.490   0.211  0.00  0.00    -0.169 OA
BRANCH   1  24
ATOM     24  C   UNL     1      -6.263   0.663  -1.277  0.00  0.00    +0.168 C 
ATOM     25  C   UNL     1      -7.538   1.436  -1.528  0.00  0.00    +0.028 C 
ENDBRANCH   1  24
ENDBRANCH  22   1
TORSDOF 4
