REMARK  Name = 45784326
REMARK  5 active torsions:
REMARK  status: ('A' for Active; 'I' for Inactive)
REMARK    1  A    between atoms: N_1  and  C_10
REMARK    2  A    between atoms: C_5  and  C_9
REMARK    3  A    between atoms: C_10  and  C_11
REMARK    4  A    between atoms: C_20  and  C_24
REMARK    5  A    between atoms: C_21  and  C_23
REMARK                            x       y       z     vdW  Elec       q    Type
REMARK                         _______ _______ _______ _____ _____    ______ ____
ROOT
ATOM      1  N   UNL     1      -2.041  -0.248  -0.160  0.00  0.00    -0.297 NA
ATOM      5  C   UNL     1       0.155  -0.768   0.474  0.00  0.00    +0.070 C 
ATOM      6  C   UNL     1      -0.574  -0.095   1.650  0.00  0.00    +0.028 C 
ATOM      7  C   UNL     1      -0.719  -0.465  -0.750  0.00  0.00    +0.096 C 
ATOM      8  C   UNL     1      -1.795   0.570   1.027  0.00  0.00    +0.085 C 
ENDROOT
BRANCH   5   9
ATOM      2  N   UNL     1       2.617  -1.246   0.356  0.00  0.00    -0.342 N 
ATOM      3  N   UNL     1       2.029   0.877   0.061  0.00  0.00    -0.232 NA
ATOM      9  C   UNL     1       1.594  -0.341   0.292  0.00  0.00    +0.113 A 
ATOM     12  C   UNL     1       3.790  -0.566   0.153  0.00  0.00    +0.067 A 
ATOM     13  C   UNL     1       3.397   0.757  -0.028  0.00  0.00    +0.089 A 
ATOM     16  C   UNL     1       5.121  -0.981   0.115  0.00  0.00    +0.046 A 
ATOM     17  C   UNL     1       4.376   1.737  -0.263  0.00  0.00    +0.031 A 
ATOM     20  C   UNL     1       6.083   0.007  -0.120  0.00  0.00    +0.054 A 
ATOM     22  C   UNL     1       5.719   1.343  -0.306  0.00  0.00    +0.021 A 
ATOM     25  H   UNL     1       2.528  -2.239   0.523  0.00  0.00    +0.167 HD
BRANCH  20  24
ATOM      4  N   UNL     1       8.585  -0.657  -0.212  0.00  0.00    -0.191 NA
ATOM     24  C   UNL     1       7.464  -0.359  -0.171  0.00  0.00    +0.099 C 
ENDBRANCH  20  24
ENDBRANCH   5   9
BRANCH   1  10
ATOM     10  C   UNL     1      -2.966   0.386  -1.088  0.00  0.00    +0.119 C 
BRANCH  10  11
ATOM     11  C   UNL     1      -4.399   0.213  -0.659  0.00  0.00    -0.033 A 
ATOM     14  C   UNL     1      -5.040  -1.010  -0.848  0.00  0.00    +0.005 A 
ATOM     15  C   UNL     1      -5.085   1.278  -0.074  0.00  0.00    +0.005 A 
ATOM     18  C   UNL     1      -6.368  -1.170  -0.453  0.00  0.00    +0.003 A 
ATOM     19  C   UNL     1      -6.413   1.119   0.321  0.00  0.00    +0.003 A 
ATOM     21  C   UNL     1      -7.055  -0.105   0.132  0.00  0.00    -0.050 A 
ATOM     23  C   UNL     1      -8.475  -0.276   0.553  0.00  0.00    +0.044 C 
ENDBRANCH  10  11
ENDBRANCH   1  10
TORSDOF 4
