REMARK  Name = 71693481
REMARK  10 active torsions:
REMARK  status: ('A' for Active; 'I' for Inactive)
REMARK    1  A    between atoms: S_1  and  N_10
REMARK    2  A    between atoms: S_1  and  C_26
REMARK    3  A    between atoms: O_3  and  C_13
REMARK    4  A    between atoms: N_8  and  C_16
REMARK    5  A    between atoms: N_9  and  C_24
REMARK    6  A    between atoms: N_9  and  C_25
REMARK    7  A    between atoms: N_10  and  C_23
REMARK    8  A    between atoms: C_11  and  C_13
REMARK    9  A    between atoms: C_12  and  C_14
REMARK   10  A    between atoms: C_16  and  C_20
REMARK                            x       y       z     vdW  Elec       q    Type
REMARK                         _______ _______ _______ _____ _____    ______ ____
ROOT
ATOM      2  O   UNL     1       0.575   2.545  -0.005  0.00  0.00    -0.361 OA
ATOM      4  O   UNL     1       4.127   2.443   0.259  0.00  0.00    -0.273 OA
ATOM      8  N   UNL     1       2.595   0.695   0.444  0.00  0.00    -0.283 N 
ATOM     11  C   UNL     1       1.175   0.266   0.460  0.00  0.00    +0.135 C 
ATOM     12  C   UNL     1       0.301   1.200  -0.400  0.00  0.00    +0.171 C 
ATOM     15  C   UNL     1       2.977   2.008   0.162  0.00  0.00    +0.242 C 
ATOM     17  C   UNL     1       1.884   2.916  -0.366  0.00  0.00    +0.256 C 
ENDROOT
BRANCH  12  14
ATOM     14  C   UNL     1      -1.189   0.984  -0.234  0.00  0.00    -0.017 A 
ATOM     18  C   UNL     1      -1.770   1.067   1.031  0.00  0.00    +0.008 A 
ATOM     19  C   UNL     1      -1.980   0.704  -1.348  0.00  0.00    +0.008 A 
ATOM     21  C   UNL     1      -3.142   0.869   1.183  0.00  0.00    +0.025 A 
ATOM     22  C   UNL     1      -3.352   0.506  -1.197  0.00  0.00    +0.025 A 
ATOM     23  C   UNL     1      -3.933   0.589   0.069  0.00  0.00    +0.048 A 
BRANCH  23  10
ATOM     10  N   UNL     1      -5.338   0.387   0.225  0.00  0.00    -0.221 N 
ATOM     28  H   UNL     1      -5.752   0.916   1.004  0.00  0.00    +0.173 HD
BRANCH  10   1
ATOM      1  S   UNL     1      -5.960  -1.206   0.012  0.00  0.00    +0.040 S 
ATOM      6  O   UNL     1      -7.408  -1.129  -0.042  0.00  0.00    -0.155 OA
ATOM      7  O   UNL     1      -5.221  -1.918  -1.011  0.00  0.00    -0.155 OA
ATOM     26  C   UNL     1      -5.540  -1.919   1.586  0.00  0.00    +0.218 C 
ENDBRANCH  10   1
ENDBRANCH  23  10
ENDBRANCH  12  14
BRANCH  11  13
ATOM     13  C   UNL     1       0.997  -1.195   0.022  0.00  0.00    +0.181 C 
BRANCH  13   3
ATOM      3  O   UNL     1       1.373  -1.297  -1.336  0.00  0.00    -0.393 OA
ATOM     27  H   UNL     1       1.242  -2.223  -1.603  0.00  0.00    +0.209 HD
ENDBRANCH  13   3
ENDBRANCH  11  13
BRANCH   8  16
ATOM     16  C   UNL     1       3.598  -0.226   0.973  0.00  0.00    +0.204 C 
BRANCH  16  20
ATOM      5  O   UNL     1       4.022  -0.681  -1.342  0.00  0.00    -0.274 OA
ATOM      9  N   UNL     1       5.273  -1.874   0.204  0.00  0.00    -0.306 N 
ATOM     20  C   UNL     1       4.305  -0.935  -0.169  0.00  0.00    +0.232 C 
ATOM     24  C   UNL     1       5.590  -2.157   1.599  0.00  0.00    +0.131 C 
ATOM     25  C   UNL     1       6.039  -2.640  -0.776  0.00  0.00    +0.131 C 
ENDBRANCH  16  20
ENDBRANCH   8  16
TORSDOF 7
