REMARK  Name = 26742545
REMARK  12 active torsions:
REMARK  status: ('A' for Active; 'I' for Inactive)
REMARK    1  A    between atoms: O_3  and  C_25
REMARK    2  A    between atoms: O_3  and  C_30
REMARK    3  A    between atoms: O_4  and  C_27
REMARK    4  A    between atoms: O_4  and  C_31
REMARK    5  A    between atoms: N_6  and  C_17
REMARK    6  A    between atoms: C_16  and  C_18
REMARK    7  A    between atoms: C_17  and  C_20
REMARK    8  A    between atoms: C_18  and  C_19
REMARK    9  A    between atoms: C_19  and  C_21
REMARK   10  A    between atoms: C_19  and  C_22
REMARK   11  A    between atoms: C_19  and  C_23
REMARK   12  A    between atoms: C_20  and  C_24
REMARK                            x       y       z     vdW  Elec       q    Type
REMARK                         _______ _______ _______ _____ _____    ______ ____
ROOT
ATOM      1  O   UNL     1      -0.549   4.117  -0.848  0.00  0.00    -0.276 OA
ATOM      2  O   UNL     1       3.393  -1.583  -1.836  0.00  0.00    -0.276 OA
ATOM      5  N   UNL     1       3.640   0.298  -0.495  0.00  0.00    -0.301 N 
ATOM      6  N   UNL     1      -0.399   2.629   0.925  0.00  0.00    -0.301 N 
ATOM      7  C   UNL     1       2.766   1.929   1.168  0.00  0.00    +0.011 C 
ATOM      8  C   UNL     1       2.586   2.945   0.015  0.00  0.00    +0.004 C 
ATOM      9  C   UNL     1       2.374   2.237  -1.336  0.00  0.00    +0.023 C 
ATOM     10  C   UNL     1       3.885   0.931   0.807  0.00  0.00    +0.111 C 
ATOM     11  C   UNL     1       1.491   1.166   1.574  0.00  0.00    +0.024 C 
ATOM     12  C   UNL     1       1.537   4.029   0.293  0.00  0.00    +0.100 C 
ATOM     13  C   UNL     1       3.491   1.232  -1.611  0.00  0.00    +0.108 C 
ATOM     14  C   UNL     1       0.362   2.077   2.044  0.00  0.00    +0.108 C 
ATOM     15  C   UNL     1       0.099   3.603   0.067  0.00  0.00    +0.216 C 
ATOM     16  C   UNL     1       3.574  -1.076  -0.726  0.00  0.00    +0.216 C 
ENDROOT
BRANCH   6  17
ATOM     17  C   UNL     1      -1.742   2.100   0.727  0.00  0.00    +0.112 C 
BRANCH  17  20
ATOM     20  C   UNL     1      -1.761   0.871  -0.178  0.00  0.00    +0.058 C 
BRANCH  20  24
ATOM     24  C   UNL     1      -3.151   0.332  -0.411  0.00  0.00    -0.001 A 
ATOM     25  C   UNL     1      -3.591  -0.816   0.248  0.00  0.00    +0.165 A 
ATOM     26  C   UNL     1      -3.999   0.997  -1.297  0.00  0.00    +0.007 A 
ATOM     27  C   UNL     1      -4.880  -1.299   0.021  0.00  0.00    +0.162 A 
ATOM     28  C   UNL     1      -5.287   0.513  -1.524  0.00  0.00    +0.004 A 
ATOM     29  C   UNL     1      -5.728  -0.635  -0.865  0.00  0.00    +0.049 A 
BRANCH  25   3
ATOM      3  O   UNL     1      -2.765  -1.468   1.115  0.00  0.00    -0.491 OA
ATOM     30  C   UNL     1      -1.937  -2.493   0.571  0.00  0.00    +0.277 C 
ENDBRANCH  25   3
BRANCH  27   4
ATOM      4  O   UNL     1      -5.323  -2.419   0.658  0.00  0.00    -0.491 OA
ATOM     31  C   UNL     1      -6.653  -2.845   0.369  0.00  0.00    +0.277 C 
ENDBRANCH  27   4
ENDBRANCH  20  24
ENDBRANCH  17  20
ENDBRANCH   6  17
BRANCH  16  18
ATOM     18  C   UNL     1       3.735  -1.972   0.476  0.00  0.00    +0.102 C 
BRANCH  18  19
ATOM     19  C   UNL     1       3.701  -3.468   0.116  0.00  0.00    -0.029 C 
ATOM     21  C   UNL     1       2.369  -3.848  -0.553  0.00  0.00    +0.011 C 
ATOM     22  C   UNL     1       3.915  -4.344   1.362  0.00  0.00    +0.011 C 
ATOM     23  C   UNL     1       4.845  -3.740  -0.879  0.00  0.00    +0.011 C 
ENDBRANCH  18  19
ENDBRANCH  16  18
TORSDOF 7
