REMARK  Name = 75367701
REMARK  3 active torsions:
REMARK  status: ('A' for Active; 'I' for Inactive)
REMARK    1  A    between atoms: O_2  and  C_7
REMARK    2  A    between atoms: O_2  and  C_14
REMARK    3  A    between atoms: C_12  and  C_13
REMARK                            x       y       z     vdW  Elec       q    Type
REMARK                         _______ _______ _______ _____ _____    ______ ____
ROOT
ATOM      1  O   UNL     1      -0.836  -3.201  -0.683  0.00  0.00    -0.375 OA
ATOM      3  O   UNL     1       3.444  -1.785   1.044  0.00  0.00    -0.270 OA
ATOM      4  N   UNL     1       1.204  -1.225   0.644  0.00  0.00    -0.292 N 
ATOM      7  C   UNL     1      -1.114  -0.801  -0.339  0.00  0.00    +0.216 C 
ATOM      8  C   UNL     1       0.225  -0.247   0.156  0.00  0.00    +0.155 C 
ATOM      9  C   UNL     1       0.717  -2.533   1.087  0.00  0.00    +0.136 C 
ATOM     10  C   UNL     1      -0.959  -1.943  -1.341  0.00  0.00    +0.206 C 
ATOM     11  C   UNL     1       0.440  -3.446  -0.100  0.00  0.00    +0.179 C 
ATOM     12  C   UNL     1       2.587  -0.983   0.673  0.00  0.00    +0.247 C 
ENDROOT
BRANCH  12  13
ATOM      6  N   UNL     1       3.998   2.831  -0.617  0.00  0.00    -0.263 NA
ATOM     13  C   UNL     1       3.075   0.332   0.229  0.00  0.00    +0.040 A 
ATOM     15  C   UNL     1       3.210   1.371   1.142  0.00  0.00    +0.033 A 
ATOM     16  C   UNL     1       3.401   0.540  -1.107  0.00  0.00    +0.033 A 
ATOM     19  C   UNL     1       3.671   2.591   0.672  0.00  0.00    +0.111 A 
ATOM     20  C   UNL     1       3.854   1.796  -1.476  0.00  0.00    +0.111 A 
ENDBRANCH  12  13
BRANCH   7   2
ATOM      2  O   UNL     1      -1.801   0.281  -0.969  0.00  0.00    -0.483 OA
BRANCH   2  14
ATOM      5  N   UNL     1      -4.323   2.384   0.637  0.00  0.00    -0.260 NA
ATOM     14  C   UNL     1      -2.989   0.660  -0.409  0.00  0.00    +0.139 A 
ATOM     17  C   UNL     1      -4.050  -0.234  -0.305  0.00  0.00    +0.049 A 
ATOM     18  C   UNL     1      -3.175   1.946   0.073  0.00  0.00    +0.156 A 
ATOM     21  C   UNL     1      -5.247   0.180   0.269  0.00  0.00    +0.023 A 
ATOM     22  C   UNL     1      -5.332   1.487   0.720  0.00  0.00    +0.111 A 
ENDBRANCH   2  14
ENDBRANCH   7   2
TORSDOF 3
