REMARK  Name = 11912116
REMARK  6 active torsions:
REMARK  status: ('A' for Active; 'I' for Inactive)
REMARK    1  A    between atoms: O_4  and  C_34
REMARK    2  A    between atoms: O_4  and  C_35
REMARK    3  A    between atoms: N_7  and  C_17
REMARK    4  A    between atoms: N_8  and  C_24
REMARK    5  A    between atoms: C_27  and  C_28
REMARK    6  A    between atoms: C_28  and  C_29
REMARK                            x       y       z     vdW  Elec       q    Type
REMARK                         _______ _______ _______ _____ _____    ______ ____
ROOT
ATOM      1  O   UNL     1       3.082   1.837   2.333  0.00  0.00    -0.253 OA
ATOM      2  O   UNL     1       0.733  -2.757   1.615  0.00  0.00    -0.266 OA
ATOM      5  N   UNL     1       4.189   0.709   0.637  0.00  0.00    -0.285 N 
ATOM      6  N   UNL     1       2.498  -1.953   0.312  0.00  0.00    -0.310 N 
ATOM      7  N   UNL     1       2.666   2.458   0.166  0.00  0.00    -0.296 N 
ATOM      9  C   UNL     1       4.861  -1.615   1.239  0.00  0.00    +0.027 C 
ATOM     10  C   UNL     1       4.375  -1.051  -1.106  0.00  0.00    +0.054 C 
ATOM     11  C   UNL     1       5.305  -1.855  -0.199  0.00  0.00    +0.018 C 
ATOM     12  C   UNL     1       4.939  -0.117   1.587  0.00  0.00    +0.114 C 
ATOM     13  C   UNL     1       4.512   0.449  -0.777  0.00  0.00    +0.119 C 
ATOM     14  C   UNL     1       3.444  -2.174   1.415  0.00  0.00    +0.130 C 
ATOM     15  C   UNL     1       2.932  -1.487  -0.933  0.00  0.00    +0.027 A 
ATOM     16  C   UNL     1       3.300   1.680   1.127  0.00  0.00    +0.302 C 
ATOM     18  C   UNL     1       2.070  -1.397  -1.960  0.00  0.00    +0.024 A 
ATOM     19  C   UNL     1       1.158  -2.326   0.542  0.00  0.00    +0.273 A 
ATOM     24  C   UNL     1       0.224  -2.188  -0.620  0.00  0.00    +0.099 A 
ATOM     25  C   UNL     1       0.689  -1.755  -1.796  0.00  0.00    +0.030 A 
ATOM     36  H   UNL     1       2.771   2.258  -0.817  0.00  0.00    +0.151 HD
ENDROOT
BRANCH   7  17
ATOM     17  C   UNL     1       1.718   3.491   0.518  0.00  0.00    +0.074 C 
ATOM     20  C   UNL     1       1.772   4.652  -0.481  0.00  0.00    +0.022 C 
ATOM     21  C   UNL     1       0.299   2.922   0.632  0.00  0.00    +0.022 C 
ATOM     22  C   UNL     1       1.175   4.282  -1.839  0.00  0.00    +0.002 C 
ATOM     23  C   UNL     1      -0.295   2.556  -0.728  0.00  0.00    +0.002 C 
ATOM     26  C   UNL     1      -0.240   3.729  -1.701  0.00  0.00    +0.000 C 
ENDBRANCH   7  17
BRANCH  24   8
ATOM      3  O   UNL     1      -2.028  -1.069  -1.987  0.00  0.00    -0.275 OA
ATOM      8  N   UNL     1      -1.084  -2.526  -0.434  0.00  0.00    -0.281 N 
ATOM     27  C   UNL     1      -2.137  -1.944  -1.130  0.00  0.00    +0.222 C 
ATOM     37  H   UNL     1      -1.297  -3.058   0.406  0.00  0.00    +0.155 HD
BRANCH  27  28
ATOM     28  C   UNL     1      -3.470  -2.528  -0.702  0.00  0.00    +0.131 C 
BRANCH  28  29
ATOM     29  C   UNL     1      -4.417  -1.503  -0.135  0.00  0.00    -0.038 A 
ATOM     30  C   UNL     1      -4.412  -1.230   1.233  0.00  0.00    +0.007 A 
ATOM     31  C   UNL     1      -5.298  -0.827  -0.978  0.00  0.00    +0.007 A 
ATOM     32  C   UNL     1      -5.289  -0.280   1.757  0.00  0.00    +0.046 A 
ATOM     33  C   UNL     1      -6.175   0.122  -0.454  0.00  0.00    +0.046 A 
ATOM     34  C   UNL     1      -6.171   0.396   0.914  0.00  0.00    +0.120 A 
BRANCH  34   4
ATOM      4  O   UNL     1      -7.026   1.323   1.425  0.00  0.00    -0.495 OA
ATOM     35  C   UNL     1      -7.900   1.977   0.507  0.00  0.00    +0.277 C 
ENDBRANCH  34   4
ENDBRANCH  28  29
ENDBRANCH  27  28
ENDBRANCH  24   8
TORSDOF 5
