REMARK  Name = 7687228
REMARK  4 active torsions:
REMARK  status: ('A' for Active; 'I' for Inactive)
REMARK    1  A    between atoms: S_2  and  N_6
REMARK    2  A    between atoms: S_2  and  C_19
REMARK    3  A    between atoms: C_15  and  C_20
REMARK    4  A    between atoms: C_23  and  C_27
REMARK                            x       y       z     vdW  Elec       q    Type
REMARK                         _______ _______ _______ _____ _____    ______ ____
ROOT
ATOM      5  O   UNL     1       2.574   4.781  -0.788  0.00  0.00    -0.268 OA
ATOM      6  N   UNL     1       2.133  -0.145  -0.218  0.00  0.00    -0.176 NA
ATOM      7  N   UNL     1       1.612   2.933   0.282  0.00  0.00    -0.311 N 
ATOM      8  C   UNL     1       3.037   1.275   1.623  0.00  0.00    +0.025 C 
ATOM      9  C   UNL     1       0.615   0.932   1.429  0.00  0.00    +0.052 C 
ATOM     10  C   UNL     1       1.766   1.061   2.425  0.00  0.00    +0.017 C 
ATOM     11  C   UNL     1       3.298   0.088   0.682  0.00  0.00    +0.114 C 
ATOM     12  C   UNL     1       0.852  -0.298   0.532  0.00  0.00    +0.119 C 
ATOM     13  C   UNL     1       2.916   2.602   0.873  0.00  0.00    +0.130 C 
ATOM     14  C   UNL     1       0.448   2.193   0.574  0.00  0.00    +0.033 A 
ATOM     15  C   UNL     1      -0.759   2.592   0.089  0.00  0.00    -0.005 A 
ATOM     16  C   UNL     1       1.592   4.091  -0.515  0.00  0.00    +0.252 A 
ATOM     17  C   UNL     1      -0.808   3.789  -0.736  0.00  0.00    +0.015 A 
ATOM     18  C   UNL     1       0.274   4.503  -1.043  0.00  0.00    +0.071 A 
ENDROOT
BRANCH   6   2
ATOM      2  S   UNL     1       2.389  -1.270  -1.483  0.00  0.00    +0.061 S 
ATOM      3  O   UNL     1       3.731  -1.104  -2.000  0.00  0.00    -0.153 OA
ATOM      4  O   UNL     1       1.243  -1.253  -2.367  0.00  0.00    -0.153 OA
BRANCH   2  19
ATOM     19  C   UNL     1       2.347  -2.779  -0.568  0.00  0.00    +0.105 A 
ATOM     21  C   UNL     1       1.137  -3.432  -0.393  0.00  0.00    +0.028 A 
ATOM     22  C   UNL     1       3.523  -3.285  -0.040  0.00  0.00    +0.028 A 
ATOM     24  C   UNL     1       1.104  -4.625   0.330  0.00  0.00    +0.002 A 
ATOM     25  C   UNL     1       3.490  -4.478   0.683  0.00  0.00    +0.002 A 
ATOM     26  C   UNL     1       2.280  -5.147   0.868  0.00  0.00    +0.000 A 
ENDBRANCH   2  19
ENDBRANCH   6   2
BRANCH  15  20
ATOM     20  C   UNL     1      -1.991   1.860   0.335  0.00  0.00    +0.010 C 
ATOM     23  C   UNL     1      -2.414   0.884  -0.467  0.00  0.00    +0.008 C 
BRANCH  23  27
ATOM      1 CL   UNL     1      -7.451  -2.206   0.350  0.00  0.00    -0.084 Cl
ATOM     27  C   UNL     1      -3.658   0.121  -0.264  0.00  0.00    -0.025 A 
ATOM     28  C   UNL     1      -4.657   0.650   0.538  0.00  0.00    +0.009 A 
ATOM     29  C   UNL     1      -3.806  -1.111  -0.881  0.00  0.00    +0.009 A 
ATOM     30  C   UNL     1      -5.835  -0.073   0.729  0.00  0.00    +0.020 A 
ATOM     31  C   UNL     1      -4.984  -1.834  -0.690  0.00  0.00    +0.020 A 
ATOM     32  C   UNL     1      -5.998  -1.315   0.115  0.00  0.00    +0.041 A 
ENDBRANCH  23  27
ENDBRANCH  15  20
TORSDOF 4
