REMARK  Name = 45783571
REMARK  12 active torsions:
REMARK  status: ('A' for Active; 'I' for Inactive)
REMARK    1  A    between atoms: O_2  and  C_17
REMARK    2  A    between atoms: O_3  and  C_22
REMARK    3  A    between atoms: O_3  and  C_28
REMARK    4  A    between atoms: O_4  and  C_27
REMARK    5  A    between atoms: O_4  and  C_29
REMARK    6  A    between atoms: O_5  and  C_30
REMARK    7  A    between atoms: O_5  and  C_31
REMARK    8  A    between atoms: N_6  and  C_14
REMARK    9  A    between atoms: C_10  and  C_15
REMARK   10  A    between atoms: C_14  and  C_16
REMARK   11  A    between atoms: C_19  and  C_23
REMARK   12  A    between atoms: C_29  and  C_30
REMARK                            x       y       z     vdW  Elec       q    Type
REMARK                         _______ _______ _______ _____ _____    ______ ____
ROOT
ATOM      6  N   UNL     1      -4.127  -0.263  -0.989  0.00  0.00    -0.287 NA
ATOM     10  C   UNL     1      -4.005  -1.244   0.108  0.00  0.00    +0.146 C 
ATOM     11  C   UNL     1      -4.545  -2.559  -0.483  0.00  0.00    +0.030 C 
ATOM     12  C   UNL     1      -5.003  -2.205  -1.891  0.00  0.00    +0.017 C 
ATOM     13  C   UNL     1      -5.243  -0.711  -1.823  0.00  0.00    +0.085 C 
ENDROOT
BRANCH  10  15
ATOM      1  O   UNL     1      -2.441  -1.758   1.914  0.00  0.00    -0.336 OA
ATOM      7  N   UNL     1      -1.456  -1.163  -0.007  0.00  0.00    -0.190 NA
ATOM      8  N   UNL     1      -1.062  -1.804   2.154  0.00  0.00    -0.056 NA
ATOM     15  C   UNL     1      -2.586  -1.372   0.619  0.00  0.00    +0.245 A 
ATOM     19  C   UNL     1      -0.549  -1.441   0.974  0.00  0.00    +0.204 A 
BRANCH  19  23
ATOM      9  N   UNL     1       2.681  -0.862  -0.775  0.00  0.00    -0.221 NA
ATOM     23  C   UNL     1       0.864  -1.347   0.744  0.00  0.00    +0.041 A 
ATOM     24  C   UNL     1       1.775  -1.633   1.754  0.00  0.00    +0.018 A 
ATOM     25  C   UNL     1       1.363  -0.969  -0.492  0.00  0.00    +0.126 A 
ATOM     26  C   UNL     1       3.139  -1.534   1.501  0.00  0.00    +0.068 A 
ATOM     27  C   UNL     1       3.537  -1.148   0.231  0.00  0.00    +0.215 A 
BRANCH  27   4
ATOM      4  O   UNL     1       4.875  -1.043  -0.043  0.00  0.00    -0.474 OA
BRANCH   4  29
ATOM     29  C   UNL     1       5.229  -0.643  -1.361  0.00  0.00    +0.258 C 
BRANCH  29  30
ATOM     30  C   UNL     1       6.740  -0.562  -1.465  0.00  0.00    +0.200 C 
BRANCH  30   5
ATOM      5  O   UNL     1       7.217   0.407  -0.539  0.00  0.00    -0.380 OA
ATOM     31  C   UNL     1       8.633   0.510  -0.578  0.00  0.00    +0.194 C 
ENDBRANCH  30   5
ENDBRANCH  29  30
ENDBRANCH   4  29
ENDBRANCH  27   4
ENDBRANCH  19  23
ENDBRANCH  10  15
BRANCH   6  14
ATOM     14  C   UNL     1      -4.308   1.105  -0.519  0.00  0.00    +0.124 C 
BRANCH  14  16
ATOM     16  C   UNL     1      -3.006   1.728  -0.091  0.00  0.00    +0.008 A 
ATOM     17  C   UNL     1      -1.943   1.843  -0.987  0.00  0.00    +0.125 A 
ATOM     18  C   UNL     1      -2.870   2.193   1.217  0.00  0.00    +0.012 A 
ATOM     20  C   UNL     1      -0.743   2.424  -0.574  0.00  0.00    +0.091 A 
ATOM     21  C   UNL     1      -1.670   2.773   1.629  0.00  0.00    +0.046 A 
ATOM     22  C   UNL     1      -0.607   2.888   0.734  0.00  0.00    +0.124 A 
BRANCH  17   2
ATOM      2  O   UNL     1      -2.059   1.394  -2.268  0.00  0.00    -0.506 OA
ATOM     32  H   UNL     1      -1.224   1.550  -2.740  0.00  0.00    +0.292 HD
ENDBRANCH  17   2
BRANCH  22   3
ATOM      3  O   UNL     1       0.563   3.455   1.136  0.00  0.00    -0.495 OA
ATOM     28  C   UNL     1       1.609   3.541   0.170  0.00  0.00    +0.277 C 
ENDBRANCH  22   3
ENDBRANCH  14  16
ENDBRANCH   6  14
TORSDOF 10
