REMARK  Name = 45783711
REMARK  6 active torsions:
REMARK  status: ('A' for Active; 'I' for Inactive)
REMARK    1  A    between atoms: O_2  and  C_23
REMARK    2  A    between atoms: O_2  and  C_24
REMARK    3  A    between atoms: N_3  and  C_13
REMARK    4  A    between atoms: C_9  and  C_14
REMARK    5  A    between atoms: C_13  and  C_15
REMARK    6  A    between atoms: C_16  and  C_19
REMARK                            x       y       z     vdW  Elec       q    Type
REMARK                         _______ _______ _______ _____ _____    ______ ____
ROOT
ATOM      1  O   UNL     1      -1.052  -0.283   2.016  0.00  0.00    -0.336 OA
ATOM      4  N   UNL     1      -0.337  -0.991   0.015  0.00  0.00    -0.190 NA
ATOM      7  N   UNL     1       0.327  -0.037   1.985  0.00  0.00    -0.056 NA
ATOM     14  C   UNL     1      -1.360  -0.846   0.818  0.00  0.00    +0.245 A 
ATOM     16  C   UNL     1       0.675  -0.481   0.773  0.00  0.00    +0.204 A 
ENDROOT
BRANCH  16  19
ATOM      8  N   UNL     1       4.336   0.168   0.679  0.00  0.00    -0.221 NA
ATOM     19  C   UNL     1       2.026  -0.431   0.292  0.00  0.00    +0.041 A 
ATOM     20  C   UNL     1       2.353  -0.904  -0.974  0.00  0.00    +0.018 A 
ATOM     21  C   UNL     1       3.045   0.091   1.073  0.00  0.00    +0.126 A 
ATOM     22  C   UNL     1       3.670  -0.842  -1.414  0.00  0.00    +0.068 A 
ATOM     23  C   UNL     1       4.616  -0.301  -0.557  0.00  0.00    +0.214 A 
BRANCH  23   2
ATOM      2  O   UNL     1       5.921  -0.229  -0.968  0.00  0.00    -0.480 OA
ATOM     24  C   UNL     1       6.851   0.335  -0.050  0.00  0.00    +0.279 C 
ENDBRANCH  23   2
ENDBRANCH  16  19
BRANCH  14   9
ATOM      3  N   UNL     1      -3.389  -0.557  -0.594  0.00  0.00    -0.284 NA
ATOM      9  C   UNL     1      -2.813  -1.211   0.599  0.00  0.00    +0.146 C 
ATOM     10  C   UNL     1      -3.018  -2.718   0.356  0.00  0.00    +0.030 C 
ATOM     11  C   UNL     1      -3.768  -2.809  -0.965  0.00  0.00    +0.017 C 
ATOM     12  C   UNL     1      -4.432  -1.453  -1.093  0.00  0.00    +0.085 C 
BRANCH   3  13
ATOM     13  C   UNL     1      -3.898   0.781  -0.325  0.00  0.00    +0.159 C 
BRANCH  13  15
ATOM      5  N   UNL     1      -1.971   2.006  -1.358  0.00  0.00    -0.347 N 
ATOM      6  N   UNL     1      -2.485   2.592   0.721  0.00  0.00    -0.239 NA
ATOM     15  C   UNL     1      -2.794   1.804  -0.285  0.00  0.00    +0.121 A 
ATOM     17  C   UNL     1      -1.082   2.985  -1.015  0.00  0.00    +0.104 A 
ATOM     18  C   UNL     1      -1.419   3.331   0.273  0.00  0.00    +0.130 A 
ATOM     25  H   UNL     1      -2.011   1.519  -2.244  0.00  0.00    +0.167 HD
ENDBRANCH  13  15
ENDBRANCH   3  13
ENDBRANCH  14   9
TORSDOF 5
