REMARK  Name = 45783574
REMARK  11 active torsions:
REMARK  status: ('A' for Active; 'I' for Inactive)
REMARK    1  A    between atoms: S_1  and  C_23
REMARK    2  A    between atoms: S_1  and  C_25
REMARK    3  A    between atoms: O_5  and  C_29
REMARK    4  A    between atoms: O_5  and  C_30
REMARK    5  A    between atoms: O_6  and  C_31
REMARK    6  A    between atoms: O_6  and  C_32
REMARK    7  A    between atoms: N_7  and  C_15
REMARK    8  A    between atoms: C_11  and  C_16
REMARK    9  A    between atoms: C_15  and  C_17
REMARK   10  A    between atoms: C_20  and  C_24
REMARK   11  A    between atoms: C_30  and  C_31
REMARK                            x       y       z     vdW  Elec       q    Type
REMARK                         _______ _______ _______ _____ _____    ______ ____
ROOT
ATOM      7  N   UNL     1      -4.746  -0.624   0.126  0.00  0.00    -0.287 NA
ATOM     11  C   UNL     1      -3.891  -1.734   0.593  0.00  0.00    +0.146 C 
ATOM     12  C   UNL     1      -4.625  -3.010   0.142  0.00  0.00    +0.030 C 
ATOM     13  C   UNL     1      -5.909  -2.520  -0.513  0.00  0.00    +0.017 C 
ATOM     14  C   UNL     1      -6.113  -1.144   0.088  0.00  0.00    +0.085 C 
ENDROOT
BRANCH  11  16
ATOM      2  O   UNL     1      -2.352  -1.623  -1.302  0.00  0.00    -0.336 OA
ATOM      8  N   UNL     1      -1.343  -1.597   0.698  0.00  0.00    -0.190 NA
ATOM      9  N   UNL     1      -0.977  -1.545  -1.560  0.00  0.00    -0.056 NA
ATOM     16  C   UNL     1      -2.480  -1.649   0.050  0.00  0.00    +0.245 A 
ATOM     20  C   UNL     1      -0.450  -1.534  -0.332  0.00  0.00    +0.204 A 
BRANCH  20  24
ATOM     10  N   UNL     1       3.202  -1.328  -1.004  0.00  0.00    -0.221 NA
ATOM     24  C   UNL     1       0.964  -1.460  -0.100  0.00  0.00    +0.041 A 
ATOM     26  C   UNL     1       1.477  -1.450   1.192  0.00  0.00    +0.018 A 
ATOM     27  C   UNL     1       1.860  -1.398  -1.154  0.00  0.00    +0.126 A 
ATOM     28  C   UNL     1       2.852  -1.378   1.387  0.00  0.00    +0.068 A 
ATOM     29  C   UNL     1       3.664  -1.320   0.266  0.00  0.00    +0.215 A 
BRANCH  29   5
ATOM      5  O   UNL     1       5.022  -1.249   0.432  0.00  0.00    -0.474 OA
BRANCH   5  30
ATOM     30  C   UNL     1       5.809  -1.191  -0.752  0.00  0.00    +0.258 C 
BRANCH  30  31
ATOM     31  C   UNL     1       7.273  -1.093  -0.368  0.00  0.00    +0.200 C 
BRANCH  31   6
ATOM      6  O   UNL     1       7.477   0.095   0.387  0.00  0.00    -0.380 OA
ATOM     32  C   UNL     1       8.832   0.228   0.793  0.00  0.00    +0.194 C 
ENDBRANCH  31   6
ENDBRANCH  30  31
ENDBRANCH   5  30
ENDBRANCH  29   5
ENDBRANCH  20  24
ENDBRANCH  11  16
BRANCH   7  15
ATOM     15  C   UNL     1      -4.637   0.572   0.952  0.00  0.00    +0.120 C 
BRANCH  15  17
ATOM     17  C   UNL     1      -3.404   1.369   0.622  0.00  0.00    -0.033 A 
ATOM     18  C   UNL     1      -2.455   1.627   1.612  0.00  0.00    +0.007 A 
ATOM     19  C   UNL     1      -3.209   1.851  -0.672  0.00  0.00    +0.007 A 
ATOM     21  C   UNL     1      -1.312   2.366   1.306  0.00  0.00    +0.027 A 
ATOM     22  C   UNL     1      -2.067   2.590  -0.978  0.00  0.00    +0.027 A 
ATOM     23  C   UNL     1      -1.118   2.848   0.012  0.00  0.00    +0.088 A 
BRANCH  23   1
ATOM      1  S   UNL     1       0.315   3.770  -0.371  0.00  0.00    -0.006 S 
ATOM      3  O   UNL     1       0.040   4.609  -1.529  0.00  0.00    -0.170 OA
ATOM      4  O   UNL     1       0.800   4.375   0.861  0.00  0.00    -0.170 OA
ATOM     25  C   UNL     1       1.502   2.550  -0.885  0.00  0.00    +0.200 C 
ENDBRANCH  23   1
ENDBRANCH  15  17
ENDBRANCH   7  15
TORSDOF 9
