REMARK  Name = 45783914
REMARK  12 active torsions:
REMARK  status: ('A' for Active; 'I' for Inactive)
REMARK    1  A    between atoms: O_2  and  C_26
REMARK    2  A    between atoms: N_3  and  C_13
REMARK    3  A    between atoms: N_4  and  C_25
REMARK    4  A    between atoms: C_8  and  C_12
REMARK    5  A    between atoms: C_9  and  C_13
REMARK    6  A    between atoms: C_11  and  C_16
REMARK    7  A    between atoms: C_12  and  C_19
REMARK    8  A    between atoms: C_12  and  C_20
REMARK    9  A    between atoms: C_15  and  C_23
REMARK   10  A    between atoms: C_16  and  C_24
REMARK   11  A    between atoms: C_25  and  C_26
REMARK   12  A    between atoms: C_27  and  C_28
REMARK                            x       y       z     vdW  Elec       q    Type
REMARK                         _______ _______ _______ _____ _____    ______ ____
ROOT
ATOM      8  C   UNL     1       0.840   1.599  -0.761  0.00  0.00    +0.000 C 
ATOM      9  C   UNL     1       1.732   2.275   0.306  0.00  0.00    +0.029 C 
ATOM     10  C   UNL     1      -0.577   1.375  -0.213  0.00  0.00    +0.012 C 
ATOM     11  C   UNL     1      -1.255   2.672   0.277  0.00  0.00    +0.024 C 
ATOM     14  C   UNL     1       1.030   3.403   1.019  0.00  0.00    -0.023 C 
ATOM     15  C   UNL     1      -0.301   3.604   1.008  0.00  0.00    -0.073 C 
ATOM     23  C   UNL     1      -0.890   4.813   1.683  0.00  0.00    +0.039 C 
ENDROOT
BRANCH   8  12
ATOM     12  C   UNL     1       0.809   2.413  -2.062  0.00  0.00    -0.013 C 
ATOM     19  C   UNL     1       2.227   2.655  -2.571  0.00  0.00    +0.007 C 
ATOM     20  C   UNL     1      -0.030   1.699  -3.116  0.00  0.00    +0.007 C 
ENDBRANCH   8  12
BRANCH   9  13
ATOM     13  C   UNL     1       2.242   1.266   1.339  0.00  0.00    +0.092 C 
BRANCH  13   3
ATOM      3  N   UNL     1       2.951   0.169   0.684  0.00  0.00    -0.299 NA
ATOM      4  N   UNL     1       5.124  -1.725   0.464  0.00  0.00    -0.298 NA
ATOM     17  C   UNL     1       4.292   0.593   0.262  0.00  0.00    +0.100 C 
ATOM     18  C   UNL     1       3.037  -0.999   1.569  0.00  0.00    +0.100 C 
ATOM     21  C   UNL     1       5.038  -0.558  -0.422  0.00  0.00    +0.100 C 
ATOM     22  C   UNL     1       3.783  -2.149   0.883  0.00  0.00    +0.100 C 
BRANCH   4  25
ATOM     25  C   UNL     1       5.835  -2.822  -0.191  0.00  0.00    +0.112 C 
BRANCH  25  26
ATOM     26  C   UNL     1       7.337  -2.592  -0.144  0.00  0.00    +0.171 C 
BRANCH  26   2
ATOM      2  O   UNL     1       7.986  -3.688  -0.775  0.00  0.00    -0.394 OA
ATOM     33  H   UNL     1       8.943  -3.521  -0.723  0.00  0.00    +0.209 HD
ENDBRANCH  26   2
ENDBRANCH  25  26
ENDBRANCH   4  25
ENDBRANCH  13   3
ENDBRANCH   9  13
BRANCH  11  16
ATOM     16  C   UNL     1      -2.482   2.296   1.118  0.00  0.00    +0.105 C 
BRANCH  16  24
ATOM      1  O   UNL     1      -3.377   0.062   0.708  0.00  0.00    -0.420 OA
ATOM      5  N   UNL     1      -4.251   1.654  -0.599  0.00  0.00    -0.112 NA
ATOM      6  N   UNL     1      -4.844   0.451  -0.936  0.00  0.00    -0.107 NA
ATOM     24  C   UNL     1      -3.403   1.379   0.365  0.00  0.00    +0.218 A 
ATOM     27  C   UNL     1      -4.303  -0.449  -0.148  0.00  0.00    +0.248 A 
BRANCH  27  28
ATOM      7  N   UNL     1      -4.985  -4.614   0.138  0.00  0.00    -0.263 NA
ATOM     28  C   UNL     1      -4.534  -1.861  -0.052  0.00  0.00    +0.041 A 
ATOM     29  C   UNL     1      -3.584  -2.685   0.543  0.00  0.00    +0.033 A 
ATOM     30  C   UNL     1      -5.708  -2.412  -0.552  0.00  0.00    +0.033 A 
ATOM     31  C   UNL     1      -3.855  -4.042   0.612  0.00  0.00    +0.111 A 
ATOM     32  C   UNL     1      -5.884  -3.782  -0.434  0.00  0.00    +0.111 A 
ENDBRANCH  27  28
ENDBRANCH  16  24
ENDBRANCH  11  16
TORSDOF 9
