REMARK  Name = 45783852
REMARK  14 active torsions:
REMARK  status: ('A' for Active; 'I' for Inactive)
REMARK    1  A    between atoms: O_2  and  C_21
REMARK    2  A    between atoms: O_2  and  C_28
REMARK    3  A    between atoms: O_4  and  C_24
REMARK    4  A    between atoms: O_6  and  C_31
REMARK    5  A    between atoms: O_6  and  C_32
REMARK    6  A    between atoms: N_8  and  C_22
REMARK    7  A    between atoms: C_10  and  C_21
REMARK    8  A    between atoms: C_11  and  C_14
REMARK    9  A    between atoms: C_11  and  C_18
REMARK   10  A    between atoms: C_11  and  C_19
REMARK   11  A    between atoms: C_11  and  C_20
REMARK   12  A    between atoms: C_14  and  C_17
REMARK   13  A    between atoms: C_18  and  C_24
REMARK   14  A    between atoms: C_22  and  C_25
REMARK                            x       y       z     vdW  Elec       q    Type
REMARK                         _______ _______ _______ _____ _____    ______ ____
ROOT
ATOM      1  O   UNL     1       3.486  -0.612  -1.116  0.00  0.00    -0.276 OA
ATOM      7  N   UNL     1       1.383  -0.795  -0.125  0.00  0.00    -0.282 N 
ATOM      8  N   UNL     1      -1.603  -0.872   2.140  0.00  0.00    -0.328 N 
ATOM      9  N   UNL     1      -1.303  -3.085   2.122  0.00  0.00    -0.240 NA
ATOM     10  C   UNL     1       1.230  -2.212  -0.552  0.00  0.00    +0.191 C 
ATOM     12  C   UNL     1       0.240  -0.120   0.553  0.00  0.00    +0.163 C 
ATOM     13  C   UNL     1       0.666  -3.152   0.534  0.00  0.00    +0.091 C 
ATOM     15  C   UNL     1      -0.548  -1.110   1.309  0.00  0.00    +0.059 A 
ATOM     16  C   UNL     1      -0.388  -2.472   1.313  0.00  0.00    +0.066 A 
ATOM     17  C   UNL     1       2.520  -0.092  -0.552  0.00  0.00    +0.217 C 
ATOM     23  C   UNL     1      -2.023  -2.093   2.605  0.00  0.00    +0.200 A 
ENDROOT
BRANCH  10  21
ATOM      3  O   UNL     1      -0.144  -1.169  -2.237  0.00  0.00    -0.249 OA
ATOM     21  C   UNL     1       0.363  -2.184  -1.779  0.00  0.00    +0.328 C 
BRANCH  21   2
ATOM      2  O   UNL     1       0.241  -3.446  -2.279  0.00  0.00    -0.467 OA
ATOM     28  C   UNL     1      -0.564  -3.566  -3.457  0.00  0.00    +0.280 C 
ENDBRANCH  21   2
ENDBRANCH  10  21
BRANCH  17  14
ATOM     14  C   UNL     1       2.532   1.393  -0.283  0.00  0.00    +0.103 C 
BRANCH  14  11
ATOM     11  C   UNL     1       3.782   2.094  -0.851  0.00  0.00    -0.017 C 
ATOM     19  C   UNL     1       3.808   1.964  -2.390  0.00  0.00    +0.012 C 
ATOM     20  C   UNL     1       3.672   3.594  -0.511  0.00  0.00    +0.012 C 
BRANCH  11  18
ATOM     18  C   UNL     1       5.105   1.513  -0.298  0.00  0.00    +0.127 C 
BRANCH  18  24
ATOM      5  O   UNL     1       4.947   2.015   2.065  0.00  0.00    -0.251 OA
ATOM     24  C   UNL     1       5.083   1.182   1.178  0.00  0.00    +0.305 C 
BRANCH  24   4
ATOM      4  O   UNL     1       5.237  -0.143   1.423  0.00  0.00    -0.481 OA
ATOM     33  H   UNL     1       5.221  -0.342   2.384  0.00  0.00    +0.295 HD
ENDBRANCH  24   4
ENDBRANCH  18  24
ENDBRANCH  11  18
ENDBRANCH  14  11
ENDBRANCH  17  14
BRANCH   8  22
ATOM     22  C   UNL     1      -2.181   0.407   2.472  0.00  0.00    +0.158 C 
BRANCH  22  25
ATOM     25  C   UNL     1      -3.073   0.960   1.389  0.00  0.00    -0.028 A 
ATOM     26  C   UNL     1      -2.809   2.214   0.838  0.00  0.00    +0.009 A 
ATOM     27  C   UNL     1      -4.163   0.215   0.936  0.00  0.00    +0.009 A 
ATOM     29  C   UNL     1      -3.634   2.724  -0.164  0.00  0.00    +0.046 A 
ATOM     30  C   UNL     1      -4.988   0.726  -0.066  0.00  0.00    +0.046 A 
ATOM     31  C   UNL     1      -4.724   1.980  -0.616  0.00  0.00    +0.120 A 
BRANCH  31   6
ATOM      6  O   UNL     1      -5.528   2.477  -1.594  0.00  0.00    -0.495 OA
ATOM     32  C   UNL     1      -6.625   1.664  -2.009  0.00  0.00    +0.277 C 
ENDBRANCH  31   6
ENDBRANCH  22  25
ENDBRANCH   8  22
TORSDOF 10
