REMARK  Name = 51137052
REMARK  5 active torsions:
REMARK  status: ('A' for Active; 'I' for Inactive)
REMARK    1  A    between atoms: N_5  and  C_11
REMARK    2  A    between atoms: C_7  and  C_12
REMARK    3  A    between atoms: C_11  and  C_13
REMARK    4  A    between atoms: C_22  and  C_25
REMARK    5  A    between atoms: C_23  and  C_26
REMARK                            x       y       z     vdW  Elec       q    Type
REMARK                         _______ _______ _______ _____ _____    ______ ____
ROOT
ATOM      5  N   UNL     1      -0.654  -0.208  -0.293  0.00  0.00    -0.297 NA
ATOM      7  C   UNL     1       1.507  -0.895   0.308  0.00  0.00    +0.090 C 
ATOM      8  C   UNL     1       0.777  -0.347   1.547  0.00  0.00    +0.029 C 
ATOM      9  C   UNL     1       0.673  -0.403  -0.883  0.00  0.00    +0.097 C 
ATOM     10  C   UNL     1      -0.403   0.441   0.994  0.00  0.00    +0.085 C 
ENDROOT
BRANCH   7  12
ATOM      4  O   UNL     1       3.853  -1.540   0.181  0.00  0.00    -0.439 OA
ATOM      6  N   UNL     1       3.487   0.697   0.140  0.00  0.00    -0.213 NA
ATOM     12  C   UNL     1       2.964  -0.508   0.206  0.00  0.00    +0.201 A 
ATOM     14  C   UNL     1       4.837   0.451   0.064  0.00  0.00    +0.110 A 
ATOM     15  C   UNL     1       5.065  -0.916   0.088  0.00  0.00    +0.155 A 
ATOM     18  C   UNL     1       5.934   1.320  -0.029  0.00  0.00    +0.035 A 
ATOM     19  C   UNL     1       6.319  -1.511   0.027  0.00  0.00    +0.049 A 
ATOM     22  C   UNL     1       7.217   0.756  -0.093  0.00  0.00    -0.048 A 
ATOM     24  C   UNL     1       7.403  -0.631  -0.065  0.00  0.00    +0.007 A 
ATOM     25  C   UNL     1       8.406   1.655  -0.192  0.00  0.00    +0.044 C 
ENDBRANCH   7  12
BRANCH   5  11
ATOM     11  C   UNL     1      -1.532   0.577  -1.148  0.00  0.00    +0.119 C 
BRANCH  11  13
ATOM     13  C   UNL     1      -2.979   0.410  -0.769  0.00  0.00    -0.033 A 
ATOM     16  C   UNL     1      -3.663  -0.752  -1.125  0.00  0.00    +0.005 A 
ATOM     17  C   UNL     1      -3.636   1.417  -0.062  0.00  0.00    +0.005 A 
ATOM     20  C   UNL     1      -5.004  -0.908  -0.774  0.00  0.00    +0.012 A 
ATOM     21  C   UNL     1      -4.977   1.262   0.289  0.00  0.00    +0.012 A 
ATOM     23  C   UNL     1      -5.661   0.099  -0.066  0.00  0.00    +0.055 A 
BRANCH  23  26
ATOM      1  F   UNL     1      -7.312  -0.029   1.659  0.00  0.00    -0.166 F 
ATOM      2  F   UNL     1      -7.612  -1.259  -0.108  0.00  0.00    -0.166 F 
ATOM      3  F   UNL     1      -7.913   0.892  -0.210  0.00  0.00    -0.166 F 
ATOM     26  C   UNL     1      -7.094  -0.068   0.312  0.00  0.00    +0.417 C 
ENDBRANCH  23  26
ENDBRANCH  11  13
ENDBRANCH   5  11
TORSDOF 4
