REMARK  Name = 75367109
REMARK  6 active torsions:
REMARK  status: ('A' for Active; 'I' for Inactive)
REMARK    1  A    between atoms: O_2  and  C_9
REMARK    2  A    between atoms: N_4  and  C_7
REMARK    3  A    between atoms: N_4  and  C_8
REMARK    4  A    between atoms: N_5  and  C_16
REMARK    5  A    between atoms: C_12  and  C_16
REMARK    6  A    between atoms: C_17  and  C_18
REMARK                            x       y       z     vdW  Elec       q    Type
REMARK                         _______ _______ _______ _____ _____    ______ ____
ROOT
ATOM      1  O   UNL     1      -0.394   0.737  -0.741  0.00  0.00    -0.371 OA
ATOM      8  C   UNL     1      -2.499  -0.181  -0.136  0.00  0.00    +0.111 C 
ATOM      9  C   UNL     1      -1.539  -1.312  -0.456  0.00  0.00    +0.164 C 
ATOM     12  C   UNL     1      -0.197  -0.613  -0.291  0.00  0.00    +0.165 C 
ATOM     15  C   UNL     1      -1.807   0.998  -0.800  0.00  0.00    +0.181 C 
ENDROOT
BRANCH   9   2
ATOM      2  O   UNL     1      -1.675  -2.409   0.425  0.00  0.00    -0.388 OA
ATOM     24  H   UNL     1      -1.555  -2.088   1.335  0.00  0.00    +0.210 HD
ENDBRANCH   9   2
BRANCH   8   4
ATOM      4  N   UNL     1      -3.847  -0.400  -0.633  0.00  0.00    -0.306 NA
ATOM     23  H   UNL     1      -4.135  -1.362  -0.456  0.00  0.00    +0.123 HD
BRANCH   4   7
ATOM      7  C   UNL     1      -4.786   0.524  -0.024  0.00  0.00    +0.054 C 
ATOM     10  C   UNL     1      -6.064   0.688  -0.837  0.00  0.00    +0.019 C 
ATOM     11  C   UNL     1      -5.315   0.028   1.317  0.00  0.00    +0.019 C 
ATOM     13  C   UNL     1      -7.048   1.300   0.157  0.00  0.00    +0.002 C 
ATOM     14  C   UNL     1      -6.565   0.873   1.546  0.00  0.00    +0.002 C 
ENDBRANCH   4   7
ENDBRANCH   8   4
BRANCH  12  16
ATOM     16  C   UNL     1       0.920  -1.263  -1.089  0.00  0.00    +0.138 C 
BRANCH  16   5
ATOM      3  O   UNL     1       2.898  -1.792   0.923  0.00  0.00    -0.270 OA
ATOM      5  N   UNL     1       2.163  -0.570  -0.906  0.00  0.00    -0.309 N 
ATOM     17  C   UNL     1       3.066  -0.896   0.101  0.00  0.00    +0.244 C 
ATOM     25  H   UNL     1       2.333   0.227  -1.511  0.00  0.00    +0.149 HD
BRANCH  17  18
ATOM      6  N   UNL     1       6.608   1.500   0.309  0.00  0.00    -0.263 NA
ATOM     18  C   UNL     1       4.296  -0.066   0.173  0.00  0.00    +0.040 A 
ATOM     19  C   UNL     1       4.958   0.098   1.385  0.00  0.00    +0.033 A 
ATOM     20  C   UNL     1       4.789   0.553  -0.971  0.00  0.00    +0.033 A 
ATOM     21  C   UNL     1       6.099   0.883   1.400  0.00  0.00    +0.111 A 
ATOM     22  C   UNL     1       5.937   1.319  -0.851  0.00  0.00    +0.111 A 
ENDBRANCH  17  18
ENDBRANCH  16   5
ENDBRANCH  12  16
TORSDOF 6
