REMARK  Name = 26744309
REMARK  5 active torsions:
REMARK  status: ('A' for Active; 'I' for Inactive)
REMARK    1  A    between atoms: O_1  and  C_15
REMARK    2  A    between atoms: N_5  and  C_9
REMARK    3  A    between atoms: N_8  and  C_24
REMARK    4  A    between atoms: C_10  and  C_19
REMARK    5  A    between atoms: C_20  and  C_21
REMARK                            x       y       z     vdW  Elec       q    Type
REMARK                         _______ _______ _______ _____ _____    ______ ____
ROOT
ATOM      2  O   UNL     1       0.627   1.962   1.895  0.00  0.00    -0.336 OA
ATOM      6  N   UNL     1      -0.108   0.787   0.135  0.00  0.00    -0.190 NA
ATOM      7  N   UNL     1      -0.755   1.818   2.072  0.00  0.00    -0.056 NA
ATOM     19  C   UNL     1       0.925   1.327   0.731  0.00  0.00    +0.245 A 
ATOM     20  C   UNL     1      -1.116   1.115   0.995  0.00  0.00    +0.202 A 
ENDROOT
BRANCH  20  21
ATOM     21  C   UNL     1      -2.474   0.725   0.747  0.00  0.00    +0.025 A 
ATOM     22  C   UNL     1      -2.793  -0.009  -0.396  0.00  0.00    +0.044 A 
ATOM     23  C   UNL     1      -3.476   1.079   1.651  0.00  0.00    +0.012 A 
ATOM     24  C   UNL     1      -4.114  -0.388  -0.635  0.00  0.00    +0.127 A 
ATOM     25  C   UNL     1      -4.797   0.700   1.411  0.00  0.00    +0.003 A 
ATOM     26  C   UNL     1      -5.116  -0.034   0.269  0.00  0.00    +0.033 A 
BRANCH  24   8
ATOM      3  O   UNL     1      -5.633  -1.466  -1.994  0.00  0.00    -0.126 OA
ATOM      4  O   UNL     1      -3.523  -1.444  -2.599  0.00  0.00    -0.126 OA
ATOM      8  N   UNL     1      -4.439  -1.135  -1.798  0.00  0.00    +0.056 N 
ENDBRANCH  24   8
ENDBRANCH  20  21
BRANCH  19  10
ATOM      5  N   UNL     1       2.738   0.173  -0.524  0.00  0.00    -0.286 NA
ATOM     10  C   UNL     1       2.379   1.338   0.309  0.00  0.00    +0.149 C 
ATOM     11  C   UNL     1       3.818   0.612  -1.406  0.00  0.00    +0.116 C 
ATOM     14  C   UNL     1       2.740   2.563  -0.551  0.00  0.00    +0.061 C 
ATOM     15  C   UNL     1       3.337   1.987  -1.829  0.00  0.00    +0.130 C 
BRANCH   5   9
ATOM      9  C   UNL     1       3.112  -1.003   0.260  0.00  0.00    +0.058 C 
ATOM     12  C   UNL     1       1.946  -1.418   1.164  0.00  0.00    +0.019 C 
ATOM     13  C   UNL     1       3.519  -2.146  -0.677  0.00  0.00    +0.019 C 
ATOM     16  C   UNL     1       2.272  -2.691   1.944  0.00  0.00    +0.002 C 
ATOM     17  C   UNL     1       3.844  -3.417   0.106  0.00  0.00    +0.002 C 
ATOM     18  C   UNL     1       2.690  -3.828   1.016  0.00  0.00    +0.000 C 
ENDBRANCH   5   9
BRANCH  15   1
ATOM      1  O   UNL     1       4.399   2.795  -2.295  0.00  0.00    -0.390 OA
ATOM     27  H   UNL     1       4.037   3.679  -2.475  0.00  0.00    +0.210 HD
ENDBRANCH  15   1
ENDBRANCH  19  10
TORSDOF 5
