REMARK  Name = 51137603
REMARK  6 active torsions:
REMARK  status: ('A' for Active; 'I' for Inactive)
REMARK    1  A    between atoms: O_3  and  C_18
REMARK    2  A    between atoms: O_3  and  C_21
REMARK    3  A    between atoms: N_4  and  C_12
REMARK    4  A    between atoms: C_8  and  C_13
REMARK    5  A    between atoms: C_12  and  C_14
REMARK    6  A    between atoms: C_15  and  C_18
REMARK                            x       y       z     vdW  Elec       q    Type
REMARK                         _______ _______ _______ _____ _____    ______ ____
ROOT
ATOM      2  O   UNL     1       1.085  -0.137   0.364  0.00  0.00    -0.421 OA
ATOM      5  N   UNL     1       0.112  -1.980  -0.447  0.00  0.00    -0.112 NA
ATOM      6  N   UNL     1       1.456  -2.249  -0.274  0.00  0.00    -0.109 NA
ATOM     13  C   UNL     1      -0.060  -0.737  -0.062  0.00  0.00    +0.222 A 
ATOM     15  C   UNL     1       1.985  -1.145   0.202  0.00  0.00    +0.254 A 
ENDROOT
BRANCH  13   8
ATOM      4  N   UNL     1      -3.646  -0.047   0.235  0.00  0.00    -0.297 NA
ATOM      8  C   UNL     1      -1.320   0.096  -0.029  0.00  0.00    +0.092 C 
ATOM      9  C   UNL     1      -2.005   0.287  -1.393  0.00  0.00    +0.029 C 
ATOM     10  C   UNL     1      -2.409  -0.502   0.873  0.00  0.00    +0.097 C 
ATOM     11  C   UNL     1      -3.423  -0.235  -1.198  0.00  0.00    +0.085 C 
BRANCH   4  12
ATOM     12  C   UNL     1      -4.816  -0.769   0.713  0.00  0.00    +0.119 C 
BRANCH  12  14
ATOM      7  N   UNL     1      -8.465   1.332  -0.162  0.00  0.00    -0.263 NA
ATOM     14  C   UNL     1      -6.093  -0.033   0.407  0.00  0.00    -0.031 A 
ATOM     16  C   UNL     1      -6.461   1.073   1.166  0.00  0.00    +0.024 A 
ATOM     17  C   UNL     1      -6.909  -0.457  -0.636  0.00  0.00    +0.024 A 
ATOM     19  C   UNL     1      -7.646   1.715   0.844  0.00  0.00    +0.111 A 
ATOM     20  C   UNL     1      -8.074   0.254  -0.877  0.00  0.00    +0.111 A 
ENDBRANCH  12  14
ENDBRANCH   4  12
ENDBRANCH  13   8
BRANCH  15  18
ATOM     18  C   UNL     1       3.376  -0.860   0.574  0.00  0.00    +0.326 C 
BRANCH  18   3
ATOM      3  O   UNL     1       3.996  -0.038  -0.419  0.00  0.00    -0.483 OA
BRANCH   3  21
ATOM      1  F   UNL     1       9.312   1.132   0.341  0.00  0.00    -0.205 F 
ATOM     21  C   UNL     1       5.318   0.253  -0.230  0.00  0.00    +0.121 A 
ATOM     22  C   UNL     1       5.989  -0.246   0.886  0.00  0.00    +0.048 A 
ATOM     23  C   UNL     1       5.996   1.049  -1.153  0.00  0.00    +0.048 A 
ATOM     24  C   UNL     1       7.338   0.051   1.079  0.00  0.00    +0.042 A 
ATOM     25  C   UNL     1       7.345   1.346  -0.960  0.00  0.00    +0.042 A 
ATOM     26  C   UNL     1       8.016   0.847   0.156  0.00  0.00    +0.124 A 
ENDBRANCH   3  21
ENDBRANCH  18   3
ENDBRANCH  15  18
TORSDOF 6
