REMARK  Name = 24148473
REMARK  12 active torsions:
REMARK  status: ('A' for Active; 'I' for Inactive)
REMARK    1  A    between atoms: S_3  and  C_26
REMARK    2  A    between atoms: S_3  and  C_29
REMARK    3  A    between atoms: O_4  and  C_12
REMARK    4  A    between atoms: N_9  and  C_27
REMARK    5  A    between atoms: N_9  and  C_28
REMARK    6  A    between atoms: C_10  and  C_18
REMARK    7  A    between atoms: C_13  and  C_19
REMARK    8  A    between atoms: C_15  and  C_22
REMARK    9  A    between atoms: C_19  and  C_23
REMARK   10  A    between atoms: C_19  and  C_24
REMARK   11  A    between atoms: C_25  and  C_26
REMARK   12  A    between atoms: C_27  and  C_30
REMARK                            x       y       z     vdW  Elec       q    Type
REMARK                         _______ _______ _______ _____ _____    ______ ____
ROOT
ATOM      2  S   UNL     1       2.339   2.041   0.780  0.00  0.00    -0.075 S 
ATOM      8  N   UNL     1       2.068   0.091  -0.895  0.00  0.00    -0.247 NA
ATOM     10  C   UNL     1      -1.704   1.800   0.065  0.00  0.00    -0.022 C 
ATOM     11  C   UNL     1      -1.722   0.251  -0.245  0.00  0.00    +0.033 C 
ATOM     12  C   UNL     1      -3.054  -0.175  -0.926  0.00  0.00    +0.123 C 
ATOM     13  C   UNL     1      -4.301   0.297  -0.147  0.00  0.00    +0.029 C 
ATOM     14  C   UNL     1      -2.971   2.185   0.865  0.00  0.00    +0.008 C 
ATOM     15  C   UNL     1      -0.433  -0.208  -1.042  0.00  0.00    +0.042 C 
ATOM     16  C   UNL     1      -4.264   1.793   0.163  0.00  0.00    +0.007 C 
ATOM     17  C   UNL     1      -0.469   2.146   0.954  0.00  0.00    +0.051 C 
ATOM     18  C   UNL     1      -1.647   2.652  -1.229  0.00  0.00    +0.012 C 
ATOM     20  C   UNL     1       0.800   0.466  -0.488  0.00  0.00    +0.055 A 
ATOM     21  C   UNL     1       0.763   1.524   0.397  0.00  0.00    +0.014 A 
ATOM     22  C   UNL     1      -0.236  -1.731  -1.053  0.00  0.00    +0.014 C 
ATOM     25  C   UNL     1       2.956   0.844  -0.284  0.00  0.00    +0.100 A 
ENDROOT
BRANCH  12   4
ATOM      4  O   UNL     1      -3.115  -1.599  -0.997  0.00  0.00    -0.391 OA
ATOM     37  H   UNL     1      -3.089  -1.948  -0.089  0.00  0.00    +0.210 HD
ENDBRANCH  12   4
BRANCH  13  19
ATOM     19  C   UNL     1      -5.599  -0.041  -0.890  0.00  0.00    +0.078 C 
ATOM     23  C   UNL     1      -5.603   0.660  -2.248  0.00  0.00    +0.017 C 
BRANCH  19  24
ATOM      5  O   UNL     1      -7.321   1.504  -0.262  0.00  0.00    -0.275 OA
ATOM      9  N   UNL     1      -7.313  -0.508   0.881  0.00  0.00    -0.301 N 
ATOM     24  C   UNL     1      -6.823   0.388  -0.074  0.00  0.00    +0.219 C 
ATOM     28  C   UNL     1      -8.460  -0.122   1.696  0.00  0.00    +0.132 C 
BRANCH   9  27
ATOM     27  C   UNL     1      -6.806  -1.854   1.141  0.00  0.00    +0.134 C 
BRANCH  27  30
ATOM     30  C   UNL     1      -7.537  -2.826   0.275  0.00  0.00    -0.016 C 
ATOM     33  C   UNL     1      -8.243  -3.860   0.746  0.00  0.00    +0.005 C 
ENDBRANCH  27  30
ENDBRANCH   9  27
ENDBRANCH  19  24
ENDBRANCH  13  19
BRANCH  25  26
ATOM     26  C   UNL     1       4.419   0.724  -0.461  0.00  0.00    +0.234 C 
BRANCH  26   3
ATOM      3  S   UNL     1       5.033  -0.422   0.738  0.00  0.00    +0.003 S 
ATOM      6  O   UNL     1       4.459  -1.728   0.466  0.00  0.00    -0.169 OA
ATOM      7  O   UNL     1       4.883   0.188   2.047  0.00  0.00    -0.169 OA
BRANCH   3  29
ATOM      1 CL   UNL     1      11.167  -0.800  -0.540  0.00  0.00    -0.084 Cl
ATOM     29  C   UNL     1       6.760  -0.529   0.379  0.00  0.00    +0.089 A 
ATOM     31  C   UNL     1       7.656   0.341   0.999  0.00  0.00    +0.028 A 
ATOM     32  C   UNL     1       7.226  -1.483  -0.526  0.00  0.00    +0.028 A 
ATOM     34  C   UNL     1       9.019   0.257   0.715  0.00  0.00    +0.022 A 
ATOM     35  C   UNL     1       8.589  -1.567  -0.810  0.00  0.00    +0.022 A 
ATOM     36  C   UNL     1       9.486  -0.697  -0.190  0.00  0.00    +0.041 A 
ENDBRANCH   3  29
ENDBRANCH  26   3
ENDBRANCH  25  26
TORSDOF 8
