REMARK  Name = 26742943
REMARK  12 active torsions:
REMARK  status: ('A' for Active; 'I' for Inactive)
REMARK    1  A    between atoms: N_5  and  C_20
REMARK    2  A    between atoms: N_7  and  C_22
REMARK    3  A    between atoms: C_8  and  C_14
REMARK    4  A    between atoms: C_9  and  C_12
REMARK    5  A    between atoms: C_12  and  C_15
REMARK    6  A    between atoms: C_14  and  C_16
REMARK    7  A    between atoms: C_18  and  C_19
REMARK    8  A    between atoms: C_19  and  C_21
REMARK    9  A    between atoms: C_20  and  C_22
REMARK   10  A    between atoms: C_21  and  C_23
REMARK   11  A    between atoms: C_23  and  C_24
REMARK   12  A    between atoms: C_25  and  C_26
REMARK                            x       y       z     vdW  Elec       q    Type
REMARK                         _______ _______ _______ _____ _____    ______ ____
ROOT
ATOM      4  N   UNL     1      -0.329   2.486  -0.979  0.00  0.00    -0.316 NA
ATOM      8  C   UNL     1       0.869  -0.203  -1.187  0.00  0.00    +0.004 C 
ATOM      9  C   UNL     1      -0.581   0.032  -0.699  0.00  0.00    +0.012 C 
ATOM     10  C   UNL     1       1.299   0.982  -2.069  0.00  0.00    +0.019 C 
ATOM     11  C   UNL     1      -0.749   1.423  -0.065  0.00  0.00    +0.085 C 
ATOM     13  C   UNL     1       1.065   2.330  -1.390  0.00  0.00    +0.081 C 
ATOM     27  H   UNL     1      -0.446   3.390  -0.521  0.00  0.00    +0.122 HD
ENDROOT
BRANCH   9  12
ATOM     12  C   UNL     1      -1.075  -1.057   0.255  0.00  0.00    +0.064 C 
BRANCH  12  15
ATOM      1  O   UNL     1      -4.572  -1.728  -0.270  0.00  0.00    -0.359 OA
ATOM      6  N   UNL     1      -3.227  -1.909  -0.568  0.00  0.00    -0.083 NA
ATOM     15  C   UNL     1      -2.575  -1.116   0.287  0.00  0.00    +0.084 A 
ATOM     17  C   UNL     1      -3.447  -0.417   1.139  0.00  0.00    +0.071 A 
ATOM     18  C   UNL     1      -4.691  -0.838   0.747  0.00  0.00    +0.138 A 
BRANCH  18  19
ATOM     19  C   UNL     1      -6.055  -0.528   1.192  0.00  0.00    +0.077 C 
BRANCH  19  21
ATOM     21  C   UNL     1      -6.795   0.441   0.243  0.00  0.00    +0.007 C 
BRANCH  21  23
ATOM     23  C   UNL     1      -8.198   0.792   0.740  0.00  0.00    -0.003 C 
ATOM     24  C   UNL     1      -8.888   1.777  -0.190  0.00  0.00    +0.004 C 
ENDBRANCH  21  23
ENDBRANCH  19  21
ENDBRANCH  18  19
ENDBRANCH  12  15
ENDBRANCH   9  12
BRANCH   8  14
ATOM     14  C   UNL     1       1.878  -0.435  -0.056  0.00  0.00    +0.099 C 
BRANCH  14  16
ATOM      2  O   UNL     1       3.296  -1.501  -1.701  0.00  0.00    -0.276 OA
ATOM      5  N   UNL     1       4.032  -1.323   0.496  0.00  0.00    -0.314 N 
ATOM     16  C   UNL     1       3.127  -1.142  -0.539  0.00  0.00    +0.213 C 
ATOM     28  H   UNL     1       3.800  -0.981   1.425  0.00  0.00    +0.149 HD
BRANCH   5  20
ATOM     20  C   UNL     1       5.311  -1.972   0.322  0.00  0.00    +0.123 C 
BRANCH  20  22
ATOM     22  C   UNL     1       6.405  -0.984  -0.046  0.00  0.00    +0.123 C 
BRANCH  22   7
ATOM      3  O   UNL     1       5.082   1.590   0.181  0.00  0.00    -0.276 OA
ATOM      7  N   UNL     1       6.601   0.013   0.973  0.00  0.00    -0.314 N 
ATOM     25  C   UNL     1       5.920   1.222   1.000  0.00  0.00    +0.210 C 
ATOM     26  C   UNL     1       6.296   2.068   2.187  0.00  0.00    +0.109 C 
ATOM     29  H   UNL     1       7.263  -0.196   1.715  0.00  0.00    +0.149 HD
ENDBRANCH  22   7
ENDBRANCH  20  22
ENDBRANCH   5  20
ENDBRANCH  14  16
ENDBRANCH   8  14
TORSDOF 10
