REMARK  Name = 26744030
REMARK  8 active torsions:
REMARK  status: ('A' for Active; 'I' for Inactive)
REMARK    1  A    between atoms: S_1  and  C_18
REMARK    2  A    between atoms: S_1  and  C_22
REMARK    3  A    between atoms: O_2  and  C_12
REMARK    4  A    between atoms: N_6  and  C_14
REMARK    5  A    between atoms: C_10  and  C_15
REMARK    6  A    between atoms: C_14  and  C_16
REMARK    7  A    between atoms: C_17  and  C_18
REMARK    8  A    between atoms: C_26  and  C_29
REMARK                            x       y       z     vdW  Elec       q    Type
REMARK                         _______ _______ _______ _____ _____    ______ ____
ROOT
ATOM      3  O   UNL     1      -1.856   0.035  -2.266  0.00  0.00    -0.336 OA
ATOM      7  N   UNL     1      -0.966   1.160  -0.546  0.00  0.00    -0.193 NA
ATOM      8  N   UNL     1      -0.470   0.027  -2.470  0.00  0.00    -0.060 NA
ATOM     15  C   UNL     1      -2.062   0.723  -1.113  0.00  0.00    +0.245 A 
ATOM     17  C   UNL     1      -0.016   0.709  -1.415  0.00  0.00    +0.193 A 
ENDROOT
BRANCH  15  10
ATOM      6  N   UNL     1      -3.734   0.330   0.689  0.00  0.00    -0.285 NA
ATOM     10  C   UNL     1      -3.501   0.874  -0.664  0.00  0.00    +0.149 C 
ATOM     11  C   UNL     1      -3.947   2.345  -0.580  0.00  0.00    +0.061 C 
ATOM     12  C   UNL     1      -4.458   2.522   0.844  0.00  0.00    +0.130 C 
ATOM     13  C   UNL     1      -4.826   1.112   1.266  0.00  0.00    +0.116 C 
BRANCH  12   2
ATOM      2  O   UNL     1      -5.576   3.387   0.873  0.00  0.00    -0.390 OA
ATOM     30  H   UNL     1      -5.289   4.247   0.520  0.00  0.00    +0.210 HD
ENDBRANCH  12   2
BRANCH   6  14
ATOM     14  C   UNL     1      -4.021  -1.098   0.693  0.00  0.00    +0.122 C 
BRANCH  14  16
ATOM      9  N   UNL     1      -0.592  -2.521   1.434  0.00  0.00    -0.263 NA
ATOM     16  C   UNL     1      -2.767  -1.922   0.566  0.00  0.00    -0.015 A 
ATOM     19  C   UNL     1      -2.602  -2.817  -0.486  0.00  0.00    +0.008 A 
ATOM     20  C   UNL     1      -1.742  -1.812   1.491  0.00  0.00    +0.115 A 
ATOM     21  C   UNL     1      -1.433  -3.564  -0.578  0.00  0.00    +0.020 A 
ATOM     23  C   UNL     1      -0.467  -3.381   0.398  0.00  0.00    +0.111 A 
ENDBRANCH  14  16
ENDBRANCH   6  14
ENDBRANCH  15  10
BRANCH  17  18
ATOM     18  C   UNL     1       1.415   0.955  -1.206  0.00  0.00    +0.251 C 
BRANCH  18   1
ATOM      1  S   UNL     1       1.985  -0.090   0.106  0.00  0.00    +0.004 S 
ATOM      4  O   UNL     1       1.812  -1.465  -0.324  0.00  0.00    -0.169 OA
ATOM      5  O   UNL     1       1.399   0.371   1.351  0.00  0.00    -0.169 OA
BRANCH   1  22
ATOM     22  C   UNL     1       3.717   0.244   0.192  0.00  0.00    +0.089 A 
ATOM     24  C   UNL     1       4.191   1.260   1.022  0.00  0.00    +0.027 A 
ATOM     25  C   UNL     1       4.611  -0.506  -0.572  0.00  0.00    +0.027 A 
ATOM     26  C   UNL     1       6.452   0.776   0.323  0.00  0.00    -0.050 A 
ATOM     27  C   UNL     1       5.558   1.526   1.087  0.00  0.00    +0.005 A 
ATOM     28  C   UNL     1       5.979  -0.240  -0.507  0.00  0.00    +0.005 A 
ATOM     29  C   UNL     1       7.915   1.061   0.394  0.00  0.00    +0.044 C 
ENDBRANCH   1  22
ENDBRANCH  18   1
ENDBRANCH  17  18
TORSDOF 7
