REMARK  Name = 75536316
REMARK  7 active torsions:
REMARK  status: ('A' for Active; 'I' for Inactive)
REMARK    1  A    between atoms: O_2  and  C_8
REMARK    2  A    between atoms: N_4  and  C_6
REMARK    3  A    between atoms: N_4  and  C_11
REMARK    4  A    between atoms: C_7  and  C_11
REMARK    5  A    between atoms: C_12  and  C_18
REMARK    6  A    between atoms: C_18  and  C_19
REMARK    7  A    between atoms: C_21  and  C_22
REMARK                            x       y       z     vdW  Elec       q    Type
REMARK                         _______ _______ _______ _____ _____    ______ ____
ROOT
ATOM      1  O   UNL     1       2.473  -1.050   0.834  0.00  0.00    -0.369 OA
ATOM      7  C   UNL     1       3.317   0.075   1.115  0.00  0.00    +0.161 C 
ATOM      8  C   UNL     1       4.777  -0.217   0.744  0.00  0.00    +0.145 C 
ATOM     12  C   UNL     1       2.522  -1.525  -0.513  0.00  0.00    +0.125 C 
ATOM     13  C   UNL     1       4.916  -0.785  -0.666  0.00  0.00    +0.036 C 
ATOM     14  C   UNL     1       3.944  -1.940  -0.888  0.00  0.00    +0.034 C 
ENDROOT
BRANCH   8   2
ATOM      2  O   UNL     1       5.301  -1.184   1.657  0.00  0.00    -0.389 OA
ATOM     29  H   UNL     1       6.238  -1.320   1.437  0.00  0.00    +0.210 HD
ENDBRANCH   8   2
BRANCH   7  11
ATOM     11  C   UNL     1       2.778   1.345   0.460  0.00  0.00    +0.115 C 
BRANCH  11   4
ATOM      4  N   UNL     1       1.401   1.590   0.861  0.00  0.00    -0.311 NA
ATOM     28  H   UNL     1       1.363   1.666   1.878  0.00  0.00    +0.122 HD
BRANCH   4   6
ATOM      6  C   UNL     1       0.889   2.817   0.255  0.00  0.00    +0.054 C 
ATOM      9  C   UNL     1       0.481   2.549  -1.198  0.00  0.00    +0.019 C 
ATOM     10  C   UNL     1      -0.294   3.348   1.072  0.00  0.00    +0.019 C 
ATOM     15  C   UNL     1      -0.131   3.792  -1.843  0.00  0.00    +0.002 C 
ATOM     16  C   UNL     1      -0.904   4.590   0.424  0.00  0.00    +0.002 C 
ATOM     17  C   UNL     1      -1.302   4.331  -1.026  0.00  0.00    +0.000 C 
ENDBRANCH   4   6
ENDBRANCH  11   4
ENDBRANCH   7  11
BRANCH  12  18
ATOM     18  C   UNL     1       1.567  -2.709  -0.616  0.00  0.00    +0.090 C 
BRANCH  18  19
ATOM      3  O   UNL     1      -1.724  -1.643  -1.627  0.00  0.00    -0.354 OA
ATOM      5  N   UNL     1      -0.419  -2.031  -1.903  0.00  0.00    -0.083 NA
ATOM     19  C   UNL     1       0.133  -2.262  -0.708  0.00  0.00    +0.087 A 
ATOM     20  C   UNL     1      -0.768  -2.037   0.348  0.00  0.00    +0.076 A 
ATOM     21  C   UNL     1      -1.920  -1.650  -0.284  0.00  0.00    +0.167 A 
BRANCH  21  22
ATOM     22  C   UNL     1      -3.231  -1.270   0.156  0.00  0.00    +0.020 A 
ATOM     23  C   UNL     1      -3.531  -1.250   1.518  0.00  0.00    +0.011 A 
ATOM     24  C   UNL     1      -4.206  -0.921  -0.778  0.00  0.00    +0.011 A 
ATOM     25  C   UNL     1      -4.806  -0.880   1.946  0.00  0.00    +0.001 A 
ATOM     26  C   UNL     1      -5.481  -0.552  -0.351  0.00  0.00    +0.001 A 
ATOM     27  C   UNL     1      -5.781  -0.531   1.012  0.00  0.00    +0.000 A 
ENDBRANCH  21  22
ENDBRANCH  18  19
ENDBRANCH  12  18
TORSDOF 7
