REMARK  Name = 28961736
REMARK  10 active torsions:
REMARK  status: ('A' for Active; 'I' for Inactive)
REMARK    1  A    between atoms: S_1  and  N_9
REMARK    2  A    between atoms: S_1  and  C_25
REMARK    3  A    between atoms: O_3  and  C_12
REMARK    4  A    between atoms: O_4  and  C_18
REMARK    5  A    between atoms: O_7  and  C_30
REMARK    6  A    between atoms: O_7  and  C_31
REMARK    7  A    between atoms: N_8  and  C_10
REMARK    8  A    between atoms: N_9  and  C_15
REMARK    9  A    between atoms: C_11  and  C_15
REMARK   10  A    between atoms: C_13  and  C_18
REMARK                            x       y       z     vdW  Elec       q    Type
REMARK                         _______ _______ _______ _____ _____    ______ ____
ROOT
ATOM      2  O   UNL     1       0.272   3.360   0.336  0.00  0.00    -0.366 OA
ATOM     10  C   UNL     1      -1.664   1.976   0.285  0.00  0.00    +0.118 C 
ATOM     11  C   UNL     1      -0.295   2.179   0.946  0.00  0.00    +0.154 C 
ATOM     12  C   UNL     1      -1.493   2.646  -1.070  0.00  0.00    +0.165 C 
ATOM     13  C   UNL     1      -0.623   3.837  -0.688  0.00  0.00    +0.174 C 
ENDROOT
BRANCH  10   8
ATOM      8  N   UNL     1      -2.164   0.603   0.243  0.00  0.00    -0.290 NA
ATOM     14  C   UNL     1      -2.251   0.038   1.595  0.00  0.00    +0.090 C 
ATOM     16  C   UNL     1      -3.483   0.556  -0.413  0.00  0.00    +0.120 C 
ATOM     17  C   UNL     1      -2.574  -1.457   1.516  0.00  0.00    +0.051 C 
ATOM     19  C   UNL     1      -4.126  -0.811  -0.369  0.00  0.00    -0.030 A 
ATOM     20  C   UNL     1      -3.720  -1.760   0.585  0.00  0.00    -0.042 A 
ATOM     21  C   UNL     1      -5.178  -1.117  -1.242  0.00  0.00    +0.005 A 
ATOM     22  C   UNL     1      -4.346  -3.012   0.628  0.00  0.00    +0.004 A 
ATOM     23  C   UNL     1      -5.802  -2.363  -1.186  0.00  0.00    +0.000 A 
ATOM     24  C   UNL     1      -5.384  -3.311  -0.254  0.00  0.00    +0.000 A 
ENDBRANCH  10   8
BRANCH  12   3
ATOM      3  O   UNL     1      -0.804   1.803  -1.985  0.00  0.00    -0.388 OA
ATOM     32  H   UNL     1       0.121   1.717  -1.712  0.00  0.00    +0.210 HD
ENDBRANCH  12   3
BRANCH  11  15
ATOM     15  C   UNL     1       0.719   1.053   0.778  0.00  0.00    +0.139 C 
BRANCH  15   9
ATOM      9  N   UNL     1       1.752   1.165   1.823  0.00  0.00    -0.187 NA
ATOM     33  H   UNL     1       2.262   2.057   1.855  0.00  0.00    +0.148 HD
BRANCH   9   1
ATOM      1  S   UNL     1       2.523  -0.232   2.415  0.00  0.00    +0.058 S 
ATOM      5  O   UNL     1       1.521  -1.179   2.865  0.00  0.00    -0.153 OA
ATOM      6  O   UNL     1       3.603   0.162   3.300  0.00  0.00    -0.153 OA
BRANCH   1  25
ATOM     25  C   UNL     1       3.268  -0.882   0.950  0.00  0.00    +0.105 A 
ATOM     26  C   UNL     1       2.564  -1.782   0.150  0.00  0.00    +0.032 A 
ATOM     27  C   UNL     1       4.561  -0.496   0.594  0.00  0.00    +0.032 A 
ATOM     28  C   UNL     1       3.152  -2.297  -1.005  0.00  0.00    +0.047 A 
ATOM     29  C   UNL     1       5.149  -1.011  -0.561  0.00  0.00    +0.047 A 
ATOM     30  C   UNL     1       4.445  -1.911  -1.361  0.00  0.00    +0.120 A 
BRANCH  30   7
ATOM      7  O   UNL     1       5.019  -2.414  -2.488  0.00  0.00    -0.495 OA
ATOM     31  C   UNL     1       4.243  -3.330  -3.259  0.00  0.00    +0.277 C 
ENDBRANCH  30   7
ENDBRANCH   1  25
ENDBRANCH   9   1
ENDBRANCH  15   9
ENDBRANCH  11  15
BRANCH  13  18
ATOM     18  C   UNL     1       0.187   4.444  -1.818  0.00  0.00    +0.190 C 
BRANCH  18   4
ATOM      4  O   UNL     1       0.930   5.541  -1.312  0.00  0.00    -0.392 OA
ATOM     34  H   UNL     1       1.433   5.915  -2.056  0.00  0.00    +0.210 HD
ENDBRANCH  18   4
ENDBRANCH  13  18
TORSDOF 9
