REMARK  Name = 51137552
REMARK  8 active torsions:
REMARK  status: ('A' for Active; 'I' for Inactive)
REMARK    1  A    between atoms: O_2  and  C_20
REMARK    2  A    between atoms: O_2  and  C_22
REMARK    3  A    between atoms: N_3  and  C_10
REMARK    4  A    between atoms: C_6  and  C_11
REMARK    5  A    between atoms: C_10  and  C_12
REMARK    6  A    between atoms: C_13  and  C_16
REMARK    7  A    between atoms: C_16  and  C_17
REMARK    8  A    between atoms: C_17  and  C_21
REMARK                            x       y       z     vdW  Elec       q    Type
REMARK                         _______ _______ _______ _____ _____    ______ ____
ROOT
ATOM      3  N   UNL     1      -0.535  -0.700  -0.089  0.00  0.00    -0.297 NA
ATOM      6  C   UNL     1       1.615  -1.178   0.716  0.00  0.00    +0.092 C 
ATOM      7  C   UNL     1       1.006  -0.024   1.530  0.00  0.00    +0.029 C 
ATOM      8  C   UNL     1       0.734  -1.278  -0.536  0.00  0.00    +0.097 C 
ATOM      9  C   UNL     1      -0.159   0.481   0.688  0.00  0.00    +0.085 C 
ENDROOT
BRANCH   6  11
ATOM      1  O   UNL     1       3.439   0.074  -0.332  0.00  0.00    -0.424 OA
ATOM      4  N   UNL     1       4.096  -1.794   0.709  0.00  0.00    -0.112 NA
ATOM      5  N   UNL     1       5.216  -1.190   0.167  0.00  0.00    -0.112 NA
ATOM     11  C   UNL     1       3.083  -1.022   0.393  0.00  0.00    +0.222 A 
ATOM     13  C   UNL     1       4.785  -0.104  -0.431  0.00  0.00    +0.217 A 
BRANCH  13  16
ATOM     16  C   UNL     1       5.537   0.918  -1.169  0.00  0.00    +0.097 C 
BRANCH  16  17
ATOM     17  C   UNL     1       6.290   1.899  -0.244  0.00  0.00    +0.006 C 
ATOM     21  C   UNL     1       5.357   2.689   0.661  0.00  0.00    +0.004 C 
ENDBRANCH  16  17
ENDBRANCH  13  16
ENDBRANCH   6  11
BRANCH   3  10
ATOM     10  C   UNL     1      -1.419  -0.375  -1.198  0.00  0.00    +0.119 C 
BRANCH  10  12
ATOM     12  C   UNL     1      -2.846  -0.204  -0.746  0.00  0.00    -0.033 A 
ATOM     14  C   UNL     1      -3.623  -1.323  -0.449  0.00  0.00    +0.008 A 
ATOM     15  C   UNL     1      -3.390   1.075  -0.625  0.00  0.00    +0.008 A 
ATOM     18  C   UNL     1      -4.944  -1.165  -0.030  0.00  0.00    +0.046 A 
ATOM     19  C   UNL     1      -4.711   1.234  -0.207  0.00  0.00    +0.046 A 
ATOM     20  C   UNL     1      -5.488   0.114   0.090  0.00  0.00    +0.120 A 
BRANCH  20   2
ATOM      2  O   UNL     1      -6.776   0.270   0.500  0.00  0.00    -0.495 OA
ATOM     22  C   UNL     1      -7.269   1.605   0.601  0.00  0.00    +0.277 C 
ENDBRANCH  20   2
ENDBRANCH  10  12
ENDBRANCH   3  10
TORSDOF 6
