REMARK  Name = 11941652
REMARK  6 active torsions:
REMARK  status: ('A' for Active; 'I' for Inactive)
REMARK    1  A    between atoms: N_6  and  C_13
REMARK    2  A    between atoms: N_7  and  C_14
REMARK    3  A    between atoms: N_8  and  C_20
REMARK    4  A    between atoms: C_19  and  C_23
REMARK    5  A    between atoms: C_28  and  C_32
REMARK    6  A    between atoms: C_32  and  C_33
REMARK                            x       y       z     vdW  Elec       q    Type
REMARK                         _______ _______ _______ _____ _____    ______ ____
ROOT
ATOM      1  O   UNL     1      -0.977   3.507   0.493  0.00  0.00    -0.370 OA
ATOM      2  O   UNL     1      -1.698   1.574  -1.849  0.00  0.00    -0.370 OA
ATOM     11  C   UNL     1      -1.684   1.426  -0.419  0.00  0.00    +0.171 C 
ATOM     12  C   UNL     1      -0.496   2.209   0.104  0.00  0.00    +0.171 C 
ATOM     13  C   UNL     1      -2.880   2.118   0.191  0.00  0.00    +0.130 C 
ATOM     14  C   UNL     1       0.422   2.325  -1.091  0.00  0.00    +0.131 C 
ATOM     15  C   UNL     1      -2.401   3.552   0.326  0.00  0.00    +0.185 C 
ATOM     16  C   UNL     1      -0.556   2.345  -2.252  0.00  0.00    +0.185 C 
ENDROOT
BRANCH  13   6
ATOM      6  N   UNL     1      -3.164   1.560   1.495  0.00  0.00    -0.306 N 
ATOM      9  N   UNL     1      -4.449  -0.183   0.591  0.00  0.00    -0.211 NA
ATOM     10  N   UNL     1      -4.122   0.008   2.971  0.00  0.00    -0.223 NA
ATOM     17  C   UNL     1      -3.935   0.428   1.691  0.00  0.00    +0.216 A 
ATOM     19  C   UNL     1      -5.195  -1.284   0.819  0.00  0.00    +0.111 A 
ATOM     21  C   UNL     1      -4.878  -1.099   3.126  0.00  0.00    +0.116 A 
ATOM     22  C   UNL     1      -5.446  -1.793   2.077  0.00  0.00    +0.051 A 
ATOM     34  H   UNL     1      -2.743   1.976   2.317  0.00  0.00    +0.149 HD
BRANCH  19  23
ATOM      4  O   UNL     1      -5.402  -1.301  -1.534  0.00  0.00    -0.461 OA
ATOM     23  C   UNL     1      -5.726  -1.908  -0.364  0.00  0.00    +0.153 A 
ATOM     29  C   UNL     1      -6.511  -3.011  -0.588  0.00  0.00    +0.051 A 
ATOM     30  C   UNL     1      -6.683  -3.091  -1.991  0.00  0.00    +0.042 A 
ATOM     31  C   UNL     1      -5.989  -2.028  -2.521  0.00  0.00    +0.196 A 
ENDBRANCH  19  23
ENDBRANCH  13   6
BRANCH  14   7
ATOM      3  O   UNL     1       3.092   2.166  -0.065  0.00  0.00    -0.252 OA
ATOM      7  N   UNL     1       1.313   1.194  -1.177  0.00  0.00    -0.292 N 
ATOM      8  N   UNL     1       3.234  -0.031  -0.880  0.00  0.00    -0.269 N 
ATOM     18  C   UNL     1       2.609   1.197  -0.647  0.00  0.00    +0.304 C 
ATOM     35  H   UNL     1       0.962   0.332  -1.584  0.00  0.00    +0.151 HD
ATOM     36  H   UNL     1       2.691  -0.730  -1.381  0.00  0.00    +0.156 HD
BRANCH   8  20
ATOM     20  C   UNL     1       4.539  -0.427  -0.505  0.00  0.00    +0.035 A 
ATOM     24  C   UNL     1       5.347   0.465   0.181  0.00  0.00    +0.024 A 
ATOM     25  C   UNL     1       4.981  -1.698  -0.831  0.00  0.00    +0.024 A 
ATOM     26  C   UNL     1       6.634   0.074   0.550  0.00  0.00    +0.013 A 
ATOM     27  C   UNL     1       6.268  -2.089  -0.461  0.00  0.00    +0.013 A 
ATOM     28  C   UNL     1       7.095  -1.203   0.230  0.00  0.00    +0.017 A 
BRANCH  28  32
ATOM      5  O   UNL     1       8.875  -2.746   0.344  0.00  0.00    -0.292 OA
ATOM     32  C   UNL     1       8.436  -1.611   0.616  0.00  0.00    +0.160 C 
ATOM     33  C   UNL     1       9.345  -0.647   1.372  0.00  0.00    +0.091 C 
ENDBRANCH  28  32
ENDBRANCH   8  20
ENDBRANCH  14   7
TORSDOF 5
