REMARK  Name = 38028822
REMARK  10 active torsions:
REMARK  status: ('A' for Active; 'I' for Inactive)
REMARK    1  A    between atoms: N_4  and  C_14
REMARK    2  A    between atoms: C_6  and  C_10
REMARK    3  A    between atoms: C_7  and  C_14
REMARK    4  A    between atoms: C_9  and  C_13
REMARK    5  A    between atoms: C_10  and  C_15
REMARK    6  A    between atoms: C_10  and  C_16
REMARK    7  A    between atoms: C_11  and  C_18
REMARK    8  A    between atoms: C_13  and  C_17
REMARK    9  A    between atoms: C_23  and  C_24
REMARK   10  A    between atoms: C_29  and  C_30
REMARK                            x       y       z     vdW  Elec       q    Type
REMARK                         _______ _______ _______ _____ _____    ______ ____
ROOT
ATOM      6  C   UNL     1      -2.252   1.563  -0.491  0.00  0.00    +0.000 C 
ATOM      7  C   UNL     1      -2.091   2.587   0.660  0.00  0.00    +0.032 C 
ATOM      8  C   UNL     1      -3.208   0.435  -0.074  0.00  0.00    +0.012 C 
ATOM      9  C   UNL     1      -2.716  -0.313   1.179  0.00  0.00    +0.023 C 
ATOM     11  C   UNL     1      -2.281   0.643   2.271  0.00  0.00    -0.073 C 
ATOM     12  C   UNL     1      -2.020   1.939   2.023  0.00  0.00    -0.022 C 
ATOM     18  C   UNL     1      -2.199   0.086   3.665  0.00  0.00    +0.039 C 
ENDROOT
BRANCH   6  10
ATOM     10  C   UNL     1      -2.761   2.226  -1.775  0.00  0.00    -0.013 C 
ATOM     15  C   UNL     1      -2.355   1.405  -2.994  0.00  0.00    +0.007 C 
ATOM     16  C   UNL     1      -4.275   2.401  -1.719  0.00  0.00    +0.007 C 
ENDBRANCH   6  10
BRANCH   9  13
ATOM     13  C   UNL     1      -1.591  -1.295   0.830  0.00  0.00    +0.103 C 
BRANCH  13  17
ATOM      1  O   UNL     1      -3.376  -2.594  -0.065  0.00  0.00    -0.276 OA
ATOM      3  N   UNL     1      -1.243  -3.464  -0.246  0.00  0.00    -0.301 N 
ATOM     17  C   UNL     1      -2.163  -2.503   0.132  0.00  0.00    +0.216 C 
ATOM     19  C   UNL     1      -1.636  -4.691  -0.923  0.00  0.00    +0.108 C 
ATOM     20  C   UNL     1       0.202  -3.415  -0.046  0.00  0.00    +0.108 C 
ATOM     21  C   UNL     1      -0.329  -5.279  -1.432  0.00  0.00    +0.020 C 
ATOM     22  C   UNL     1       0.679  -4.820  -0.387  0.00  0.00    +0.020 C 
ENDBRANCH  13  17
ENDBRANCH   9  13
BRANCH   7  14
ATOM     14  C   UNL     1      -0.854   3.468   0.449  0.00  0.00    +0.112 C 
BRANCH  14   4
ATOM      2  O   UNL     1       1.118   3.135  -1.611  0.00  0.00    -0.270 OA
ATOM      4  N   UNL     1       0.342   2.690   0.530  0.00  0.00    -0.311 N 
ATOM     23  C   UNL     1       1.250   2.582  -0.522  0.00  0.00    +0.244 C 
ATOM     31  H   UNL     1       0.566   2.279   1.430  0.00  0.00    +0.149 HD
BRANCH  23  24
ATOM     24  C   UNL     1       2.432   1.713  -0.288  0.00  0.00    +0.037 A 
ATOM     25  C   UNL     1       3.623   1.956  -0.973  0.00  0.00    +0.014 A 
ATOM     26  C   UNL     1       2.352   0.656   0.618  0.00  0.00    +0.014 A 
ATOM     27  C   UNL     1       4.733   1.141  -0.751  0.00  0.00    +0.019 A 
ATOM     28  C   UNL     1       3.462  -0.159   0.839  0.00  0.00    +0.019 A 
ATOM     29  C   UNL     1       4.653   0.084   0.155  0.00  0.00    +0.052 A 
BRANCH  29  30
ATOM      5  N   UNL     1       6.714  -1.429   0.565  0.00  0.00    -0.191 NA
ATOM     30  C   UNL     1       5.790  -0.751   0.381  0.00  0.00    +0.099 C 
ENDBRANCH  29  30
ENDBRANCH  23  24
ENDBRANCH  14   4
ENDBRANCH   7  14
TORSDOF 7
