REMARK  Name = 7675083
REMARK  6 active torsions:
REMARK  status: ('A' for Active; 'I' for Inactive)
REMARK    1  A    between atoms: S_1  and  N_8
REMARK    2  A    between atoms: S_1  and  C_22
REMARK    3  A    between atoms: N_10  and  C_18
REMARK    4  A    between atoms: C_13  and  C_17
REMARK    5  A    between atoms: C_21  and  C_25
REMARK    6  A    between atoms: C_35  and  C_36
REMARK                            x       y       z     vdW  Elec       q    Type
REMARK                         _______ _______ _______ _____ _____    ______ ____
ROOT
ATOM      6  O   UNL     1      -2.216   1.016   2.393  0.00  0.00    -0.270 OA
ATOM      8  N   UNL     1       0.938  -0.948  -1.053  0.00  0.00    -0.162 NA
ATOM      9  N   UNL     1      -1.293  -0.205   0.625  0.00  0.00    -0.294 N 
ATOM     13  C   UNL     1       1.145  -0.044   0.112  0.00  0.00    +0.183 C 
ATOM     14  C   UNL     1       0.061  -0.175   1.178  0.00  0.00    +0.138 C 
ATOM     15  C   UNL     1      -0.272  -1.808  -0.972  0.00  0.00    +0.129 C 
ATOM     16  C   UNL     1      -1.477  -0.945  -0.629  0.00  0.00    +0.125 C 
ATOM     21  C   UNL     1      -2.337   0.390   1.341  0.00  0.00    +0.247 C 
ENDROOT
BRANCH  21  25
ATOM     25  C   UNL     1      -3.701   0.263   0.805  0.00  0.00    +0.037 A 
ATOM     28  C   UNL     1      -4.500  -0.819   1.177  0.00  0.00    +0.014 A 
ATOM     29  C   UNL     1      -4.197   1.225  -0.075  0.00  0.00    +0.014 A 
ATOM     33  C   UNL     1      -5.793  -0.938   0.670  0.00  0.00    +0.019 A 
ATOM     34  C   UNL     1      -5.490   1.106  -0.583  0.00  0.00    +0.019 A 
ATOM     35  C   UNL     1      -6.289   0.024  -0.210  0.00  0.00    +0.052 A 
BRANCH  35  36
ATOM     12  N   UNL     1      -8.690  -0.197  -1.153  0.00  0.00    -0.191 NA
ATOM     36  C   UNL     1      -7.614  -0.098  -0.730  0.00  0.00    +0.099 C 
ENDBRANCH  35  36
ENDBRANCH  21  25
BRANCH  13  17
ATOM      3  O   UNL     1       0.472   1.622  -1.455  0.00  0.00    -0.274 OA
ATOM     10  N   UNL     1       2.043   2.172   0.173  0.00  0.00    -0.303 N 
ATOM     17  C   UNL     1       1.163   1.328  -0.482  0.00  0.00    +0.234 C 
ATOM     37  H   UNL     1       2.541   1.829   0.990  0.00  0.00    +0.149 HD
BRANCH  10  18
ATOM      7  O   UNL     1       4.619   3.027  -0.145  0.00  0.00    -0.274 OA
ATOM     11  N   UNL     1       4.022   5.185   0.310  0.00  0.00    -0.314 N 
ATOM     18  C   UNL     1       2.261   3.541  -0.219  0.00  0.00    +0.159 C 
ATOM     19  C   UNL     1       1.290   4.471   0.494  0.00  0.00    +0.033 C 
ATOM     20  C   UNL     1       1.657   5.916   0.198  0.00  0.00    +0.021 C 
ATOM     23  C   UNL     1       3.732   3.867   0.018  0.00  0.00    +0.233 C 
ATOM     24  C   UNL     1       3.056   6.188   0.717  0.00  0.00    +0.104 C 
ATOM     38  H   UNL     1       5.003   5.426   0.412  0.00  0.00    +0.149 HD
ENDBRANCH  10  18
ENDBRANCH  13  17
BRANCH   8   1
ATOM      1  S   UNL     1       2.333  -1.670  -1.727  0.00  0.00    +0.062 S 
ATOM      4  O   UNL     1       3.452  -0.764  -1.580  0.00  0.00    -0.153 OA
ATOM      5  O   UNL     1       1.994  -2.232  -3.018  0.00  0.00    -0.153 OA
BRANCH   1  22
ATOM      2  F   UNL     1       3.116  -6.130   2.046  0.00  0.00    -0.205 F 
ATOM     22  C   UNL     1       2.567  -3.006  -0.597  0.00  0.00    +0.106 A 
ATOM     26  C   UNL     1       1.962  -4.239  -0.840  0.00  0.00    +0.031 A 
ATOM     27  C   UNL     1       3.358  -2.828   0.538  0.00  0.00    +0.031 A 
ATOM     30  C   UNL     1       2.147  -5.294   0.053  0.00  0.00    +0.040 A 
ATOM     31  C   UNL     1       3.543  -3.884   1.431  0.00  0.00    +0.040 A 
ATOM     32  C   UNL     1       2.938  -5.117   1.188  0.00  0.00    +0.124 A 
ENDBRANCH   1  22
ENDBRANCH   8   1
TORSDOF 6
