REMARK  Name = 11867385
REMARK  8 active torsions:
REMARK  status: ('A' for Active; 'I' for Inactive)
REMARK    1  A    between atoms: O_3  and  C_12
REMARK    2  A    between atoms: O_3  and  C_16
REMARK    3  A    between atoms: N_6  and  C_11
REMARK    4  A    between atoms: N_7  and  C_20
REMARK    5  A    between atoms: N_8  and  C_23
REMARK    6  A    between atoms: N_8  and  C_32
REMARK    7  A    between atoms: N_8  and  C_33
REMARK    8  A    between atoms: C_15  and  C_17
REMARK                            x       y       z     vdW  Elec       q    Type
REMARK                         _______ _______ _______ _____ _____    ______ ____
ROOT
ATOM      1  O   UNL     1       0.048  -1.557  -0.727  0.00  0.00    -0.368 OA
ATOM      2  O   UNL     1      -0.590  -4.031   0.968  0.00  0.00    -0.368 OA
ATOM      9  C   UNL     1      -1.181  -2.715   0.937  0.00  0.00    +0.173 C 
ATOM     10  C   UNL     1      -0.053  -1.732   0.696  0.00  0.00    +0.192 C 
ATOM     11  C   UNL     1      -2.057  -2.569  -0.285  0.00  0.00    +0.130 C 
ATOM     12  C   UNL     1       1.143  -2.464   1.256  0.00  0.00    +0.235 C 
ATOM     13  C   UNL     1      -1.046  -2.231  -1.367  0.00  0.00    +0.185 C 
ATOM     14  C   UNL     1       0.838  -3.900   0.892  0.00  0.00    +0.207 C 
ENDROOT
BRANCH  11   6
ATOM      4  O   UNL     1      -4.594  -2.325  -1.607  0.00  0.00    -0.270 OA
ATOM      6  N   UNL     1      -3.019  -1.507  -0.115  0.00  0.00    -0.304 N 
ATOM     15  C   UNL     1      -4.224  -1.475  -0.801  0.00  0.00    +0.244 C 
ATOM     35  H   UNL     1      -2.731  -0.713   0.448  0.00  0.00    +0.149 HD
BRANCH  15  17
ATOM     17  C   UNL     1      -5.094  -0.300  -0.535  0.00  0.00    +0.037 A 
ATOM     18  C   UNL     1      -4.992   0.342   0.681  0.00  0.00    +0.015 A 
ATOM     19  C   UNL     1      -5.976   0.110  -1.513  0.00  0.00    +0.015 A 
ATOM     21  C   UNL     1      -5.809   1.445   0.931  0.00  0.00    +0.024 A 
ATOM     22  C   UNL     1      -6.793   1.213  -1.262  0.00  0.00    +0.024 A 
ATOM     23  C   UNL     1      -6.710   1.880  -0.040  0.00  0.00    +0.029 A 
BRANCH  23   8
ATOM      8  N   UNL     1      -7.537   2.994   0.214  0.00  0.00    -0.336 N 
ATOM     32  C   UNL     1      -8.846   3.091  -0.400  0.00  0.00    +0.129 C 
ATOM     33  C   UNL     1      -7.094   4.050   1.103  0.00  0.00    +0.129 C 
ENDBRANCH  23   8
ENDBRANCH  15  17
ENDBRANCH  11   6
BRANCH  12   3
ATOM      3  O   UNL     1       2.371  -2.031   0.717  0.00  0.00    -0.442 OA
BRANCH   3  16
ATOM      5  O   UNL     1       2.029   0.050   1.601  0.00  0.00    -0.226 OA
ATOM      7  N   UNL     1       3.950  -0.459   0.363  0.00  0.00    -0.251 N 
ATOM     16  C   UNL     1       2.729  -0.720   0.955  0.00  0.00    +0.405 C 
ATOM     36  H   UNL     1       4.353  -1.250  -0.125  0.00  0.00    +0.158 HD
BRANCH   7  20
ATOM     20  C   UNL     1       4.676   0.754   0.364  0.00  0.00    +0.044 A 
ATOM     24  C   UNL     1       5.909   0.863  -0.284  0.00  0.00    +0.003 A 
ATOM     25  C   UNL     1       4.109   1.829   1.038  0.00  0.00    +0.024 A 
ATOM     26  C   UNL     1       6.591   2.103  -0.249  0.00  0.00    -0.016 A 
ATOM     27  C   UNL     1       6.488  -0.220  -0.966  0.00  0.00    +0.010 A 
ATOM     28  C   UNL     1       4.779   3.048   1.072  0.00  0.00    +0.002 A 
ATOM     29  C   UNL     1       6.012   3.186   0.433  0.00  0.00    +0.008 A 
ATOM     30  C   UNL     1       7.831   2.223  -0.897  0.00  0.00    +0.008 A 
ATOM     31  C   UNL     1       7.721  -0.082  -1.604  0.00  0.00    +0.001 A 
ATOM     34  C   UNL     1       8.391   1.137  -1.569  0.00  0.00    +0.001 A 
ENDBRANCH   7  20
ENDBRANCH   3  16
ENDBRANCH  12   3
TORSDOF 6
