REMARK  Name = 75537137
REMARK  5 active torsions:
REMARK  status: ('A' for Active; 'I' for Inactive)
REMARK    1  A    between atoms: O_2  and  C_14
REMARK    2  A    between atoms: O_2  and  C_15
REMARK    3  A    between atoms: N_4  and  C_12
REMARK    4  A    between atoms: N_5  and  C_13
REMARK    5  A    between atoms: C_12  and  C_14
REMARK                            x       y       z     vdW  Elec       q    Type
REMARK                         _______ _______ _______ _____ _____    ______ ____
ROOT
ATOM      1  O   UNL     1       1.146   2.074   0.450  0.00  0.00    -0.252 OA
ATOM      3  N   UNL     1      -0.775   0.868  -0.163  0.00  0.00    -0.278 N 
ATOM      4  N   UNL     1       1.203   0.218  -1.005  0.00  0.00    -0.281 N 
ATOM      5  N   UNL     1      -3.234  -0.469   0.111  0.00  0.00    -0.302 NA
ATOM      6  C   UNL     1      -1.106  -0.192  -1.093  0.00  0.00    +0.109 C 
ATOM      7  C   UNL     1       0.253  -0.773  -1.479  0.00  0.00    +0.133 C 
ATOM      8  C   UNL     1      -2.069  -1.186  -0.446  0.00  0.00    +0.108 C 
ATOM      9  C   UNL     1      -1.838   1.540   0.553  0.00  0.00    +0.125 C 
ATOM     10  C   UNL     1      -2.811   0.510   1.133  0.00  0.00    +0.103 C 
ATOM     11  C   UNL     1       0.593   1.171  -0.165  0.00  0.00    +0.305 C 
ATOM     13  C   UNL     1      -4.192  -1.417   0.680  0.00  0.00    +0.105 C 
ENDROOT
BRANCH   4  12
ATOM     12  C   UNL     1       2.621   0.107  -1.268  0.00  0.00    +0.137 C 
BRANCH  12  14
ATOM     14  C   UNL     1       3.294  -0.853  -0.303  0.00  0.00    +0.178 C 
BRANCH  14   2
ATOM      2  O   UNL     1       3.148  -0.367   1.025  0.00  0.00    -0.381 OA
ATOM     15  C   UNL     1       3.768  -1.231   1.968  0.00  0.00    +0.194 C 
ENDBRANCH  14   2
ENDBRANCH  12  14
ENDBRANCH   4  12
TORSDOF 3
