REMARK  Name = 56774196
REMARK  9 active torsions:
REMARK  status: ('A' for Active; 'I' for Inactive)
REMARK    1  A    between atoms: O_3  and  C_26
REMARK    2  A    between atoms: O_3  and  C_27
REMARK    3  A    between atoms: N_4  and  C_8
REMARK    4  A    between atoms: N_4  and  C_13
REMARK    5  A    between atoms: C_6  and  C_11
REMARK    6  A    between atoms: C_6  and  C_12
REMARK    7  A    between atoms: C_7  and  C_10
REMARK    8  A    between atoms: C_10  and  C_14
REMARK    9  A    between atoms: C_20  and  C_21
REMARK                            x       y       z     vdW  Elec       q    Type
REMARK                         _______ _______ _______ _____ _____    ______ ____
ROOT
ATOM      6  C   UNL     1      -2.901   1.711  -0.148  0.00  0.00    -0.016 C 
ATOM      7  C   UNL     1      -1.419   1.664   0.279  0.00  0.00    +0.004 C 
ATOM      8  C   UNL     1      -3.029   0.281   0.417  0.00  0.00    +0.060 C 
ATOM      9  C   UNL     1      -1.514   0.129   0.166  0.00  0.00    +0.023 C 
ATOM     11  C   UNL     1      -3.103   1.899  -1.636  0.00  0.00    +0.013 C 
ATOM     12  C   UNL     1      -3.770   2.704   0.605  0.00  0.00    +0.013 C 
ENDROOT
BRANCH   8   4
ATOM      4  N   UNL     1      -3.755  -0.592  -0.509  0.00  0.00    -0.310 NA
ATOM     28  H   UNL     1      -3.313  -1.497  -0.669  0.00  0.00    +0.122 HD
BRANCH   4  13
ATOM      1  O   UNL     1      -7.376  -2.545   0.330  0.00  0.00    -0.380 OA
ATOM     13  C   UNL     1      -5.114  -0.797  -0.013  0.00  0.00    +0.058 C 
ATOM     15  C   UNL     1      -5.151  -1.892   1.058  0.00  0.00    +0.047 C 
ATOM     16  C   UNL     1      -6.053  -1.162  -1.167  0.00  0.00    +0.047 C 
ATOM     17  C   UNL     1      -6.590  -2.185   1.467  0.00  0.00    +0.161 C 
ATOM     18  C   UNL     1      -7.442  -1.496  -0.635  0.00  0.00    +0.161 C 
ENDBRANCH   4  13
ENDBRANCH   8   4
BRANCH   7  10
ATOM     10  C   UNL     1      -0.413   2.302  -0.652  0.00  0.00    +0.063 C 
BRANCH  10  14
ATOM      2  O   UNL     1       2.896   2.056   0.767  0.00  0.00    -0.354 OA
ATOM      5  N   UNL     1       1.663   2.681   0.622  0.00  0.00    -0.083 NA
ATOM     14  C   UNL     1       0.991   1.922  -0.248  0.00  0.00    +0.084 A 
ATOM     19  C   UNL     1       1.741   0.815  -0.681  0.00  0.00    +0.076 A 
ATOM     20  C   UNL     1       2.930   0.946  -0.013  0.00  0.00    +0.167 A 
BRANCH  20  21
ATOM     21  C   UNL     1       4.148   0.190   0.033  0.00  0.00    +0.020 A 
ATOM     22  C   UNL     1       4.279  -0.969  -0.732  0.00  0.00    +0.015 A 
ATOM     23  C   UNL     1       5.201   0.613   0.844  0.00  0.00    +0.015 A 
ATOM     24  C   UNL     1       5.463  -1.705  -0.687  0.00  0.00    +0.046 A 
ATOM     25  C   UNL     1       6.386  -0.122   0.889  0.00  0.00    +0.046 A 
ATOM     26  C   UNL     1       6.516  -1.281   0.124  0.00  0.00    +0.120 A 
BRANCH  26   3
ATOM      3  O   UNL     1       7.673  -1.997   0.166  0.00  0.00    -0.495 OA
ATOM     27  C   UNL     1       7.741  -3.170  -0.644  0.00  0.00    +0.277 C 
ENDBRANCH  26   3
ENDBRANCH  20  21
ENDBRANCH  10  14
ENDBRANCH   7  10
TORSDOF 6
