REMARK  Name = 75537146
REMARK  6 active torsions:
REMARK  status: ('A' for Active; 'I' for Inactive)
REMARK    1  A    between atoms: O_3  and  C_16
REMARK    2  A    between atoms: O_3  and  C_22
REMARK    3  A    between atoms: N_5  and  C_14
REMARK    4  A    between atoms: N_6  and  C_15
REMARK    5  A    between atoms: C_14  and  C_17
REMARK    6  A    between atoms: C_15  and  C_16
REMARK                            x       y       z     vdW  Elec       q    Type
REMARK                         _______ _______ _______ _____ _____    ______ ____
ROOT
ATOM      2  O   UNL     1       3.764   1.865  -0.326  0.00  0.00    -0.252 OA
ATOM      4  N   UNL     1       1.513   1.196  -0.383  0.00  0.00    -0.278 N 
ATOM      5  N   UNL     1      -1.145   0.848   0.470  0.00  0.00    -0.295 NA
ATOM      6  N   UNL     1       3.075  -0.265  -1.069  0.00  0.00    -0.281 N 
ATOM      8  C   UNL     1       0.758   0.064  -0.879  0.00  0.00    +0.109 C 
ATOM      9  C   UNL     1      -0.327  -0.332   0.121  0.00  0.00    +0.109 C 
ATOM     10  C   UNL     1       1.824  -1.003  -1.125  0.00  0.00    +0.133 C 
ATOM     11  C   UNL     1       0.804   2.352   0.126  0.00  0.00    +0.125 C 
ATOM     12  C   UNL     1      -0.311   1.906   1.075  0.00  0.00    +0.104 C 
ATOM     13  C   UNL     1       2.893   1.039  -0.566  0.00  0.00    +0.305 C 
ENDROOT
BRANCH   5  14
ATOM     14  C   UNL     1      -2.225   0.468   1.381  0.00  0.00    +0.122 C 
BRANCH  14  17
ATOM      1  F   UNL     1      -4.142   1.846  -0.218  0.00  0.00    -0.204 F 
ATOM      7  N   UNL     1      -5.440  -1.507  -0.684  0.00  0.00    -0.260 NA
ATOM     17  C   UNL     1      -3.351  -0.221   0.658  0.00  0.00    +0.005 A 
ATOM     18  C   UNL     1      -4.250   0.517  -0.105  0.00  0.00    +0.146 A 
ATOM     19  C   UNL     1      -3.496  -1.601   0.750  0.00  0.00    +0.027 A 
ATOM     20  C   UNL     1      -5.267  -0.167  -0.750  0.00  0.00    +0.149 A 
ATOM     21  C   UNL     1      -4.547  -2.191   0.067  0.00  0.00    +0.111 A 
ENDBRANCH  14  17
ENDBRANCH   5  14
BRANCH   6  15
ATOM     15  C   UNL     1       4.346  -0.889  -1.361  0.00  0.00    +0.137 C 
BRANCH  15  16
ATOM     16  C   UNL     1       4.870  -1.670  -0.170  0.00  0.00    +0.178 C 
BRANCH  16   3
ATOM      3  O   UNL     1       5.077  -0.784   0.922  0.00  0.00    -0.381 OA
ATOM     22  C   UNL     1       5.574  -1.469   2.063  0.00  0.00    +0.194 C 
ENDBRANCH  16   3
ENDBRANCH  15  16
ENDBRANCH   6  15
TORSDOF 5
