REMARK  Name = 26742993
REMARK  10 active torsions:
REMARK  status: ('A' for Active; 'I' for Inactive)
REMARK    1  A    between atoms: N_4  and  C_19
REMARK    2  A    between atoms: C_7  and  C_13
REMARK    3  A    between atoms: C_8  and  C_11
REMARK    4  A    between atoms: C_11  and  C_14
REMARK    5  A    between atoms: C_13  and  C_15
REMARK    6  A    between atoms: C_17  and  C_18
REMARK    7  A    between atoms: C_18  and  C_20
REMARK    8  A    between atoms: C_19  and  C_22
REMARK    9  A    between atoms: C_20  and  C_21
REMARK   10  A    between atoms: C_21  and  C_23
REMARK                            x       y       z     vdW  Elec       q    Type
REMARK                         _______ _______ _______ _____ _____    ______ ____
ROOT
ATOM      3  N   UNL     1       5.409  -1.283  -0.476  0.00  0.00    -0.316 NA
ATOM      7  C   UNL     1       2.562  -0.514  -0.576  0.00  0.00    +0.004 C 
ATOM      8  C   UNL     1       3.590   0.202   0.332  0.00  0.00    +0.012 C 
ATOM      9  C   UNL     1       3.301  -1.161  -1.759  0.00  0.00    +0.019 C 
ATOM     10  C   UNL     1       4.757  -0.726   0.710  0.00  0.00    +0.085 C 
ATOM     12  C   UNL     1       4.471  -2.034  -1.309  0.00  0.00    +0.081 C 
ATOM     28  H   UNL     1       6.169  -1.897  -0.186  0.00  0.00    +0.122 HD
ENDROOT
BRANCH   8  11
ATOM     11  C   UNL     1       2.961   0.811   1.585  0.00  0.00    +0.064 C 
BRANCH  11  14
ATOM      1  O   UNL     1       0.980   3.698   0.746  0.00  0.00    -0.359 OA
ATOM      5  N   UNL     1       2.186   3.082   1.056  0.00  0.00    -0.083 NA
ATOM     14  C   UNL     1       1.881   1.794   1.233  0.00  0.00    +0.084 A 
ATOM     16  C   UNL     1       0.511   1.539   1.050  0.00  0.00    +0.071 A 
ATOM     17  C   UNL     1      -0.010   2.769   0.745  0.00  0.00    +0.138 A 
BRANCH  17  18
ATOM     18  C   UNL     1      -1.361   3.251   0.434  0.00  0.00    +0.077 C 
BRANCH  18  20
ATOM     20  C   UNL     1      -1.805   2.920  -1.008  0.00  0.00    +0.007 C 
BRANCH  20  21
ATOM     21  C   UNL     1      -3.195   3.466  -1.336  0.00  0.00    -0.003 C 
ATOM     23  C   UNL     1      -3.590   3.161  -2.772  0.00  0.00    +0.004 C 
ENDBRANCH  20  21
ENDBRANCH  18  20
ENDBRANCH  17  18
ENDBRANCH  11  14
ENDBRANCH   8  11
BRANCH   7  13
ATOM     13  C   UNL     1       1.696  -1.546   0.156  0.00  0.00    +0.099 C 
BRANCH  13  15
ATOM      2  O   UNL     1       0.099  -1.310  -1.646  0.00  0.00    -0.276 OA
ATOM      4  N   UNL     1      -0.344  -2.799   0.082  0.00  0.00    -0.311 N 
ATOM     15  C   UNL     1       0.412  -1.849  -0.588  0.00  0.00    +0.214 C 
ATOM     29  H   UNL     1      -0.003  -3.173   0.964  0.00  0.00    +0.149 HD
BRANCH   4  19
ATOM     19  C   UNL     1      -1.620  -3.276  -0.400  0.00  0.00    +0.141 C 
BRANCH  19  22
ATOM      6  N   UNL     1      -4.220  -1.866   1.956  0.00  0.00    -0.263 NA
ATOM     22  C   UNL     1      -2.761  -2.450   0.119  0.00  0.00    -0.012 A 
ATOM     24  C   UNL     1      -3.412  -1.533  -0.699  0.00  0.00    +0.008 A 
ATOM     25  C   UNL     1      -3.199  -2.577   1.427  0.00  0.00    +0.115 A 
ATOM     26  C   UNL     1      -4.467  -0.783  -0.192  0.00  0.00    +0.020 A 
ATOM     27  C   UNL     1      -4.829  -0.986   1.131  0.00  0.00    +0.111 A 
ENDBRANCH  19  22
ENDBRANCH   4  19
ENDBRANCH  13  15
ENDBRANCH   7  13
TORSDOF 9
