REMARK  Name = 25338403
REMARK  7 active torsions:
REMARK  status: ('A' for Active; 'I' for Inactive)
REMARK    1  A    between atoms: O_4  and  C_17
REMARK    2  A    between atoms: O_4  and  C_21
REMARK    3  A    between atoms: N_5  and  C_14
REMARK    4  A    between atoms: N_6  and  C_9
REMARK    5  A    between atoms: C_10  and  C_13
REMARK    6  A    between atoms: C_15  and  C_17
REMARK    7  A    between atoms: C_16  and  C_18
REMARK                            x       y       z     vdW  Elec       q    Type
REMARK                         _______ _______ _______ _____ _____    ______ ____
ROOT
ATOM      5  N   UNL     1      -1.196   3.475   1.113  0.00  0.00    -0.293 NA
ATOM      9  C   UNL     1       0.762   3.581  -0.148  0.00  0.00    +0.089 C 
ATOM     10  C   UNL     1      -1.646   3.185  -0.262  0.00  0.00    +0.147 C 
ATOM     11  C   UNL     1      -0.346   3.100  -1.085  0.00  0.00    +0.052 C 
ATOM     12  C   UNL     1       0.018   4.287   0.975  0.00  0.00    +0.107 C 
ATOM     14  C   UNL     1      -2.209   4.143   1.920  0.00  0.00    +0.105 C 
ENDROOT
BRANCH  10  13
ATOM      2  O   UNL     1      -3.729   2.077  -0.898  0.00  0.00    -0.336 OA
ATOM      7  N   UNL     1      -2.192   0.702  -0.024  0.00  0.00    -0.190 NA
ATOM      8  N   UNL     1      -4.305   0.800  -0.895  0.00  0.00    -0.056 NA
ATOM     13  C   UNL     1      -2.486   1.930  -0.370  0.00  0.00    +0.245 A 
ATOM     16  C   UNL     1      -3.338   0.045  -0.366  0.00  0.00    +0.202 A 
BRANCH  16  18
ATOM      1 CL   UNL     1      -3.939  -5.811   0.460  0.00  0.00    -0.084 Cl
ATOM     18  C   UNL     1      -3.484  -1.368  -0.165  0.00  0.00    +0.023 A 
ATOM     19  C   UNL     1      -2.439  -2.104   0.391  0.00  0.00    +0.013 A 
ATOM     20  C   UNL     1      -4.671  -2.005  -0.528  0.00  0.00    +0.013 A 
ATOM     22  C   UNL     1      -2.579  -3.479   0.585  0.00  0.00    +0.021 A 
ATOM     23  C   UNL     1      -4.811  -3.379  -0.335  0.00  0.00    +0.021 A 
ATOM     24  C   UNL     1      -3.766  -4.116   0.221  0.00  0.00    +0.041 A 
ENDBRANCH  16  18
ENDBRANCH  10  13
BRANCH   9   6
ATOM      3  O   UNL     1       3.193   2.509  -1.290  0.00  0.00    -0.272 OA
ATOM      6  N   UNL     1       1.549   2.479   0.353  0.00  0.00    -0.308 N 
ATOM     15  C   UNL     1       2.706   2.036  -0.267  0.00  0.00    +0.251 C 
ATOM     30  H   UNL     1       1.203   1.977   1.167  0.00  0.00    +0.149 HD
BRANCH  15  17
ATOM     17  C   UNL     1       3.327   0.870   0.472  0.00  0.00    +0.324 C 
BRANCH  17   4
ATOM      4  O   UNL     1       4.510   0.445  -0.171  0.00  0.00    -0.483 OA
BRANCH   4  21
ATOM     21  C   UNL     1       4.842  -0.885  -0.060  0.00  0.00    +0.121 A 
ATOM     25  C   UNL     1       4.469  -1.604   1.075  0.00  0.00    +0.045 A 
ATOM     26  C   UNL     1       5.551  -1.514  -1.083  0.00  0.00    +0.045 A 
ATOM     27  C   UNL     1       4.806  -2.953   1.188  0.00  0.00    +0.004 A 
ATOM     28  C   UNL     1       5.887  -2.863  -0.971  0.00  0.00    +0.004 A 
ATOM     29  C   UNL     1       5.515  -3.583   0.165  0.00  0.00    +0.000 A 
ENDBRANCH   4  21
ENDBRANCH  17   4
ENDBRANCH  15  17
ENDBRANCH   9   6
TORSDOF 6
