REMARK  Name = 7049410
REMARK  13 active torsions:
REMARK  status: ('A' for Active; 'I' for Inactive)
REMARK    1  A    between atoms: S_1  and  C_26
REMARK    2  A    between atoms: S_1  and  C_30
REMARK    3  A    between atoms: O_5  and  C_27
REMARK    4  A    between atoms: O_5  and  C_31
REMARK    5  A    between atoms: N_8  and  C_11
REMARK    6  A    between atoms: N_9  and  C_15
REMARK    7  A    between atoms: N_10  and  C_24
REMARK    8  A    between atoms: C_12  and  C_20
REMARK    9  A    between atoms: C_22  and  C_26
REMARK   10  A    between atoms: C_24  and  C_25
REMARK   11  A    between atoms: C_24  and  C_27
REMARK   12  A    between atoms: C_25  and  C_28
REMARK   13  A    between atoms: C_25  and  C_29
REMARK                            x       y       z     vdW  Elec       q    Type
REMARK                         _______ _______ _______ _____ _____    ______ ____
ROOT
ATOM      3  O   UNL     1       3.544   2.796  -0.467  0.00  0.00    -0.275 OA
ATOM      7  N   UNL     1       1.548   2.495   0.667  0.00  0.00    -0.287 N 
ATOM     11  C   UNL     1      -0.395   1.768   1.824  0.00  0.00    +0.094 C 
ATOM     12  C   UNL     1       1.866   1.181   1.206  0.00  0.00    +0.164 C 
ATOM     13  C   UNL     1       0.799   0.918   2.266  0.00  0.00    +0.055 C 
ATOM     14  C   UNL     1       0.257   2.976   1.158  0.00  0.00    +0.131 C 
ATOM     22  C   UNL     1       2.463   3.234  -0.069  0.00  0.00    +0.226 C 
ENDROOT
BRANCH  11   8
ATOM      4  O   UNL     1      -2.693   0.183   2.514  0.00  0.00    -0.253 OA
ATOM      8  N   UNL     1      -1.254   1.053   0.914  0.00  0.00    -0.295 N 
ATOM      9  N   UNL     1      -3.012  -0.282   0.262  0.00  0.00    -0.297 N 
ATOM     23  C   UNL     1      -2.353   0.306   1.338  0.00  0.00    +0.300 C 
ATOM     32  H   UNL     1      -1.014   1.038  -0.072  0.00  0.00    +0.151 HD
ATOM     33  H   UNL     1      -2.689  -0.057  -0.673  0.00  0.00    +0.151 HD
BRANCH   9  15
ATOM     15  C   UNL     1      -4.186  -1.113   0.411  0.00  0.00    +0.074 C 
ATOM     16  C   UNL     1      -4.235  -2.198  -0.669  0.00  0.00    +0.022 C 
ATOM     17  C   UNL     1      -5.464  -0.266   0.406  0.00  0.00    +0.022 C 
ATOM     18  C   UNL     1      -4.560  -1.633  -2.052  0.00  0.00    +0.002 C 
ATOM     19  C   UNL     1      -5.788   0.295  -0.978  0.00  0.00    +0.002 C 
ATOM     21  C   UNL     1      -5.841  -0.804  -2.034  0.00  0.00    +0.000 C 
ENDBRANCH   9  15
ENDBRANCH  11   8
BRANCH  12  20
ATOM      2  O   UNL     1       1.518   0.500  -1.055  0.00  0.00    -0.274 OA
ATOM     10  N   UNL     1       2.059  -1.110   0.537  0.00  0.00    -0.301 N 
ATOM     20  C   UNL     1       1.798   0.176   0.096  0.00  0.00    +0.234 C 
ATOM     34  H   UNL     1       2.347  -1.252   1.500  0.00  0.00    +0.150 HD
BRANCH  10  24
ATOM     24  C   UNL     1       2.034  -2.264  -0.333  0.00  0.00    +0.184 C 
BRANCH  24  25
ATOM     25  C   UNL     1       0.983  -3.308   0.103  0.00  0.00    +0.014 C 
ATOM     28  C   UNL     1       1.381  -3.981   1.420  0.00  0.00    +0.009 C 
ATOM     29  C   UNL     1      -0.432  -2.731   0.217  0.00  0.00    +0.009 C 
ENDBRANCH  24  25
BRANCH  24  27
ATOM      6  O   UNL     1       4.385  -2.512   0.176  0.00  0.00    -0.249 OA
ATOM     27  C   UNL     1       3.416  -2.894  -0.471  0.00  0.00    +0.328 C 
BRANCH  27   5
ATOM      5  O   UNL     1       3.432  -3.907  -1.383  0.00  0.00    -0.467 OA
ATOM     31  C   UNL     1       4.696  -4.551  -1.574  0.00  0.00    +0.280 C 
ENDBRANCH  27   5
ENDBRANCH  24  27
ENDBRANCH  10  24
ENDBRANCH  12  20
BRANCH  22  26
ATOM     26  C   UNL     1       2.053   4.650  -0.384  0.00  0.00    +0.164 C 
BRANCH  26   1
ATOM      1  S   UNL     1       1.177   4.628  -1.955  0.00  0.00    -0.155 S 
ATOM     30  C   UNL     1       0.808   6.395  -2.094  0.00  0.00    +0.085 C 
ENDBRANCH  26   1
ENDBRANCH  22  26
TORSDOF 9
