REMARK  Name = 7128122
REMARK  11 active torsions:
REMARK  status: ('A' for Active; 'I' for Inactive)
REMARK    1  A    between atoms: O_6  and  C_24
REMARK    2  A    between atoms: O_6  and  C_31
REMARK    3  A    between atoms: N_9  and  C_14
REMARK    4  A    between atoms: N_10  and  C_20
REMARK    5  A    between atoms: N_11  and  C_28
REMARK    6  A    between atoms: C_15  and  C_18
REMARK    7  A    between atoms: C_19  and  C_23
REMARK    8  A    between atoms: C_20  and  C_21
REMARK    9  A    between atoms: C_20  and  C_24
REMARK   10  A    between atoms: C_21  and  C_25
REMARK   11  A    between atoms: C_21  and  C_26
REMARK                            x       y       z     vdW  Elec       q    Type
REMARK                         _______ _______ _______ _____ _____    ______ ____
ROOT
ATOM      4  O   UNL     1      -2.660  -1.097   1.593  0.00  0.00    -0.268 OA
ATOM      8  N   UNL     1      -1.726  -1.363  -0.524  0.00  0.00    -0.283 N 
ATOM     14  C   UNL     1       0.022  -0.263  -1.690  0.00  0.00    +0.105 C 
ATOM     15  C   UNL     1      -0.974  -0.112  -0.540  0.00  0.00    +0.182 C 
ATOM     16  C   UNL     1      -0.681  -1.229  -2.646  0.00  0.00    +0.043 C 
ATOM     17  C   UNL     1      -1.453  -2.160  -1.720  0.00  0.00    +0.111 C 
ATOM     19  C   UNL     1      -2.438  -1.777   0.594  0.00  0.00    +0.267 C 
ENDROOT
BRANCH  14   9
ATOM      5  O   UNL     1       2.348   1.205  -0.890  0.00  0.00    -0.252 OA
ATOM      9  N   UNL     1       1.274  -0.814  -1.227  0.00  0.00    -0.294 N 
ATOM     11  N   UNL     1       3.434  -0.829  -0.450  0.00  0.00    -0.267 N 
ATOM     22  C   UNL     1       2.366  -0.023  -0.854  0.00  0.00    +0.304 C 
ATOM     37  H   UNL     1       1.345  -1.819  -1.103  0.00  0.00    +0.151 HD
ATOM     39  H   UNL     1       3.287  -1.835  -0.480  0.00  0.00    +0.156 HD
BRANCH  11  28
ATOM      1  F   UNL     1       5.384  -2.677   0.292  0.00  0.00    -0.203 F 
ATOM      2  F   UNL     1       8.437   0.794   1.302  0.00  0.00    -0.205 F 
ATOM     28  C   UNL     1       4.711  -0.418  -0.002  0.00  0.00    +0.070 A 
ATOM     32  C   UNL     1       5.665  -1.368   0.362  0.00  0.00    +0.147 A 
ATOM     33  C   UNL     1       5.015   0.941   0.075  0.00  0.00    +0.029 A 
ATOM     34  C   UNL     1       6.924  -0.959   0.803  0.00  0.00    +0.078 A 
ATOM     35  C   UNL     1       6.274   1.350   0.516  0.00  0.00    +0.040 A 
ATOM     36  C   UNL     1       7.228   0.401   0.880  0.00  0.00    +0.126 A 
ENDBRANCH  11  28
ENDBRANCH  14   9
BRANCH  19  23
ATOM     12  N   UNL     1      -2.058  -4.141   0.467  0.00  0.00    -0.247 NA
ATOM     13  N   UNL     1      -4.807  -4.655   0.678  0.00  0.00    -0.259 NA
ATOM     23  C   UNL     1      -2.963  -3.148   0.584  0.00  0.00    +0.144 A 
ATOM     27  C   UNL     1      -4.313  -3.401   0.687  0.00  0.00    +0.143 A 
ATOM     29  C   UNL     1      -2.552  -5.395   0.459  0.00  0.00    +0.131 A 
ATOM     30  C   UNL     1      -3.902  -5.647   0.562  0.00  0.00    +0.130 A 
ENDBRANCH  19  23
BRANCH  15  18
ATOM      3  O   UNL     1      -2.972   0.783  -1.491  0.00  0.00    -0.274 OA
ATOM     10  N   UNL     1      -1.605   2.180  -0.227  0.00  0.00    -0.301 N 
ATOM     18  C   UNL     1      -1.970   0.976  -0.809  0.00  0.00    +0.236 C 
ATOM     38  H   UNL     1      -0.779   2.203   0.364  0.00  0.00    +0.150 HD
BRANCH  10  20
ATOM     20  C   UNL     1      -2.381   3.388  -0.355  0.00  0.00    +0.184 C 
BRANCH  20  21
ATOM     21  C   UNL     1      -1.506   4.660  -0.317  0.00  0.00    +0.014 C 
ATOM     25  C   UNL     1      -0.907   4.879   1.076  0.00  0.00    +0.009 C 
ATOM     26  C   UNL     1      -0.392   4.660  -1.370  0.00  0.00    +0.009 C 
ENDBRANCH  20  21
BRANCH  20  24
ATOM      7  O   UNL     1      -3.622   2.617   1.572  0.00  0.00    -0.249 OA
ATOM     24  C   UNL     1      -3.497   3.452   0.682  0.00  0.00    +0.328 C 
BRANCH  24   6
ATOM      6  O   UNL     1      -4.314   4.527   0.496  0.00  0.00    -0.467 OA
ATOM     31  C   UNL     1      -5.391   4.659   1.429  0.00  0.00    +0.280 C 
ENDBRANCH  24   6
ENDBRANCH  20  24
ENDBRANCH  10  20
ENDBRANCH  15  18
TORSDOF 8
