REMARK  Name = 26744906
REMARK  4 active torsions:
REMARK  status: ('A' for Active; 'I' for Inactive)
REMARK    1  A    between atoms: N_3  and  C_13
REMARK    2  A    between atoms: C_8  and  C_14
REMARK    3  A    between atoms: C_13  and  C_15
REMARK    4  A    between atoms: C_17  and  C_19
REMARK                            x       y       z     vdW  Elec       q    Type
REMARK                         _______ _______ _______ _____ _____    ______ ____
ROOT
ATOM      3  N   UNL     1       2.846  -0.017   0.326  0.00  0.00    -0.281 NA
ATOM      4  N   UNL     1       2.175   3.272  -1.285  0.00  0.00    -0.347 N 
ATOM      5  N   UNL     1       1.954   4.012   0.814  0.00  0.00    -0.240 NA
ATOM      8  C   UNL     1       2.074   0.257   1.576  0.00  0.00    +0.152 C 
ATOM      9  C   UNL     1       2.155   1.770   1.989  0.00  0.00    +0.086 C 
ATOM     10  C   UNL     1       2.428   0.760  -0.860  0.00  0.00    +0.140 C 
ATOM     11  C   UNL     1       2.258   2.179  -0.478  0.00  0.00    +0.053 A 
ATOM     12  C   UNL     1       2.115   2.656   0.801  0.00  0.00    +0.065 A 
ATOM     16  C   UNL     1       1.992   4.354  -0.459  0.00  0.00    +0.197 A 
ATOM     31  H   UNL     1       2.231   3.290  -2.295  0.00  0.00    +0.167 HD
ENDROOT
BRANCH   8  14
ATOM      2  O   UNL     1       0.392  -1.268   2.517  0.00  0.00    -0.336 OA
ATOM      6  N   UNL     1      -0.380   0.023   0.857  0.00  0.00    -0.190 NA
ATOM      7  N   UNL     1      -0.956  -1.613   2.349  0.00  0.00    -0.056 NA
ATOM     14  C   UNL     1       0.649  -0.298   1.600  0.00  0.00    +0.245 A 
ATOM     17  C   UNL     1      -1.341  -0.809   1.353  0.00  0.00    +0.202 A 
BRANCH  17  19
ATOM     19  C   UNL     1      -2.677  -0.812   0.832  0.00  0.00    +0.023 A 
ATOM     22  C   UNL     1      -3.022   0.050  -0.209  0.00  0.00    +0.020 A 
ATOM     23  C   UNL     1      -3.629  -1.676   1.365  0.00  0.00    +0.012 A 
ATOM     24  C   UNL     1      -4.326   0.059  -0.730  0.00  0.00    -0.017 A 
ATOM     25  C   UNL     1      -5.294  -0.819  -0.188  0.00  0.00    -0.018 A 
ATOM     26  C   UNL     1      -4.929  -1.681   0.859  0.00  0.00    +0.009 A 
ATOM     27  C   UNL     1      -4.690   0.921  -1.778  0.00  0.00    +0.008 A 
ATOM     28  C   UNL     1      -6.598  -0.810  -0.710  0.00  0.00    +0.008 A 
ATOM     29  C   UNL     1      -5.990   0.916  -2.284  0.00  0.00    +0.001 A 
ATOM     30  C   UNL     1      -6.942   0.052  -1.751  0.00  0.00    +0.001 A 
ENDBRANCH  17  19
ENDBRANCH   8  14
BRANCH   3  13
ATOM     13  C   UNL     1       2.988  -1.435   0.013  0.00  0.00    +0.128 C 
BRANCH  13  15
ATOM      1  S   UNL     1       4.297  -2.451  -2.221  0.00  0.00    -0.100 S 
ATOM     15  C   UNL     1       4.298  -1.730  -0.668  0.00  0.00    +0.004 A 
ATOM     18  C   UNL     1       5.576  -1.496  -0.208  0.00  0.00    +0.012 A 
ATOM     20  C   UNL     1       6.566  -1.914  -1.143  0.00  0.00    +0.008 A 
ATOM     21  C   UNL     1       6.009  -2.452  -2.282  0.00  0.00    +0.045 A 
ENDBRANCH  13  15
ENDBRANCH   3  13
TORSDOF 4
