REMARK  Name = 25338283
REMARK  7 active torsions:
REMARK  status: ('A' for Active; 'I' for Inactive)
REMARK    1  A    between atoms: O_3  and  C_19
REMARK    2  A    between atoms: O_3  and  C_26
REMARK    3  A    between atoms: N_4  and  C_15
REMARK    4  A    between atoms: N_5  and  C_10
REMARK    5  A    between atoms: C_11  and  C_14
REMARK    6  A    between atoms: C_16  and  C_17
REMARK    7  A    between atoms: C_18  and  C_21
REMARK                            x       y       z     vdW  Elec       q    Type
REMARK                         _______ _______ _______ _____ _____    ______ ____
ROOT
ATOM      4  N   UNL     1      -0.127  -2.731   1.036  0.00  0.00    -0.293 NA
ATOM     10  C   UNL     1      -1.725  -2.473  -0.641  0.00  0.00    +0.089 C 
ATOM     11  C   UNL     1       0.651  -2.844  -0.212  0.00  0.00    +0.147 C 
ATOM     12  C   UNL     1      -0.361  -2.525  -1.330  0.00  0.00    +0.052 C 
ATOM     13  C   UNL     1      -1.490  -3.152   0.699  0.00  0.00    +0.107 C 
ATOM     15  C   UNL     1       0.430  -3.514   2.133  0.00  0.00    +0.105 C 
ENDROOT
BRANCH  11  14
ATOM      1  O   UNL     1       3.066  -2.546  -0.445  0.00  0.00    -0.336 OA
ATOM      6  N   UNL     1       1.936  -0.639  -0.124  0.00  0.00    -0.189 NA
ATOM      7  N   UNL     1       4.022  -1.523  -0.443  0.00  0.00    -0.054 NA
ATOM     14  C   UNL     1       1.865  -1.940  -0.252  0.00  0.00    +0.245 A 
ATOM     18  C   UNL     1       3.278  -0.430  -0.248  0.00  0.00    +0.222 A 
BRANCH  18  21
ATOM      8  N   UNL     1       2.986   1.905   0.022  0.00  0.00    -0.249 NA
ATOM      9  N   UNL     1       5.747   2.321  -0.235  0.00  0.00    -0.260 NA
ATOM     21  C   UNL     1       3.845   0.886  -0.175  0.00  0.00    +0.129 A 
ATOM     25  C   UNL     1       5.202   1.090  -0.301  0.00  0.00    +0.142 A 
ATOM     27  C   UNL     1       3.531   3.136   0.088  0.00  0.00    +0.131 A 
ATOM     28  C   UNL     1       4.888   3.340  -0.038  0.00  0.00    +0.130 A 
ENDBRANCH  18  21
ENDBRANCH  11  14
BRANCH  10   5
ATOM      2  O   UNL     1      -4.452  -1.584  -0.503  0.00  0.00    -0.270 OA
ATOM      5  N   UNL     1      -2.181  -1.114  -0.469  0.00  0.00    -0.307 N 
ATOM     16  C   UNL     1      -3.526  -0.782  -0.413  0.00  0.00    +0.248 C 
ATOM     29  H   UNL     1      -1.475  -0.390  -0.375  0.00  0.00    +0.149 HD
BRANCH  16  17
ATOM     17  C   UNL     1      -3.831   0.664  -0.259  0.00  0.00    +0.078 A 
ATOM     19  C   UNL     1      -2.956   1.512   0.419  0.00  0.00    +0.132 A 
ATOM     20  C   UNL     1      -5.013   1.170  -0.801  0.00  0.00    +0.017 A 
ATOM     22  C   UNL     1      -3.261   2.866   0.554  0.00  0.00    +0.046 A 
ATOM     23  C   UNL     1      -5.319   2.524  -0.665  0.00  0.00    +0.001 A 
ATOM     24  C   UNL     1      -4.443   3.372   0.012  0.00  0.00    +0.004 A 
BRANCH  19   3
ATOM      3  O   UNL     1      -1.798   1.036   0.957  0.00  0.00    -0.494 OA
ATOM     26  C   UNL     1      -0.964   1.976   1.632  0.00  0.00    +0.277 C 
ENDBRANCH  19   3
ENDBRANCH  16  17
ENDBRANCH  10   5
TORSDOF 5
