REMARK  Name = 40779333
REMARK  9 active torsions:
REMARK  status: ('A' for Active; 'I' for Inactive)
REMARK    1  A    between atoms: S_1  and  N_8
REMARK    2  A    between atoms: S_1  and  C_24
REMARK    3  A    between atoms: N_7  and  C_22
REMARK    4  A    between atoms: N_8  and  C_18
REMARK    5  A    between atoms: N_10  and  C_32
REMARK    6  A    between atoms: C_12  and  C_19
REMARK    7  A    between atoms: C_13  and  C_18
REMARK    8  A    between atoms: C_21  and  C_23
REMARK    9  A    between atoms: C_33  and  C_34
REMARK                            x       y       z     vdW  Elec       q    Type
REMARK                         _______ _______ _______ _____ _____    ______ ____
ROOT
ATOM      6  N   UNL     1      -4.183  -0.368   0.898  0.00  0.00    -0.297 NA
ATOM     11  C   UNL     1      -3.350  -1.750  -1.147  0.00  0.00    +0.002 C 
ATOM     12  C   UNL     1      -2.680  -2.256   0.161  0.00  0.00    +0.055 C 
ATOM     13  C   UNL     1      -3.743   0.546  -0.188  0.00  0.00    +0.072 C 
ATOM     14  C   UNL     1      -3.056  -0.245  -1.322  0.00  0.00    +0.024 C 
ATOM     15  C   UNL     1      -4.875  -1.895  -0.949  0.00  0.00    +0.019 C 
ATOM     16  C   UNL     1      -3.066  -1.262   1.294  0.00  0.00    +0.094 C 
ATOM     17  C   UNL     1      -5.282  -1.209   0.367  0.00  0.00    +0.085 C 
ENDROOT
BRANCH  12  19
ATOM      7  N   UNL     1      -0.603  -3.503   0.916  0.00  0.00    -0.270 N 
ATOM      9  N   UNL     1       0.726  -3.606   0.745  0.00  0.00    -0.168 NA
ATOM     19  C   UNL     1      -1.187  -2.550   0.135  0.00  0.00    +0.044 A 
ATOM     20  C   UNL     1      -0.169  -1.989  -0.598  0.00  0.00    +0.056 A 
ATOM     21  C   UNL     1       0.986  -2.679  -0.181  0.00  0.00    +0.128 A 
ATOM     22  C   UNL     1      -1.261  -4.372   1.864  0.00  0.00    +0.172 C 
BRANCH  21  23
ATOM      4  O   UNL     1       2.675  -1.515  -1.620  0.00  0.00    -0.461 OA
ATOM     23  C   UNL     1       2.352  -2.442  -0.680  0.00  0.00    +0.155 A 
ATOM     25  C   UNL     1       3.474  -3.122  -0.267  0.00  0.00    +0.051 A 
ATOM     28  C   UNL     1       4.556  -2.577  -0.999  0.00  0.00    +0.042 A 
ATOM     29  C   UNL     1       4.018  -1.603  -1.808  0.00  0.00    +0.196 A 
ENDBRANCH  21  23
ENDBRANCH  12  19
BRANCH  13  18
ATOM     18  C   UNL     1      -2.860   1.683   0.329  0.00  0.00    +0.124 C 
BRANCH  18   8
ATOM      8  N   UNL     1      -2.569   2.611  -0.776  0.00  0.00    -0.188 NA
ATOM     35  H   UNL     1      -2.532   2.205  -1.719  0.00  0.00    +0.148 HD
BRANCH   8   1
ATOM      1  S   UNL     1      -1.606   3.990  -0.505  0.00  0.00    +0.058 S 
ATOM      2  O   UNL     1      -2.161   4.753   0.597  0.00  0.00    -0.153 OA
ATOM      3  O   UNL     1      -1.333   4.635  -1.775  0.00  0.00    -0.153 OA
BRANCH   1  24
ATOM     24  C   UNL     1      -0.088   3.267   0.043  0.00  0.00    +0.105 A 
ATOM     26  C   UNL     1       0.900   2.934  -0.884  0.00  0.00    +0.030 A 
ATOM     27  C   UNL     1       0.121   3.030   1.401  0.00  0.00    +0.030 A 
ATOM     30  C   UNL     1       2.097   2.364  -0.452  0.00  0.00    +0.025 A 
ATOM     31  C   UNL     1       1.318   2.459   1.833  0.00  0.00    +0.025 A 
ATOM     32  C   UNL     1       2.306   2.126   0.907  0.00  0.00    +0.033 A 
BRANCH  32  10
ATOM      5  O   UNL     1       4.725   1.242  -0.654  0.00  0.00    -0.276 OA
ATOM     10  N   UNL     1       3.505   1.557   1.339  0.00  0.00    -0.286 N 
ATOM     33  C   UNL     1       4.603   1.160   0.564  0.00  0.00    +0.214 C 
ATOM     34  C   UNL     1       5.708   0.586   1.415  0.00  0.00    +0.109 C 
ATOM     36  H   UNL     1       3.580   1.415   2.344  0.00  0.00    +0.155 HD
ENDBRANCH  32  10
ENDBRANCH   1  24
ENDBRANCH   8   1
ENDBRANCH  18   8
ENDBRANCH  13  18
TORSDOF 7
