REMARK  Name = 25044789
REMARK  8 active torsions:
REMARK  status: ('A' for Active; 'I' for Inactive)
REMARK    1  A    between atoms: S_1  and  N_8
REMARK    2  A    between atoms: S_1  and  C_31
REMARK    3  A    between atoms: O_5  and  C_36
REMARK    4  A    between atoms: O_5  and  C_37
REMARK    5  A    between atoms: N_6  and  C_17
REMARK    6  A    between atoms: N_8  and  C_21
REMARK    7  A    between atoms: N_9  and  C_28
REMARK    8  A    between atoms: C_17  and  C_20
REMARK                            x       y       z     vdW  Elec       q    Type
REMARK                         _______ _______ _______ _____ _____    ______ ____
ROOT
ATOM      2  O   UNL     1      -0.011   1.888   2.450  0.00  0.00    -0.266 OA
ATOM      6  N   UNL     1      -3.370   0.859  -1.134  0.00  0.00    -0.297 NA
ATOM      7  N   UNL     1      -1.221   2.514   0.544  0.00  0.00    -0.310 N 
ATOM     10  C   UNL     1      -3.775   2.712   0.505  0.00  0.00    +0.024 C 
ATOM     11  C   UNL     1      -2.491   3.164  -1.532  0.00  0.00    +0.050 C 
ATOM     12  C   UNL     1      -3.529   3.752  -0.580  0.00  0.00    +0.017 C 
ATOM     13  C   UNL     1      -4.289   1.401  -0.126  0.00  0.00    +0.090 C 
ATOM     14  C   UNL     1      -3.043   1.863  -2.158  0.00  0.00    +0.094 C 
ATOM     15  C   UNL     1      -2.479   2.514   1.303  0.00  0.00    +0.130 C 
ATOM     16  C   UNL     1      -1.187   2.892  -0.805  0.00  0.00    +0.026 A 
ATOM     18  C   UNL     1      -0.013   2.993  -1.455  0.00  0.00    +0.024 A 
ATOM     19  C   UNL     1      -0.046   2.211   1.264  0.00  0.00    +0.274 A 
ATOM     21  C   UNL     1       1.215   2.319   0.487  0.00  0.00    +0.112 A 
ATOM     22  C   UNL     1       1.228   2.698  -0.791  0.00  0.00    +0.031 A 
ENDROOT
BRANCH  21   8
ATOM      8  N   UNL     1       2.449   2.035   1.098  0.00  0.00    -0.211 N 
ATOM     38  H   UNL     1       3.251   2.407   0.570  0.00  0.00    +0.174 HD
BRANCH   8   1
ATOM      1  S   UNL     1       2.668   0.469   1.701  0.00  0.00    +0.073 S 
ATOM      3  O   UNL     1       3.090   0.533   3.087  0.00  0.00    -0.150 OA
ATOM      4  O   UNL     1       1.543  -0.363   1.317  0.00  0.00    -0.150 OA
BRANCH   1  31
ATOM     31  C   UNL     1       4.063  -0.057   0.749  0.00  0.00    +0.109 A 
ATOM     32  C   UNL     1       3.870  -0.695  -0.476  0.00  0.00    +0.032 A 
ATOM     33  C   UNL     1       5.356   0.167   1.223  0.00  0.00    +0.032 A 
ATOM     34  C   UNL     1       4.970  -1.109  -1.228  0.00  0.00    +0.047 A 
ATOM     35  C   UNL     1       6.455  -0.246   0.471  0.00  0.00    +0.047 A 
ATOM     36  C   UNL     1       6.263  -0.885  -0.754  0.00  0.00    +0.120 A 
BRANCH  36   5
ATOM      5  O   UNL     1       7.336  -1.289  -1.487  0.00  0.00    -0.495 OA
ATOM     37  C   UNL     1       7.067  -1.937  -2.729  0.00  0.00    +0.277 C 
ENDBRANCH  36   5
ENDBRANCH   1  31
ENDBRANCH   8   1
ENDBRANCH  21   8
BRANCH   6  17
ATOM     17  C   UNL     1      -3.915  -0.352  -1.744  0.00  0.00    +0.121 C 
BRANCH  17  20
ATOM      9  N   UNL     1      -4.337  -3.152   0.606  0.00  0.00    -0.349 N 
ATOM     20  C   UNL     1      -3.808  -1.539  -0.825  0.00  0.00    -0.008 A 
ATOM     23  C   UNL     1      -2.631  -2.289  -0.543  0.00  0.00    +0.004 A 
ATOM     24  C   UNL     1      -4.840  -2.094  -0.103  0.00  0.00    +0.091 A 
ATOM     25  C   UNL     1      -2.991  -3.294   0.357  0.00  0.00    +0.049 A 
ATOM     26  C   UNL     1      -1.290  -2.208  -0.969  0.00  0.00    +0.010 A 
ATOM     27  C   UNL     1      -2.073  -4.226   0.854  0.00  0.00    +0.026 A 
ATOM     28  C   UNL     1      -5.122  -3.991   1.486  0.00  0.00    +0.149 C 
ATOM     29  C   UNL     1      -0.361  -3.133  -0.480  0.00  0.00    +0.001 A 
ATOM     30  C   UNL     1      -0.749  -4.126   0.417  0.00  0.00    +0.002 A 
ENDBRANCH  17  20
ENDBRANCH   6  17
TORSDOF 6
