REMARK  Name = 38027519
REMARK  12 active torsions:
REMARK  status: ('A' for Active; 'I' for Inactive)
REMARK    1  A    between atoms: S_1  and  N_6
REMARK    2  A    between atoms: S_1  and  C_21
REMARK    3  A    between atoms: N_6  and  C_15
REMARK    4  A    between atoms: N_7  and  C_22
REMARK    5  A    between atoms: C_8  and  C_12
REMARK    6  A    between atoms: C_9  and  C_15
REMARK    7  A    between atoms: C_11  and  C_16
REMARK    8  A    between atoms: C_12  and  C_17
REMARK    9  A    between atoms: C_12  and  C_18
REMARK   10  A    between atoms: C_13  and  C_19
REMARK   11  A    between atoms: C_16  and  C_20
REMARK   12  A    between atoms: C_22  and  C_23
REMARK                            x       y       z     vdW  Elec       q    Type
REMARK                         _______ _______ _______ _____ _____    ______ ____
ROOT
ATOM      8  C   UNL     1       1.302   0.223  -1.217  0.00  0.00    +0.000 C 
ATOM      9  C   UNL     1       2.847   0.247  -1.319  0.00  0.00    +0.030 C 
ATOM     10  C   UNL     1       0.737   1.650  -1.294  0.00  0.00    +0.012 C 
ATOM     11  C   UNL     1       1.286   2.555  -0.175  0.00  0.00    +0.023 C 
ATOM     13  C   UNL     1       2.789   2.430  -0.037  0.00  0.00    -0.073 C 
ATOM     14  C   UNL     1       3.472   1.398  -0.566  0.00  0.00    -0.023 C 
ATOM     19  C   UNL     1       3.498   3.541   0.686  0.00  0.00    +0.039 C 
ENDROOT
BRANCH   8  12
ATOM     12  C   UNL     1       0.672  -0.644  -2.311  0.00  0.00    -0.013 C 
ATOM     17  C   UNL     1       0.572   0.138  -3.617  0.00  0.00    +0.007 C 
ATOM     18  C   UNL     1      -0.701  -1.142  -1.872  0.00  0.00    +0.007 C 
ENDBRANCH   8  12
BRANCH   9  15
ATOM     15  C   UNL     1       3.455  -1.072  -0.831  0.00  0.00    +0.113 C 
BRANCH  15   6
ATOM      6  N   UNL     1       3.189  -1.220   0.609  0.00  0.00    -0.194 NA
ATOM     29  H   UNL     1       3.695  -0.544   1.196  0.00  0.00    +0.148 HD
BRANCH   6   1
ATOM      1  S   UNL     1       3.020  -2.786   1.271  0.00  0.00    +0.027 S 
ATOM      4  O   UNL     1       1.914  -3.471   0.631  0.00  0.00    -0.158 OA
ATOM      5  O   UNL     1       3.095  -2.688   2.716  0.00  0.00    -0.158 OA
ATOM     21  C   UNL     1       4.529  -3.541   0.711  0.00  0.00    +0.214 C 
ENDBRANCH   6   1
ENDBRANCH  15   6
ENDBRANCH   9  15
BRANCH  11  16
ATOM     16  C   UNL     1       0.586   2.272   1.158  0.00  0.00    +0.103 C 
BRANCH  16  20
ATOM      3  O   UNL     1      -1.494   3.122   0.260  0.00  0.00    -0.276 OA
ATOM      7  N   UNL     1      -1.543   1.510   1.934  0.00  0.00    -0.311 N 
ATOM     20  C   UNL     1      -0.918   2.371   1.043  0.00  0.00    +0.214 C 
ATOM     30  H   UNL     1      -0.981   0.920   2.539  0.00  0.00    +0.149 HD
BRANCH   7  22
ATOM     22  C   UNL     1      -2.979   1.395   2.045  0.00  0.00    +0.139 C 
BRANCH  22  23
ATOM      2  F   UNL     1      -5.052  -2.534  -1.415  0.00  0.00    -0.205 F 
ATOM     23  C   UNL     1      -3.532   0.348   1.122  0.00  0.00    -0.030 A 
ATOM     24  C   UNL     1      -3.922   0.693  -0.172  0.00  0.00    +0.008 A 
ATOM     25  C   UNL     1      -3.655  -0.971   1.559  0.00  0.00    +0.008 A 
ATOM     26  C   UNL     1      -4.436  -0.280  -1.029  0.00  0.00    +0.038 A 
ATOM     27  C   UNL     1      -4.169  -1.944   0.702  0.00  0.00    +0.038 A 
ATOM     28  C   UNL     1      -4.560  -1.599  -0.592  0.00  0.00    +0.123 A 
ENDBRANCH  22  23
ENDBRANCH   7  22
ENDBRANCH  16  20
ENDBRANCH  11  16
TORSDOF 8
