REMARK  Name = 11867055
REMARK  9 active torsions:
REMARK  status: ('A' for Active; 'I' for Inactive)
REMARK    1  A    between atoms: O_3  and  C_15
REMARK    2  A    between atoms: O_4  and  C_20
REMARK    3  A    between atoms: N_8  and  C_26
REMARK    4  A    between atoms: C_10  and  C_18
REMARK    5  A    between atoms: C_12  and  C_20
REMARK    6  A    between atoms: C_12  and  C_21
REMARK    7  A    between atoms: C_13  and  C_23
REMARK    8  A    between atoms: C_23  and  C_24
REMARK    9  A    between atoms: C_31  and  C_32
REMARK                            x       y       z     vdW  Elec       q    Type
REMARK                         _______ _______ _______ _____ _____    ______ ____
ROOT
ATOM      1  S   UNL     1      -0.019  -2.916   0.301  0.00  0.00    -0.057 S 
ATOM      6  O   UNL     1      -3.332   0.303  -0.278  0.00  0.00    -0.270 OA
ATOM      7  N   UNL     1      -0.464  -0.400  -0.102  0.00  0.00    -0.229 NA
ATOM      9  N   UNL     1      -2.395  -1.830   0.080  0.00  0.00    -0.261 N 
ATOM     10  C   UNL     1       3.324   0.201   0.296  0.00  0.00    -0.019 C 
ATOM     11  C   UNL     1       3.693  -1.234  -0.289  0.00  0.00    +0.011 C 
ATOM     12  C   UNL     1       5.215  -1.645  -0.268  0.00  0.00    +0.021 C 
ATOM     13  C   UNL     1       1.858   0.580  -0.215  0.00  0.00    +0.054 C 
ATOM     14  C   UNL     1       4.321   1.254  -0.254  0.00  0.00    +0.010 C 
ATOM     15  C   UNL     1       6.073  -0.465  -0.806  0.00  0.00    +0.123 C 
ATOM     16  C   UNL     1       2.738  -2.334   0.260  0.00  0.00    +0.049 C 
ATOM     17  C   UNL     1       5.782   0.857  -0.104  0.00  0.00    +0.032 C 
ATOM     18  C   UNL     1       3.358   0.246   1.844  0.00  0.00    +0.012 C 
ATOM     19  C   UNL     1       0.906  -0.574  -0.033  0.00  0.00    +0.058 A 
ATOM     21  C   UNL     1       5.428  -2.848  -1.230  0.00  0.00    +0.016 C 
ATOM     22  C   UNL     1       1.322  -1.876   0.160  0.00  0.00    +0.015 A 
ATOM     25  C   UNL     1      -1.052  -1.564   0.068  0.00  0.00    +0.165 A 
ATOM     31  C   UNL     1      -3.437  -0.904  -0.090  0.00  0.00    +0.250 C 
ATOM     41  H   UNL     1      -2.612  -2.816   0.186  0.00  0.00    +0.157 HD
ENDROOT
BRANCH  31  32
ATOM      2  F   UNL     1      -8.618  -3.070   0.009  0.00  0.00    -0.205 F 
ATOM     32  C   UNL     1      -4.809  -1.477  -0.063  0.00  0.00    +0.037 A 
ATOM     33  C   UNL     1      -5.844  -0.840  -0.747  0.00  0.00    +0.016 A 
ATOM     34  C   UNL     1      -5.060  -2.652   0.645  0.00  0.00    +0.016 A 
ATOM     35  C   UNL     1      -7.131  -1.378  -0.723  0.00  0.00    +0.039 A 
ATOM     36  C   UNL     1      -6.347  -3.190   0.670  0.00  0.00    +0.039 A 
ATOM     37  C   UNL     1      -7.382  -2.553  -0.014  0.00  0.00    +0.123 A 
ENDBRANCH  31  32
BRANCH  15   3
ATOM      3  O   UNL     1       7.464  -0.756  -0.680  0.00  0.00    -0.391 OA
ATOM     38  H   UNL     1       7.957  -0.014  -1.070  0.00  0.00    +0.210 HD
ENDBRANCH  15   3
BRANCH  12  20
ATOM     20  C   UNL     1       5.732  -2.119   1.109  0.00  0.00    +0.165 C 
BRANCH  20   4
ATOM      4  O   UNL     1       7.093  -2.459   0.965  0.00  0.00    -0.394 OA
ATOM     39  H   UNL     1       7.408  -2.765   1.832  0.00  0.00    +0.209 HD
ENDBRANCH  20   4
ENDBRANCH  12  20
BRANCH  13  23
ATOM     23  C   UNL     1       1.290   1.875   0.380  0.00  0.00    +0.106 C 
BRANCH  23  24
ATOM      5  O   UNL     1      -0.045   2.066  -1.629  0.00  0.00    -0.276 OA
ATOM      8  N   UNL     1      -0.232   3.683   0.030  0.00  0.00    -0.312 N 
ATOM     24  C   UNL     1       0.275   2.521  -0.534  0.00  0.00    +0.214 C 
ATOM     40  H   UNL     1       0.067   3.943   0.966  0.00  0.00    +0.149 HD
BRANCH   8  26
ATOM     26  C   UNL     1      -1.218   4.510  -0.622  0.00  0.00    +0.073 C 
ATOM     27  C   UNL     1      -1.112   5.964  -0.180  0.00  0.00    +0.022 C 
ATOM     28  C   UNL     1      -2.636   4.135  -0.210  0.00  0.00    +0.022 C 
ATOM     29  C   UNL     1      -1.865   6.018   1.146  0.00  0.00    +0.002 C 
ATOM     30  C   UNL     1      -2.873   4.869   1.108  0.00  0.00    +0.002 C 
ENDBRANCH   8  26
ENDBRANCH  23  24
ENDBRANCH  13  23
TORSDOF 7
