REMARK  Name = 51136911
REMARK  5 active torsions:
REMARK  status: ('A' for Active; 'I' for Inactive)
REMARK    1  A    between atoms: N_4  and  C_14
REMARK    2  A    between atoms: C_10  and  C_15
REMARK    3  A    between atoms: C_14  and  C_16
REMARK    4  A    between atoms: C_19  and  C_23
REMARK    5  A    between atoms: C_28  and  C_29
REMARK                            x       y       z     vdW  Elec       q    Type
REMARK                         _______ _______ _______ _____ _____    ______ ____
ROOT
ATOM      1  O   UNL     1      -2.401  -2.000   1.764  0.00  0.00    -0.336 OA
ATOM      5  N   UNL     1      -1.593  -1.180  -0.158  0.00  0.00    -0.190 NA
ATOM      6  N   UNL     1      -1.011  -1.923   1.926  0.00  0.00    -0.056 NA
ATOM     15  C   UNL     1      -2.658  -1.544   0.510  0.00  0.00    +0.245 A 
ATOM     19  C   UNL     1      -0.607  -1.431   0.752  0.00  0.00    +0.204 A 
ENDROOT
BRANCH  19  23
ATOM      7  N   UNL     1       3.082  -1.224   1.171  0.00  0.00    -0.254 NA
ATOM     23  C   UNL     1       0.774  -1.179   0.455  0.00  0.00    +0.041 A 
ATOM     25  C   UNL     1       1.159  -0.667  -0.780  0.00  0.00    +0.015 A 
ATOM     26  C   UNL     1       1.765  -1.438   1.387  0.00  0.00    +0.123 A 
ATOM     27  C   UNL     1       2.505  -0.434  -1.040  0.00  0.00    +0.029 A 
ATOM     28  C   UNL     1       3.419  -0.726  -0.040  0.00  0.00    +0.074 A 
BRANCH  28  29
ATOM      8  N   UNL     1       6.626   0.713  -1.279  0.00  0.00    -0.243 NA
ATOM      9  N   UNL     1       7.117  -1.111   0.217  0.00  0.00    -0.243 NA
ATOM     29  C   UNL     1       4.832  -0.510  -0.239  0.00  0.00    +0.037 A 
ATOM     30  C   UNL     1       5.313   0.483  -1.067  0.00  0.00    +0.124 A 
ATOM     31  C   UNL     1       5.790  -1.284   0.383  0.00  0.00    +0.124 A 
ATOM     32  C   UNL     1       7.460  -0.110  -0.615  0.00  0.00    +0.221 A 
ENDBRANCH  28  29
ENDBRANCH  19  23
BRANCH  15  10
ATOM      4  N   UNL     1      -4.393  -0.489  -0.929  0.00  0.00    -0.287 NA
ATOM     10  C   UNL     1      -4.112  -1.524   0.085  0.00  0.00    +0.146 C 
ATOM     11  C   UNL     1      -4.556  -2.845  -0.571  0.00  0.00    +0.030 C 
ATOM     12  C   UNL     1      -5.129  -2.444  -1.924  0.00  0.00    +0.017 C 
ATOM     13  C   UNL     1      -5.508  -0.989  -1.734  0.00  0.00    +0.085 C 
BRANCH   4  14
ATOM     14  C   UNL     1      -4.677   0.819  -0.351  0.00  0.00    +0.120 C 
BRANCH  14  16
ATOM      2  O   UNL     1      -0.249   2.827  -1.276  0.00  0.00    -0.453 OA
ATOM      3  O   UNL     1       0.056   3.502   1.017  0.00  0.00    -0.453 OA
ATOM     16  C   UNL     1      -3.418   1.539   0.052  0.00  0.00    -0.030 A 
ATOM     17  C   UNL     1      -2.439   1.813  -0.906  0.00  0.00    +0.054 A 
ATOM     18  C   UNL     1      -3.240   1.933   1.390  0.00  0.00    +0.009 A 
ATOM     20  C   UNL     1      -1.304   2.478  -0.490  0.00  0.00    +0.167 A 
ATOM     21  C   UNL     1      -2.081   2.605   1.785  0.00  0.00    +0.050 A 
ATOM     22  C   UNL     1      -1.129   2.863   0.820  0.00  0.00    +0.166 A 
ATOM     24  C   UNL     1       0.608   3.476  -0.315  0.00  0.00    +0.466 C 
ENDBRANCH  14  16
ENDBRANCH   4  14
ENDBRANCH  15  10
TORSDOF 5
