REMARK  Name = 40779622
REMARK  9 active torsions:
REMARK  status: ('A' for Active; 'I' for Inactive)
REMARK    1  A    between atoms: S_1  and  N_6
REMARK    2  A    between atoms: S_1  and  C_19
REMARK    3  A    between atoms: N_5  and  C_14
REMARK    4  A    between atoms: N_5  and  C_16
REMARK    5  A    between atoms: N_5  and  C_17
REMARK    6  A    between atoms: N_6  and  C_15
REMARK    7  A    between atoms: C_8  and  C_14
REMARK    8  A    between atoms: C_9  and  C_15
REMARK    9  A    between atoms: C_16  and  C_18
REMARK                            x       y       z     vdW  Elec       q    Type
REMARK                         _______ _______ _______ _____ _____    ______ ____
ROOT
ATOM      4  N   UNL     1       1.597  -1.825   1.393  0.00  0.00    -0.298 NA
ATOM      7  C   UNL     1       3.049  -1.679  -0.761  0.00  0.00    -0.003 C 
ATOM      8  C   UNL     1       3.272  -0.443   0.140  0.00  0.00    +0.020 C 
ATOM      9  C   UNL     1       0.745  -2.024   0.189  0.00  0.00    +0.072 C 
ATOM     10  C   UNL     1       1.553  -1.794  -1.107  0.00  0.00    +0.024 C 
ATOM     11  C   UNL     1       2.284  -0.513   1.326  0.00  0.00    +0.089 C 
ATOM     12  C   UNL     1       3.419  -2.917   0.078  0.00  0.00    +0.019 C 
ATOM     13  C   UNL     1       2.632  -2.888   1.400  0.00  0.00    +0.085 C 
ENDROOT
BRANCH   8  14
ATOM     14  C   UNL     1       3.156   0.880  -0.613  0.00  0.00    +0.089 C 
BRANCH  14   5
ATOM      5  N   UNL     1       3.452   1.992   0.307  0.00  0.00    -0.301 NA
ATOM     17  C   UNL     1       4.894   2.140   0.465  0.00  0.00    +0.105 C 
BRANCH   5  16
ATOM     16  C   UNL     1       2.853   3.226  -0.190  0.00  0.00    +0.110 C 
BRANCH  16  18
ATOM     18  C   UNL     1       1.383   3.277   0.088  0.00  0.00    -0.019 C 
ATOM     22  C   UNL     1       0.446   3.391  -0.861  0.00  0.00    +0.005 C 
ENDBRANCH  16  18
ENDBRANCH   5  16
ENDBRANCH  14   5
ENDBRANCH   8  14
BRANCH   9  15
ATOM     15  C   UNL     1      -0.525  -1.171   0.226  0.00  0.00    +0.124 C 
BRANCH  15   6
ATOM      6  N   UNL     1      -1.377  -1.522  -0.922  0.00  0.00    -0.188 NA
ATOM     26  H   UNL     1      -1.650  -2.510  -0.992  0.00  0.00    +0.148 HD
BRANCH   6   1
ATOM      1  S   UNL     1      -2.406  -0.354  -1.613  0.00  0.00    +0.058 S 
ATOM      2  O   UNL     1      -3.233  -0.983  -2.625  0.00  0.00    -0.153 OA
ATOM      3  O   UNL     1      -1.631   0.829  -1.937  0.00  0.00    -0.153 OA
BRANCH   1  19
ATOM     19  C   UNL     1      -3.443   0.067  -0.245  0.00  0.00    +0.105 A 
ATOM     20  C   UNL     1      -3.079   1.103   0.614  0.00  0.00    +0.028 A 
ATOM     21  C   UNL     1      -4.625  -0.640  -0.023  0.00  0.00    +0.028 A 
ATOM     23  C   UNL     1      -3.896   1.433   1.695  0.00  0.00    +0.002 A 
ATOM     24  C   UNL     1      -5.442  -0.311   1.059  0.00  0.00    +0.002 A 
ATOM     25  C   UNL     1      -5.077   0.726   1.918  0.00  0.00    +0.000 A 
ENDBRANCH   1  19
ENDBRANCH   6   1
ENDBRANCH  15   6
ENDBRANCH   9  15
TORSDOF 8
