REMARK  Name = 26744519
REMARK  5 active torsions:
REMARK  status: ('A' for Active; 'I' for Inactive)
REMARK    1  A    between atoms: O_2  and  C_9
REMARK    2  A    between atoms: N_4  and  C_12
REMARK    3  A    between atoms: C_7  and  C_11
REMARK    4  A    between atoms: C_13  and  C_14
REMARK    5  A    between atoms: C_17  and  C_20
REMARK                            x       y       z     vdW  Elec       q    Type
REMARK                         _______ _______ _______ _____ _____    ______ ____
ROOT
ATOM      3  O   UNL     1       1.021  -2.034   0.574  0.00  0.00    -0.336 OA
ATOM      5  N   UNL     1       0.545   0.083   0.019  0.00  0.00    -0.190 NA
ATOM      6  N   UNL     1      -0.377  -1.943   0.546  0.00  0.00    -0.056 NA
ATOM     11  C   UNL     1       1.485  -0.798   0.252  0.00  0.00    +0.245 A 
ATOM     13  C   UNL     1      -0.579  -0.665   0.211  0.00  0.00    +0.202 A 
ENDROOT
BRANCH  13  14
ATOM      1  F   UNL     1      -5.370  -1.131   0.323  0.00  0.00    -0.205 F 
ATOM     14  C   UNL     1      -1.891  -0.105   0.062  0.00  0.00    +0.025 A 
ATOM     15  C   UNL     1      -3.018  -0.902   0.268  0.00  0.00    +0.050 A 
ATOM     16  C   UNL     1      -2.041   1.237  -0.288  0.00  0.00    +0.012 A 
ATOM     17  C   UNL     1      -4.443   0.985  -0.227  0.00  0.00    -0.015 A 
ATOM     18  C   UNL     1      -4.293  -0.357   0.123  0.00  0.00    +0.127 A 
ATOM     19  C   UNL     1      -3.317   1.782  -0.432  0.00  0.00    +0.007 A 
ATOM     20  C   UNL     1      -5.806   1.571  -0.382  0.00  0.00    +0.047 C 
ENDBRANCH  13  14
BRANCH  11   7
ATOM      4  N   UNL     1       3.474  -0.154  -1.099  0.00  0.00    -0.292 NA
ATOM      7  C   UNL     1       2.989  -0.632   0.212  0.00  0.00    +0.148 C 
ATOM      8  C   UNL     1       3.501   0.410   1.225  0.00  0.00    +0.061 C 
ATOM      9  C   UNL     1       4.299   1.408   0.395  0.00  0.00    +0.130 C 
ATOM     10  C   UNL     1       4.690   0.613  -0.836  0.00  0.00    +0.116 C 
ATOM     12  C   UNL     1       3.699  -1.230  -2.055  0.00  0.00    +0.105 C 
BRANCH   9   2
ATOM      2  O   UNL     1       5.432   1.862   1.109  0.00  0.00    -0.390 OA
ATOM     21  H   UNL     1       5.112   2.293   1.920  0.00  0.00    +0.210 HD
ENDBRANCH   9   2
ENDBRANCH  11   7
TORSDOF 3
