REMARK  Name = 11867217
REMARK  5 active torsions:
REMARK  status: ('A' for Active; 'I' for Inactive)
REMARK    1  A    between atoms: S_1  and  N_9
REMARK    2  A    between atoms: S_1  and  C_25
REMARK    3  A    between atoms: N_9  and  C_20
REMARK    4  A    between atoms: C_19  and  C_22
REMARK    5  A    between atoms: C_25  and  C_29
REMARK                            x       y       z     vdW  Elec       q    Type
REMARK                         _______ _______ _______ _____ _____    ______ ____
ROOT
ATOM      3  O   UNL     1       0.595   3.129  -1.446  0.00  0.00    -0.266 OA
ATOM      4  O   UNL     1       3.270  -1.176  -2.522  0.00  0.00    -0.270 OA
ATOM      7  N   UNL     1       4.000  -0.388  -0.444  0.00  0.00    -0.297 N 
ATOM      8  N   UNL     1       2.104   2.110   0.028  0.00  0.00    -0.310 N 
ATOM     10  C   UNL     1       4.627   2.020  -0.398  0.00  0.00    +0.027 C 
ATOM     11  C   UNL     1       3.688   0.961   1.617  0.00  0.00    +0.054 C 
ATOM     12  C   UNL     1       4.738   1.954   1.122  0.00  0.00    +0.018 C 
ATOM     13  C   UNL     1       4.878   0.633  -1.016  0.00  0.00    +0.113 C 
ATOM     14  C   UNL     1       3.247   2.577  -0.768  0.00  0.00    +0.130 C 
ATOM     15  C   UNL     1       3.977  -0.433   1.028  0.00  0.00    +0.117 C 
ATOM     16  C   UNL     1       2.290   1.403   1.224  0.00  0.00    +0.027 A 
ATOM     17  C   UNL     1       1.237   1.083   1.999  0.00  0.00    +0.024 A 
ATOM     18  C   UNL     1       0.822   2.495  -0.416  0.00  0.00    +0.274 A 
ATOM     19  C   UNL     1       3.255  -1.209  -1.293  0.00  0.00    +0.247 C 
ATOM     20  C   UNL     1      -0.301   2.093   0.468  0.00  0.00    +0.112 A 
ATOM     21  C   UNL     1      -0.101   1.436   1.611  0.00  0.00    +0.031 A 
ENDROOT
BRANCH  19  22
ATOM      2  F   UNL     1      -0.182  -4.955   1.036  0.00  0.00    -0.205 F 
ATOM     22  C   UNL     1       2.353  -2.192  -0.682  0.00  0.00    +0.037 A 
ATOM     23  C   UNL     1       1.036  -1.841  -0.399  0.00  0.00    +0.016 A 
ATOM     24  C   UNL     1       2.819  -3.471  -0.388  0.00  0.00    +0.016 A 
ATOM     26  C   UNL     1       0.179  -2.775   0.182  0.00  0.00    +0.039 A 
ATOM     27  C   UNL     1       1.962  -4.405   0.193  0.00  0.00    +0.039 A 
ATOM     28  C   UNL     1       0.641  -4.058   0.478  0.00  0.00    +0.123 A 
ENDBRANCH  19  22
BRANCH  20   9
ATOM      9  N   UNL     1      -1.625   2.409   0.119  0.00  0.00    -0.215 N 
ATOM     35  H   UNL     1      -1.671   3.118  -0.626  0.00  0.00    +0.173 HD
BRANCH   9   1
ATOM      1  S   UNL     1      -2.652   1.074  -0.144  0.00  0.00    +0.047 S 
ATOM      5  O   UNL     1      -2.660   0.732  -1.553  0.00  0.00    -0.155 OA
ATOM      6  O   UNL     1      -2.402   0.069   0.871  0.00  0.00    -0.155 OA
BRANCH   1  25
ATOM     25  C   UNL     1      -4.218   1.827   0.223  0.00  0.00    +0.223 C 
BRANCH  25  29
ATOM     29  C   UNL     1      -5.279   0.784   0.044  0.00  0.00    -0.025 A 
ATOM     30  C   UNL     1      -5.650  -0.016   1.121  0.00  0.00    +0.005 A 
ATOM     31  C   UNL     1      -5.886   0.622  -1.198  0.00  0.00    +0.005 A 
ATOM     32  C   UNL     1      -6.638  -0.987   0.954  0.00  0.00    +0.000 A 
ATOM     33  C   UNL     1      -6.874  -0.349  -1.364  0.00  0.00    +0.000 A 
ATOM     34  C   UNL     1      -7.250  -1.153  -0.288  0.00  0.00    +0.000 A 
ENDBRANCH  25  29
ENDBRANCH   1  25
ENDBRANCH   9   1
ENDBRANCH  20   9
TORSDOF 5
