REMARK  Name = 51137545
REMARK  8 active torsions:
REMARK  status: ('A' for Active; 'I' for Inactive)
REMARK    1  A    between atoms: N_4  and  C_13
REMARK    2  A    between atoms: N_7  and  C_16
REMARK    3  A    between atoms: N_8  and  C_25
REMARK    4  A    between atoms: N_8  and  C_28
REMARK    5  A    between atoms: N_8  and  C_29
REMARK    6  A    between atoms: C_9  and  C_14
REMARK    7  A    between atoms: C_13  and  C_15
REMARK    8  A    between atoms: C_18  and  C_19
REMARK                            x       y       z     vdW  Elec       q    Type
REMARK                         _______ _______ _______ _____ _____    ______ ____
ROOT
ATOM      4  N   UNL     1      -2.495  -0.332   0.159  0.00  0.00    -0.297 NA
ATOM      9  C   UNL     1      -0.778  -1.856   0.639  0.00  0.00    +0.092 C 
ATOM     10  C   UNL     1      -1.137  -1.068   1.910  0.00  0.00    +0.029 C 
ATOM     11  C   UNL     1      -1.407  -1.052  -0.507  0.00  0.00    +0.097 C 
ATOM     12  C   UNL     1      -1.917   0.143   1.416  0.00  0.00    +0.085 C 
ENDROOT
BRANCH   9  14
ATOM      1  O   UNL     1       1.501  -1.010   0.346  0.00  0.00    -0.420 OA
ATOM      5  N   UNL     1       1.349  -3.242   0.346  0.00  0.00    -0.112 NA
ATOM      6  N   UNL     1       2.679  -2.904   0.174  0.00  0.00    -0.107 NA
ATOM     14  C   UNL     1       0.699  -2.106   0.442  0.00  0.00    +0.222 A 
ATOM     18  C   UNL     1       2.720  -1.592   0.180  0.00  0.00    +0.248 A 
BRANCH  18  19
ATOM     19  C   UNL     1       3.830  -0.695   0.042  0.00  0.00    +0.039 A 
ATOM     23  C   UNL     1       5.118  -1.201  -0.132  0.00  0.00    +0.015 A 
ATOM     24  C   UNL     1       3.621   0.684   0.081  0.00  0.00    +0.015 A 
ATOM     25  C   UNL     1       5.989   1.051  -0.227  0.00  0.00    +0.029 A 
ATOM     26  C   UNL     1       6.198  -0.328  -0.266  0.00  0.00    +0.024 A 
ATOM     27  C   UNL     1       4.701   1.556  -0.053  0.00  0.00    +0.024 A 
BRANCH  25   8
ATOM      8  N   UNL     1       7.081   1.933  -0.362  0.00  0.00    -0.336 N 
ATOM     28  C   UNL     1       8.424   1.417  -0.542  0.00  0.00    +0.129 C 
ATOM     29  C   UNL     1       6.874   3.367  -0.330  0.00  0.00    +0.129 C 
ENDBRANCH  25   8
ENDBRANCH  18  19
ENDBRANCH   9  14
BRANCH   4  13
ATOM     13  C   UNL     1      -3.021   0.754  -0.655  0.00  0.00    +0.121 C 
BRANCH  13  15
ATOM     15  C   UNL     1      -4.381   1.198  -0.186  0.00  0.00    -0.003 A 
ATOM     16  C   UNL     1      -5.524   0.448  -0.463  0.00  0.00    +0.131 A 
ATOM     17  C   UNL     1      -4.485   2.385   0.539  0.00  0.00    +0.007 A 
ATOM     20  C   UNL     1      -6.771   0.885  -0.015  0.00  0.00    +0.033 A 
ATOM     21  C   UNL     1      -5.731   2.822   0.987  0.00  0.00    +0.000 A 
ATOM     22  C   UNL     1      -6.874   2.073   0.710  0.00  0.00    +0.002 A 
BRANCH  16   7
ATOM      2  O   UNL     1      -5.548  -0.723  -2.450  0.00  0.00    -0.126 OA
ATOM      3  O   UNL     1      -5.268  -1.841  -0.582  0.00  0.00    -0.126 OA
ATOM      7  N   UNL     1      -5.443  -0.765  -1.201  0.00  0.00    +0.057 N 
ENDBRANCH  16   7
ENDBRANCH  13  15
ENDBRANCH   4  13
TORSDOF 6
