REMARK  Name = 7155441
REMARK  4 active torsions:
REMARK  status: ('A' for Active; 'I' for Inactive)
REMARK    1  A    between atoms: S_1  and  N_5
REMARK    2  A    between atoms: S_1  and  C_19
REMARK    3  A    between atoms: C_15  and  C_20
REMARK    4  A    between atoms: C_21  and  C_31
REMARK                            x       y       z     vdW  Elec       q    Type
REMARK                         _______ _______ _______ _____ _____    ______ ____
ROOT
ATOM      4  O   UNL     1      -2.475  -4.210   0.623  0.00  0.00    -0.268 OA
ATOM      5  N   UNL     1       0.975  -0.682   0.198  0.00  0.00    -0.176 NA
ATOM      6  N   UNL     1      -1.756  -2.175  -0.286  0.00  0.00    -0.311 N 
ATOM      8  C   UNL     1       0.317  -2.033  -1.789  0.00  0.00    +0.025 C 
ATOM      9  C   UNL     1      -0.938   0.004  -1.239  0.00  0.00    +0.053 C 
ATOM     10  C   UNL     1      -0.383  -0.827  -2.393  0.00  0.00    +0.017 C 
ATOM     11  C   UNL     1       1.469  -1.594  -0.872  0.00  0.00    +0.114 C 
ATOM     12  C   UNL     1       0.225   0.486  -0.349  0.00  0.00    +0.119 C 
ATOM     13  C   UNL     1      -0.720  -2.882  -1.052  0.00  0.00    +0.130 C 
ATOM     14  C   UNL     1      -1.959  -0.786  -0.415  0.00  0.00    +0.034 A 
ATOM     15  C   UNL     1      -3.020  -0.199   0.198  0.00  0.00    +0.002 A 
ATOM     16  C   UNL     1      -2.598  -2.992   0.488  0.00  0.00    +0.252 A 
ATOM     17  C   UNL     1      -3.908  -1.009   1.009  0.00  0.00    +0.015 A 
ATOM     18  C   UNL     1      -3.725  -2.319   1.173  0.00  0.00    +0.071 A 
ENDROOT
BRANCH  15  20
ATOM     20  C   UNL     1      -3.286   1.251   0.075  0.00  0.00    -0.016 A 
ATOM     23  C   UNL     1      -2.718   2.138   0.985  0.00  0.00    +0.008 A 
ATOM     24  C   UNL     1      -4.103   1.719  -0.951  0.00  0.00    +0.008 A 
ATOM     27  C   UNL     1      -2.969   3.505   0.869  0.00  0.00    +0.001 A 
ATOM     28  C   UNL     1      -4.353   3.087  -1.067  0.00  0.00    +0.001 A 
ATOM     30  C   UNL     1      -3.786   3.979  -0.157  0.00  0.00    +0.000 A 
ENDBRANCH  15  20
BRANCH   5   1
ATOM      1  S   UNL     1       2.091  -0.328   1.444  0.00  0.00    +0.062 S 
ATOM      2  O   UNL     1       2.853  -1.520   1.752  0.00  0.00    -0.153 OA
ATOM      3  O   UNL     1       1.413   0.412   2.488  0.00  0.00    -0.153 OA
BRANCH   1  19
ATOM     19  C   UNL     1       3.161   0.790   0.594  0.00  0.00    +0.123 A 
ATOM     21  C   UNL     1       4.275   0.338  -0.101  0.00  0.00    +0.078 A 
ATOM     22  C   UNL     1       2.852   2.143   0.644  0.00  0.00    +0.030 A 
ATOM     25  C   UNL     1       5.095   1.255  -0.758  0.00  0.00    +0.021 A 
ATOM     26  C   UNL     1       3.672   3.061  -0.013  0.00  0.00    +0.002 A 
ATOM     29  C   UNL     1       4.794   2.616  -0.714  0.00  0.00    +0.001 A 
BRANCH  21  31
ATOM      7  N   UNL     1       4.891  -2.176  -0.217  0.00  0.00    -0.191 NA
ATOM     31  C   UNL     1       4.615  -1.051  -0.165  0.00  0.00    +0.101 C 
ENDBRANCH  21  31
ENDBRANCH   1  19
ENDBRANCH   5   1
TORSDOF 4
