REMARK  Name = 56775117
REMARK  6 active torsions:
REMARK  status: ('A' for Active; 'I' for Inactive)
REMARK    1  A    between atoms: O_3  and  C_16
REMARK    2  A    between atoms: O_3  and  C_24
REMARK    3  A    between atoms: N_4  and  C_11
REMARK    4  A    between atoms: N_5  and  C_14
REMARK    5  A    between atoms: C_11  and  C_15
REMARK    6  A    between atoms: C_14  and  C_16
REMARK                            x       y       z     vdW  Elec       q    Type
REMARK                         _______ _______ _______ _____ _____    ______ ____
ROOT
ATOM      1  O   UNL     1       2.163   2.367   0.446  0.00  0.00    -0.364 OA
ATOM      2  O   UNL     1       5.185   1.009  -0.753  0.00  0.00    -0.273 OA
ATOM      4  N   UNL     1      -0.453   0.505  -0.295  0.00  0.00    -0.294 NA
ATOM      5  N   UNL     1       3.152  -0.064  -0.389  0.00  0.00    -0.291 N 
ATOM      7  C   UNL     1       1.773   0.013   0.084  0.00  0.00    +0.120 C 
ATOM      8  C   UNL     1       1.453   1.234   0.941  0.00  0.00    +0.154 C 
ATOM      9  C   UNL     1       0.749   0.135  -1.041  0.00  0.00    +0.110 C 
ATOM     10  C   UNL     1      -0.042   1.486   0.719  0.00  0.00    +0.118 C 
ATOM     12  C   UNL     1       4.045   0.999  -0.286  0.00  0.00    +0.242 C 
ATOM     13  C   UNL     1       3.554   2.170   0.537  0.00  0.00    +0.256 C 
ENDROOT
BRANCH   4  11
ATOM     11  C   UNL     1      -1.520   0.993  -1.154  0.00  0.00    +0.121 C 
BRANCH  11  15
ATOM      6  N   UNL     1      -4.729   1.486   0.578  0.00  0.00    -0.360 N 
ATOM     15  C   UNL     1      -2.864   0.911  -0.479  0.00  0.00    -0.008 A 
ATOM     17  C   UNL     1      -3.645  -0.262  -0.285  0.00  0.00    +0.004 A 
ATOM     18  C   UNL     1      -3.557   1.970   0.061  0.00  0.00    +0.088 A 
ATOM     19  C   UNL     1      -4.809   0.126   0.380  0.00  0.00    +0.047 A 
ATOM     20  C   UNL     1      -3.471  -1.622  -0.612  0.00  0.00    +0.010 A 
ATOM     21  C   UNL     1      -5.814  -0.781   0.737  0.00  0.00    +0.026 A 
ATOM     22  C   UNL     1      -4.468  -2.541  -0.262  0.00  0.00    +0.001 A 
ATOM     23  C   UNL     1      -5.620  -2.124   0.402  0.00  0.00    +0.002 A 
ATOM     25  H   UNL     1      -5.434   2.046   1.037  0.00  0.00    +0.165 HD
ENDBRANCH  11  15
ENDBRANCH   4  11
BRANCH   5  14
ATOM     14  C   UNL     1       3.548  -1.286  -1.077  0.00  0.00    +0.136 C 
BRANCH  14  16
ATOM     16  C   UNL     1       4.144  -2.299  -0.117  0.00  0.00    +0.178 C 
BRANCH  16   3
ATOM      3  O   UNL     1       5.313  -1.753   0.480  0.00  0.00    -0.381 OA
ATOM     24  C   UNL     1       5.912  -2.669   1.386  0.00  0.00    +0.194 C 
ENDBRANCH  16   3
ENDBRANCH  14  16
ENDBRANCH   5  14
TORSDOF 5
