REMARK  Name = 40781693
REMARK  8 active torsions:
REMARK  status: ('A' for Active; 'I' for Inactive)
REMARK    1  A    between atoms: O_5  and  C_26
REMARK    2  A    between atoms: N_8  and  C_10
REMARK    3  A    between atoms: C_15  and  C_17
REMARK    4  A    between atoms: C_15  and  C_20
REMARK    5  A    between atoms: C_15  and  C_22
REMARK    6  A    between atoms: C_15  and  C_23
REMARK    7  A    between atoms: C_17  and  C_18
REMARK    8  A    between atoms: C_20  and  C_26
REMARK                            x       y       z     vdW  Elec       q    Type
REMARK                         _______ _______ _______ _____ _____    ______ ____
ROOT
ATOM      1 CL   UNL     1       7.156   2.084  -0.403  0.00  0.00    -0.083 Cl
ATOM      2  O   UNL     1       0.618  -0.251  -2.575  0.00  0.00    -0.273 OA
ATOM      3  O   UNL     1       1.888  -0.406   2.590  0.00  0.00    -0.270 OA
ATOM      7  N   UNL     1       1.209  -1.239   0.557  0.00  0.00    -0.284 N 
ATOM      9  N   UNL     1       2.449   0.515  -1.467  0.00  0.00    -0.283 N 
ATOM     10  C   UNL     1      -0.779  -2.287  -0.185  0.00  0.00    +0.092 C 
ATOM     11  C   UNL     1       1.472  -1.648  -0.807  0.00  0.00    +0.164 C 
ATOM     12  C   UNL     1       0.369  -2.665  -1.124  0.00  0.00    +0.055 C 
ATOM     13  C   UNL     1      -0.047  -1.788   1.054  0.00  0.00    +0.131 C 
ATOM     14  C   UNL     1       1.435  -0.397  -1.664  0.00  0.00    +0.238 C 
ATOM     16  C   UNL     1       2.094  -0.586   1.389  0.00  0.00    +0.249 C 
ATOM     19  C   UNL     1       3.351  -0.054   0.803  0.00  0.00    +0.058 A 
ATOM     21  C   UNL     1       3.451   0.522  -0.474  0.00  0.00    +0.047 A 
ATOM     24  C   UNL     1       4.452   0.009   1.678  0.00  0.00    +0.016 A 
ATOM     25  C   UNL     1       4.631   1.207  -0.817  0.00  0.00    +0.044 A 
ATOM     27  C   UNL     1       5.630   0.652   1.302  0.00  0.00    +0.021 A 
ATOM     28  C   UNL     1       5.716   1.263   0.059  0.00  0.00    +0.043 A 
ATOM     30  H   UNL     1       2.540   1.223  -2.192  0.00  0.00    +0.155 HD
ENDROOT
BRANCH  10   8
ATOM      4  O   UNL     1      -3.563  -1.838   0.391  0.00  0.00    -0.276 OA
ATOM      8  N   UNL     1      -1.625  -1.263  -0.749  0.00  0.00    -0.311 N 
ATOM     18  C   UNL     1      -2.962  -1.124  -0.408  0.00  0.00    +0.214 C 
ATOM     29  H   UNL     1      -1.209  -0.591  -1.386  0.00  0.00    +0.149 HD
BRANCH  18  17
ATOM     17  C   UNL     1      -3.646   0.027  -1.127  0.00  0.00    +0.102 C 
BRANCH  17  15
ATOM     15  C   UNL     1      -3.651   1.368  -0.349  0.00  0.00    -0.017 C 
ATOM     22  C   UNL     1      -2.206   1.833  -0.070  0.00  0.00    +0.012 C 
ATOM     23  C   UNL     1      -4.314   2.435  -1.247  0.00  0.00    +0.012 C 
BRANCH  15  20
ATOM     20  C   UNL     1      -4.394   1.276   1.005  0.00  0.00    +0.127 C 
BRANCH  20  26
ATOM      6  O   UNL     1      -6.191  -0.342   0.887  0.00  0.00    -0.251 OA
ATOM     26  C   UNL     1      -5.836   0.829   0.909  0.00  0.00    +0.305 C 
BRANCH  26   5
ATOM      5  O   UNL     1      -6.706   1.867   0.843  0.00  0.00    -0.481 OA
ATOM     31  H   UNL     1      -7.636   1.562   0.776  0.00  0.00    +0.295 HD
ENDBRANCH  26   5
ENDBRANCH  20  26
ENDBRANCH  15  20
ENDBRANCH  17  15
ENDBRANCH  18  17
ENDBRANCH  10   8
TORSDOF 6
