REMARK  Name = 75367657
REMARK  7 active torsions:
REMARK  status: ('A' for Active; 'I' for Inactive)
REMARK    1  A    between atoms: O_5  and  C_9
REMARK    2  A    between atoms: O_5  and  C_15
REMARK    3  A    between atoms: O_6  and  C_22
REMARK    4  A    between atoms: O_6  and  C_27
REMARK    5  A    between atoms: N_7  and  C_12
REMARK    6  A    between atoms: C_12  and  C_14
REMARK    7  A    between atoms: C_25  and  C_26
REMARK                            x       y       z     vdW  Elec       q    Type
REMARK                         _______ _______ _______ _____ _____    ______ ____
ROOT
ATOM      4  O   UNL     1       2.876   3.298  -1.371  0.00  0.00    -0.375 OA
ATOM      7  N   UNL     1       3.304   0.748  -0.106  0.00  0.00    -0.292 NA
ATOM      8  C   UNL     1       2.328   1.316   0.823  0.00  0.00    +0.131 C 
ATOM      9  C   UNL     1       1.258   2.120   0.071  0.00  0.00    +0.213 C 
ATOM     10  C   UNL     1       4.416   1.644  -0.444  0.00  0.00    +0.113 C 
ATOM     11  C   UNL     1       1.732   3.437  -0.537  0.00  0.00    +0.205 C 
ATOM     13  C   UNL     1       4.072   3.121  -0.622  0.00  0.00    +0.175 C 
ENDROOT
BRANCH   9   5
ATOM      5  O   UNL     1       0.196   2.399   0.984  0.00  0.00    -0.485 OA
BRANCH   5  15
ATOM     15  C   UNL     1      -1.024   1.858   0.685  0.00  0.00    +0.121 A 
ATOM     18  C   UNL     1      -2.125   2.690   0.482  0.00  0.00    +0.046 A 
ATOM     19  C   UNL     1      -1.168   0.474   0.584  0.00  0.00    +0.046 A 
ATOM     23  C   UNL     1      -3.370   2.139   0.179  0.00  0.00    +0.016 A 
ATOM     24  C   UNL     1      -2.413  -0.077   0.281  0.00  0.00    +0.016 A 
ATOM     25  C   UNL     1      -3.514   0.755   0.078  0.00  0.00    +0.055 A 
BRANCH  25  26
ATOM      1  F   UNL     1      -5.319  -0.678   0.718  0.00  0.00    -0.166 F 
ATOM      2  F   UNL     1      -4.851  -0.572  -1.397  0.00  0.00    -0.166 F 
ATOM      3  F   UNL     1      -5.812   1.112  -0.413  0.00  0.00    -0.166 F 
ATOM     26  C   UNL     1      -4.844   0.165  -0.246  0.00  0.00    +0.417 C 
ENDBRANCH  25  26
ENDBRANCH   5  15
ENDBRANCH   9   5
BRANCH   7  12
ATOM     12  C   UNL     1       3.823  -0.532   0.379  0.00  0.00    +0.119 C 
BRANCH  12  14
ATOM     14  C   UNL     1       2.795  -1.627   0.281  0.00  0.00    -0.033 A 
ATOM     16  C   UNL     1       2.236  -1.951  -0.955  0.00  0.00    +0.008 A 
ATOM     17  C   UNL     1       2.399  -2.317   1.427  0.00  0.00    +0.008 A 
ATOM     20  C   UNL     1       1.283  -2.965  -1.046  0.00  0.00    +0.046 A 
ATOM     21  C   UNL     1       1.446  -3.331   1.337  0.00  0.00    +0.046 A 
ATOM     22  C   UNL     1       0.888  -3.655   0.100  0.00  0.00    +0.120 A 
BRANCH  22   6
ATOM      6  O   UNL     1      -0.043  -4.644   0.012  0.00  0.00    -0.495 OA
ATOM     27  C   UNL     1      -0.572  -4.924  -1.284  0.00  0.00    +0.277 C 
ENDBRANCH  22   6
ENDBRANCH  12  14
ENDBRANCH   7  12
TORSDOF 6
