REMARK  Name = 11886439
REMARK  4 active torsions:
REMARK  status: ('A' for Active; 'I' for Inactive)
REMARK    1  A    between atoms: N_4  and  C_14
REMARK    2  A    between atoms: N_6  and  C_17
REMARK    3  A    between atoms: C_14  and  C_19
REMARK    4  A    between atoms: C_24  and  C_26
REMARK                            x       y       z     vdW  Elec       q    Type
REMARK                         _______ _______ _______ _____ _____    ______ ____
ROOT
ATOM      2  O   UNL     1      -1.382   2.379  -1.426  0.00  0.00    -0.266 OA
ATOM      4  N   UNL     1       3.376   1.008  -0.644  0.00  0.00    -0.297 NA
ATOM      5  N   UNL     1       0.489   2.222  -0.035  0.00  0.00    -0.310 N 
ATOM      7  C   UNL     1       2.699   3.420  -0.533  0.00  0.00    +0.024 C 
ATOM      8  C   UNL     1       2.500   2.019   1.466  0.00  0.00    +0.050 C 
ATOM      9  C   UNL     1       2.869   3.418   0.981  0.00  0.00    +0.017 C 
ATOM     10  C   UNL     1       3.620   2.357  -1.169  0.00  0.00    +0.090 C 
ATOM     11  C   UNL     1       3.450   0.982   0.825  0.00  0.00    +0.094 C 
ATOM     12  C   UNL     1       1.218   3.191  -0.865  0.00  0.00    +0.130 C 
ATOM     13  C   UNL     1       1.056   1.696   1.131  0.00  0.00    +0.026 A 
ATOM     15  C   UNL     1       0.333   0.897   1.933  0.00  0.00    +0.024 A 
ATOM     16  C   UNL     1      -0.835   1.928  -0.418  0.00  0.00    +0.273 A 
ATOM     17  C   UNL     1      -1.599   1.016   0.491  0.00  0.00    +0.099 A 
ATOM     18  C   UNL     1      -1.021   0.551   1.603  0.00  0.00    +0.030 A 
ENDROOT
BRANCH  17   6
ATOM      3  O   UNL     1      -2.978  -1.388   1.175  0.00  0.00    -0.270 OA
ATOM      6  N   UNL     1      -2.880   0.697   0.148  0.00  0.00    -0.277 N 
ATOM     24  C   UNL     1      -3.496  -0.492   0.513  0.00  0.00    +0.248 C 
ATOM     32  H   UNL     1      -3.316   1.322  -0.521  0.00  0.00    +0.155 HD
BRANCH  24  26
ATOM     26  C   UNL     1      -4.905  -0.652   0.067  0.00  0.00    +0.037 A 
ATOM     27  C   UNL     1      -5.749  -1.458   0.801  0.00  0.00    +0.013 A 
ATOM     28  C   UNL     1      -5.323   0.012  -1.068  0.00  0.00    +0.013 A 
ATOM     29  C   UNL     1      -7.071  -1.608   0.383  0.00  0.00    +0.001 A 
ATOM     30  C   UNL     1      -6.645  -0.137  -1.486  0.00  0.00    +0.001 A 
ATOM     31  C   UNL     1      -7.519  -0.947  -0.761  0.00  0.00    +0.000 A 
ENDBRANCH  24  26
ENDBRANCH  17   6
BRANCH   4  14
ATOM     14  C   UNL     1       4.301   0.042  -1.231  0.00  0.00    +0.119 C 
BRANCH  14  19
ATOM      1  F   UNL     1       3.171  -5.210   0.419  0.00  0.00    -0.205 F 
ATOM     19  C   UNL     1       3.999  -1.365  -0.789  0.00  0.00    -0.033 A 
ATOM     20  C   UNL     1       4.603  -1.866   0.355  0.00  0.00    +0.008 A 
ATOM     21  C   UNL     1       3.119  -2.140  -1.532  0.00  0.00    +0.008 A 
ATOM     22  C   UNL     1       4.322  -3.170   0.764  0.00  0.00    +0.038 A 
ATOM     23  C   UNL     1       2.838  -3.443  -1.123  0.00  0.00    +0.038 A 
ATOM     25  C   UNL     1       3.440  -3.958   0.026  0.00  0.00    +0.123 A 
ENDBRANCH  14  19
ENDBRANCH   4  14
TORSDOF 4
