REMARK  Name = 38027418
REMARK  14 active torsions:
REMARK  status: ('A' for Active; 'I' for Inactive)
REMARK    1  A    between atoms: N_3  and  C_14
REMARK    2  A    between atoms: N_4  and  C_19
REMARK    3  A    between atoms: N_5  and  C_27
REMARK    4  A    between atoms: N_6  and  C_28
REMARK    5  A    between atoms: N_6  and  C_29
REMARK    6  A    between atoms: N_6  and  C_30
REMARK    7  A    between atoms: C_7  and  C_11
REMARK    8  A    between atoms: C_8  and  C_14
REMARK    9  A    between atoms: C_10  and  C_15
REMARK   10  A    between atoms: C_11  and  C_16
REMARK   11  A    between atoms: C_11  and  C_17
REMARK   12  A    between atoms: C_12  and  C_18
REMARK   13  A    between atoms: C_15  and  C_20
REMARK   14  A    between atoms: C_27  and  C_28
REMARK                            x       y       z     vdW  Elec       q    Type
REMARK                         _______ _______ _______ _____ _____    ______ ____
ROOT
ATOM      7  C   UNL     1       0.127  -2.231  -0.869  0.00  0.00    +0.000 C 
ATOM      8  C   UNL     1      -1.100  -3.141  -0.614  0.00  0.00    +0.032 C 
ATOM      9  C   UNL     1       1.277  -2.603   0.079  0.00  0.00    +0.012 C 
ATOM     10  C   UNL     1       0.875  -2.476   1.560  0.00  0.00    +0.023 C 
ATOM     12  C   UNL     1      -0.466  -3.124   1.837  0.00  0.00    -0.073 C 
ATOM     13  C   UNL     1      -1.330  -3.425   0.852  0.00  0.00    -0.022 C 
ATOM     18  C   UNL     1      -0.774  -3.458   3.270  0.00  0.00    +0.039 C 
ENDROOT
BRANCH   7  11
ATOM     11  C   UNL     1       0.605  -2.315  -2.322  0.00  0.00    -0.013 C 
ATOM     16  C   UNL     1       1.361  -1.048  -2.708  0.00  0.00    +0.007 C 
ATOM     17  C   UNL     1       1.479  -3.549  -2.525  0.00  0.00    +0.007 C 
ENDBRANCH   7  11
BRANCH   8  14
ATOM     14  C   UNL     1      -2.372  -2.539  -1.223  0.00  0.00    +0.113 C 
BRANCH  14   3
ATOM      2  O   UNL     1      -2.598   0.064  -2.423  0.00  0.00    -0.253 OA
ATOM      3  N   UNL     1      -2.722  -1.320  -0.563  0.00  0.00    -0.299 N 
ATOM      4  N   UNL     1      -3.170   0.938  -0.350  0.00  0.00    -0.297 N 
ATOM     26  C   UNL     1      -2.812  -0.087  -1.221  0.00  0.00    +0.300 C 
ATOM     31  H   UNL     1      -2.986  -1.355   0.417  0.00  0.00    +0.150 HD
ATOM     32  H   UNL     1      -3.247   0.715   0.638  0.00  0.00    +0.151 HD
BRANCH   4  19
ATOM     19  C   UNL     1      -3.333   2.312  -0.769  0.00  0.00    +0.074 C 
ATOM     21  C   UNL     1      -4.414   3.016   0.059  0.00  0.00    +0.022 C 
ATOM     22  C   UNL     1      -2.003   3.070  -0.703  0.00  0.00    +0.022 C 
ATOM     23  C   UNL     1      -3.965   3.293   1.493  0.00  0.00    +0.002 C 
ATOM     24  C   UNL     1      -1.557   3.346   0.733  0.00  0.00    +0.002 C 
ATOM     25  C   UNL     1      -2.645   4.057   1.532  0.00  0.00    +0.000 C 
ENDBRANCH   4  19
ENDBRANCH  14   3
ENDBRANCH   8  14
BRANCH  10  15
ATOM     15  C   UNL     1       0.881  -1.011   2.011  0.00  0.00    +0.103 C 
BRANCH  15  20
ATOM      1  O   UNL     1       3.282  -0.922   1.724  0.00  0.00    -0.276 OA
ATOM      5  N   UNL     1       2.027   1.018   1.478  0.00  0.00    -0.314 N 
ATOM     20  C   UNL     1       2.204  -0.335   1.727  0.00  0.00    +0.214 C 
ATOM     33  H   UNL     1       1.093   1.415   1.503  0.00  0.00    +0.149 HD
BRANCH   5  27
ATOM     27  C   UNL     1       3.120   1.915   1.178  0.00  0.00    +0.119 C 
BRANCH  27  28
ATOM     28  C   UNL     1       3.383   1.982  -0.319  0.00  0.00    +0.102 C 
BRANCH  28   6
ATOM      6  N   UNL     1       4.469   2.912  -0.601  0.00  0.00    -0.307 NA
ATOM     29  C   UNL     1       4.404   3.376  -1.988  0.00  0.00    +0.104 C 
ATOM     30  C   UNL     1       5.766   2.287  -0.336  0.00  0.00    +0.104 C 
ENDBRANCH  28   6
ENDBRANCH  27  28
ENDBRANCH   5  27
ENDBRANCH  15  20
ENDBRANCH  10  15
TORSDOF 9
