REMARK  Name = 75536746
REMARK  5 active torsions:
REMARK  status: ('A' for Active; 'I' for Inactive)
REMARK    1  A    between atoms: O_2  and  C_10
REMARK    2  A    between atoms: N_6  and  C_9
REMARK    3  A    between atoms: N_6  and  C_12
REMARK    4  A    between atoms: N_7  and  C_16
REMARK    5  A    between atoms: C_11  and  C_16
REMARK                            x       y       z     vdW  Elec       q    Type
REMARK                         _______ _______ _______ _____ _____    ______ ____
ROOT
ATOM      1  O   UNL     1       0.139   0.946   0.498  0.00  0.00    -0.371 OA
ATOM      9  C   UNL     1       2.213  -0.191   0.272  0.00  0.00    +0.111 C 
ATOM     10  C   UNL     1       1.185  -1.146   0.853  0.00  0.00    +0.164 C 
ATOM     11  C   UNL     1      -0.113  -0.468   0.436  0.00  0.00    +0.165 C 
ATOM     13  C   UNL     1       1.562   1.154   0.547  0.00  0.00    +0.181 C 
ENDROOT
BRANCH  10   2
ATOM      2  O   UNL     1       1.293  -2.452   0.321  0.00  0.00    -0.388 OA
ATOM     25  H   UNL     1       1.219  -2.396  -0.646  0.00  0.00    +0.210 HD
ENDBRANCH  10   2
BRANCH   9   6
ATOM      6  N   UNL     1       3.530  -0.316   0.874  0.00  0.00    -0.306 NA
ATOM     24  H   UNL     1       3.776  -1.300   0.978  0.00  0.00    +0.123 HD
BRANCH   6  12
ATOM      3  O   UNL     1       7.202   0.398  -1.033  0.00  0.00    -0.380 OA
ATOM     12  C   UNL     1       4.542   0.363   0.068  0.00  0.00    +0.058 C 
ATOM     14  C   UNL     1       5.779   0.674   0.917  0.00  0.00    +0.047 C 
ATOM     15  C   UNL     1       4.939  -0.482  -1.146  0.00  0.00    +0.047 C 
ATOM     17  C   UNL     1       6.881   1.271   0.050  0.00  0.00    +0.161 C 
ATOM     18  C   UNL     1       6.088   0.179  -1.899  0.00  0.00    +0.161 C 
ENDBRANCH   6  12
ENDBRANCH   9   6
BRANCH  11  16
ATOM     16  C   UNL     1      -1.288  -0.820   1.332  0.00  0.00    +0.140 C 
BRANCH  16   7
ATOM      4  O   UNL     1      -7.077   1.186  -0.580  0.00  0.00    -0.377 OA
ATOM      5  O   UNL     1      -3.160  -1.837  -0.506  0.00  0.00    -0.253 OA
ATOM      7  N   UNL     1      -2.497  -0.153   0.904  0.00  0.00    -0.297 N 
ATOM      8  N   UNL     1      -4.502   0.047  -0.333  0.00  0.00    -0.281 N 
ATOM     19  C   UNL     1      -3.373  -0.725  -0.011  0.00  0.00    +0.302 C 
ATOM     20  C   UNL     1      -5.475  -0.476  -1.295  0.00  0.00    +0.137 C 
ATOM     21  C   UNL     1      -4.753   1.433   0.090  0.00  0.00    +0.137 C 
ATOM     22  C   UNL     1      -6.898  -0.210  -0.830  0.00  0.00    +0.179 C 
ATOM     23  C   UNL     1      -6.217   1.626   0.471  0.00  0.00    +0.179 C 
ATOM     26  H   UNL     1      -2.660   0.763   1.296  0.00  0.00    +0.150 HD
ENDBRANCH  16   7
ENDBRANCH  11  16
TORSDOF 5
