REMARK  Name = 11885331
REMARK  6 active torsions:
REMARK  status: ('A' for Active; 'I' for Inactive)
REMARK    1  A    between atoms: S_1  and  C_29
REMARK    2  A    between atoms: S_1  and  C_30
REMARK    3  A    between atoms: O_3  and  C_20
REMARK    4  A    between atoms: N_4  and  C_13
REMARK    5  A    between atoms: C_13  and  C_18
REMARK    6  A    between atoms: C_16  and  C_19
REMARK                            x       y       z     vdW  Elec       q    Type
REMARK                         _______ _______ _______ _____ _____    ______ ____
ROOT
ATOM      2  O   UNL     1      -1.916   1.743  -1.429  0.00  0.00    -0.267 OA
ATOM      4  N   UNL     1       2.974   0.872  -0.735  0.00  0.00    -0.297 NA
ATOM      5  N   UNL     1       0.019   1.913  -0.138  0.00  0.00    -0.311 N 
ATOM      6  C   UNL     1       2.089   3.211  -0.911  0.00  0.00    +0.024 C 
ATOM      7  C   UNL     1       2.102   2.088   1.265  0.00  0.00    +0.050 C 
ATOM      8  C   UNL     1       2.324   3.433   0.577  0.00  0.00    +0.017 C 
ATOM      9  C   UNL     1       3.073   2.151  -1.449  0.00  0.00    +0.090 C 
ATOM     10  C   UNL     1       3.112   1.055   0.717  0.00  0.00    +0.094 C 
ATOM     11  C   UNL     1       0.622   2.818  -1.127  0.00  0.00    +0.130 C 
ATOM     12  C   UNL     1       0.679   1.603   1.053  0.00  0.00    +0.026 A 
ATOM     14  C   UNL     1       0.065   0.867   1.992  0.00  0.00    +0.022 A 
ATOM     15  C   UNL     1      -1.289   1.463  -0.406  0.00  0.00    +0.259 A 
ATOM     16  C   UNL     1      -1.939   0.611   0.651  0.00  0.00    +0.047 A 
ATOM     17  C   UNL     1      -1.261   0.360   1.782  0.00  0.00    +0.015 A 
ENDROOT
BRANCH  16  19
ATOM     19  C   UNL     1      -3.288   0.050   0.457  0.00  0.00    -0.013 A 
ATOM     22  C   UNL     1      -4.409   0.768   0.872  0.00  0.00    +0.010 A 
ATOM     23  C   UNL     1      -3.444  -1.201  -0.142  0.00  0.00    +0.010 A 
ATOM     27  C   UNL     1      -5.686   0.237   0.688  0.00  0.00    +0.015 A 
ATOM     28  C   UNL     1      -4.721  -1.732  -0.326  0.00  0.00    +0.015 A 
ATOM     29  C   UNL     1      -5.842  -1.013   0.089  0.00  0.00    +0.008 A 
BRANCH  29   1
ATOM      1  S   UNL     1      -7.472  -1.693  -0.143  0.00  0.00    -0.129 S 
ATOM     30  C   UNL     1      -7.538  -1.885  -1.947  0.00  0.00    +0.090 C 
ENDBRANCH  29   1
ENDBRANCH  16  19
BRANCH   4  13
ATOM     13  C   UNL     1       3.956  -0.087  -1.237  0.00  0.00    +0.123 C 
BRANCH  13  18
ATOM     18  C   UNL     1       3.783  -1.431  -0.584  0.00  0.00    +0.008 A 
ATOM     20  C   UNL     1       4.889  -2.132  -0.120  0.00  0.00    +0.121 A 
ATOM     21  C   UNL     1       2.503  -1.954  -0.455  0.00  0.00    +0.008 A 
ATOM     24  C   UNL     1       4.712  -3.377   0.483  0.00  0.00    +0.046 A 
ATOM     25  C   UNL     1       2.325  -3.200   0.149  0.00  0.00    +0.001 A 
ATOM     26  C   UNL     1       3.430  -3.911   0.618  0.00  0.00    +0.004 A 
BRANCH  20   3
ATOM      3  O   UNL     1       6.148  -1.625  -0.243  0.00  0.00    -0.506 OA
ATOM     31  H   UNL     1       6.782  -2.256   0.138  0.00  0.00    +0.292 HD
ENDBRANCH  20   3
ENDBRANCH  13  18
ENDBRANCH   4  13
TORSDOF 5
