REMARK  Name = 45360871
REMARK  7 active torsions:
REMARK  status: ('A' for Active; 'I' for Inactive)
REMARK    1  A    between atoms: N_3  and  C_16
REMARK    2  A    between atoms: N_4  and  C_15
REMARK    3  A    between atoms: C_11  and  C_14
REMARK    4  A    between atoms: C_14  and  C_17
REMARK    5  A    between atoms: C_15  and  C_18
REMARK    6  A    between atoms: C_17  and  C_19
REMARK    7  A    between atoms: C_28  and  C_29
REMARK                            x       y       z     vdW  Elec       q    Type
REMARK                         _______ _______ _______ _____ _____    ______ ____
ROOT
ATOM      1  O   UNL     1      -0.540  -0.749  -1.221  0.00  0.00    -0.274 OA
ATOM      3  N   UNL     1       1.225   2.058   0.778  0.00  0.00    -0.296 NA
ATOM      4  N   UNL     1      -2.191   0.962   0.059  0.00  0.00    -0.286 NA
ATOM      5  N   UNL     1       0.976   0.853  -1.831  0.00  0.00    -0.312 N 
ATOM      7  C   UNL     1      -0.230   2.276   0.625  0.00  0.00    +0.084 C 
ATOM      8  C   UNL     1      -0.972   1.545  -0.532  0.00  0.00    +0.161 C 
ATOM      9  C   UNL     1      -1.058   1.852   1.854  0.00  0.00    +0.036 C 
ATOM     10  C   UNL     1      -2.456   1.686   1.297  0.00  0.00    +0.087 C 
ATOM     11  C   UNL     1       2.044   2.542  -0.369  0.00  0.00    +0.074 C 
ATOM     12  C   UNL     1      -0.179   0.427  -1.204  0.00  0.00    +0.232 C 
ATOM     13  C   UNL     1       1.470   2.213  -1.761  0.00  0.00    +0.123 C 
ATOM     16  C   UNL     1       1.714   2.645   2.037  0.00  0.00    +0.105 C 
ATOM     30  H   UNL     1       1.508   0.171  -2.364  0.00  0.00    +0.149 HD
ENDROOT
BRANCH  11  14
ATOM     14  C   UNL     1       3.468   1.951  -0.303  0.00  0.00    +0.029 C 
BRANCH  14  17
ATOM     17  C   UNL     1       3.450   0.451  -0.083  0.00  0.00    +0.097 C 
BRANCH  17  19
ATOM      2  O   UNL     1       5.822   0.627  -0.194  0.00  0.00    -0.276 OA
ATOM      6  N   UNL     1       4.935  -1.478   0.149  0.00  0.00    -0.301 N 
ATOM     19  C   UNL     1       4.848  -0.112  -0.048  0.00  0.00    +0.216 C 
ATOM     20  C   UNL     1       3.824  -2.406   0.332  0.00  0.00    +0.108 C 
ATOM     21  C   UNL     1       6.212  -2.176   0.202  0.00  0.00    +0.108 C 
ATOM     22  C   UNL     1       4.459  -3.785   0.224  0.00  0.00    +0.020 C 
ATOM     23  C   UNL     1       5.870  -3.554   0.748  0.00  0.00    +0.020 C 
ENDBRANCH  17  19
ENDBRANCH  14  17
ENDBRANCH  11  14
BRANCH   4  15
ATOM     15  C   UNL     1      -3.336   0.982  -0.843  0.00  0.00    +0.120 C 
BRANCH  15  18
ATOM     18  C   UNL     1      -4.374  -0.037  -0.453  0.00  0.00    -0.033 A 
ATOM     24  C   UNL     1      -4.168  -1.387  -0.736  0.00  0.00    +0.005 A 
ATOM     25  C   UNL     1      -5.544   0.370   0.189  0.00  0.00    +0.005 A 
ATOM     26  C   UNL     1      -5.131  -2.330  -0.377  0.00  0.00    +0.003 A 
ATOM     27  C   UNL     1      -6.507  -0.573   0.548  0.00  0.00    +0.003 A 
ATOM     28  C   UNL     1      -6.300  -1.923   0.265  0.00  0.00    -0.050 A 
ATOM     29  C   UNL     1      -7.330  -2.932   0.648  0.00  0.00    +0.044 C 
ENDBRANCH  15  18
ENDBRANCH   4  15
TORSDOF 5
