REMARK  Name = 75536302
REMARK  9 active torsions:
REMARK  status: ('A' for Active; 'I' for Inactive)
REMARK    1  A    between atoms: O_2  and  C_10
REMARK    2  A    between atoms: O_5  and  C_27
REMARK    3  A    between atoms: O_5  and  C_31
REMARK    4  A    between atoms: N_6  and  C_14
REMARK    5  A    between atoms: C_8  and  C_14
REMARK    6  A    between atoms: C_9  and  C_13
REMARK    7  A    between atoms: C_13  and  C_15
REMARK    8  A    between atoms: C_17  and  C_19
REMARK    9  A    between atoms: C_18  and  C_20
REMARK                            x       y       z     vdW  Elec       q    Type
REMARK                         _______ _______ _______ _____ _____    ______ ____
ROOT
ATOM      1  O   UNL     1       3.332  -0.137   0.705  0.00  0.00    -0.369 OA
ATOM      8  C   UNL     1       3.905   1.170   0.565  0.00  0.00    +0.164 C 
ATOM      9  C   UNL     1       3.500  -0.999  -0.423  0.00  0.00    +0.125 C 
ATOM     10  C   UNL     1       5.397   1.091   0.220  0.00  0.00    +0.145 C 
ATOM     11  C   UNL     1       4.983  -1.200  -0.730  0.00  0.00    +0.034 C 
ATOM     12  C   UNL     1       5.676   0.142  -0.943  0.00  0.00    +0.036 C 
ENDROOT
BRANCH  10   2
ATOM      2  O   UNL     1       6.109   0.603   1.360  0.00  0.00    -0.389 OA
ATOM     32  H   UNL     1       7.056   0.605   1.139  0.00  0.00    +0.210 HD
ENDBRANCH  10   2
BRANCH   9  13
ATOM     13  C   UNL     1       2.830  -2.326  -0.089  0.00  0.00    +0.090 C 
BRANCH  13  15
ATOM      3  O   UNL     1      -0.388  -1.809   1.450  0.00  0.00    -0.354 OA
ATOM      7  N   UNL     1       0.996  -1.924   1.502  0.00  0.00    -0.083 NA
ATOM     15  C   UNL     1       1.372  -2.147   0.240  0.00  0.00    +0.087 A 
ATOM     16  C   UNL     1       0.280  -2.184  -0.644  0.00  0.00    +0.076 A 
ATOM     18  C   UNL     1      -0.802  -1.966   0.167  0.00  0.00    +0.167 A 
BRANCH  18  20
ATOM     20  C   UNL     1      -2.217  -1.870  -0.045  0.00  0.00    +0.020 A 
ATOM     23  C   UNL     1      -2.741  -2.015  -1.330  0.00  0.00    +0.011 A 
ATOM     24  C   UNL     1      -3.070  -1.633   1.033  0.00  0.00    +0.011 A 
ATOM     28  C   UNL     1      -4.117  -1.922  -1.537  0.00  0.00    +0.001 A 
ATOM     29  C   UNL     1      -4.447  -1.540   0.826  0.00  0.00    +0.001 A 
ATOM     30  C   UNL     1      -4.970  -1.684  -0.459  0.00  0.00    +0.000 A 
ENDBRANCH  18  20
ENDBRANCH  13  15
ENDBRANCH   9  13
BRANCH   8  14
ATOM     14  C   UNL     1       3.108   2.017  -0.426  0.00  0.00    +0.138 C 
BRANCH  14   6
ATOM      4  O   UNL     1       0.896   1.119  -2.020  0.00  0.00    -0.270 OA
ATOM      6  N   UNL     1       1.723   2.059  -0.067  0.00  0.00    -0.309 N 
ATOM     17  C   UNL     1       0.710   1.599  -0.905  0.00  0.00    +0.244 C 
ATOM     33  H   UNL     1       1.492   2.523   0.805  0.00  0.00    +0.149 HD
BRANCH  17  19
ATOM     19  C   UNL     1      -0.679   1.737  -0.397  0.00  0.00    +0.037 A 
ATOM     21  C   UNL     1      -1.742   1.853  -1.294  0.00  0.00    +0.016 A 
ATOM     22  C   UNL     1      -0.922   1.750   0.977  0.00  0.00    +0.016 A 
ATOM     25  C   UNL     1      -3.046   1.982  -0.817  0.00  0.00    +0.046 A 
ATOM     26  C   UNL     1      -2.226   1.879   1.453  0.00  0.00    +0.046 A 
ATOM     27  C   UNL     1      -3.288   1.996   0.557  0.00  0.00    +0.120 A 
BRANCH  27   5
ATOM      5  O   UNL     1      -4.561   2.122   1.022  0.00  0.00    -0.495 OA
ATOM     31  C   UNL     1      -5.599   2.237   0.050  0.00  0.00    +0.277 C 
ENDBRANCH  27   5
ENDBRANCH  17  19
ENDBRANCH  14   6
ENDBRANCH   8  14
TORSDOF 8
