REMARK  Name = 40779459
REMARK  6 active torsions:
REMARK  status: ('A' for Active; 'I' for Inactive)
REMARK    1  A    between atoms: N_5  and  C_19
REMARK    2  A    between atoms: N_6  and  C_16
REMARK    3  A    between atoms: C_9  and  C_15
REMARK    4  A    between atoms: C_10  and  C_16
REMARK    5  A    between atoms: C_18  and  C_21
REMARK    6  A    between atoms: C_20  and  C_22
REMARK                            x       y       z     vdW  Elec       q    Type
REMARK                         _______ _______ _______ _____ _____    ______ ____
ROOT
ATOM      4  N   UNL     1       1.514   4.144   1.313  0.00  0.00    -0.297 NA
ATOM      8  C   UNL     1       0.732   3.636  -1.119  0.00  0.00    +0.002 C 
ATOM      9  C   UNL     1      -0.492   3.779  -0.173  0.00  0.00    +0.055 C 
ATOM     10  C   UNL     1       2.257   2.974   0.774  0.00  0.00    +0.074 C 
ATOM     11  C   UNL     1       1.666   2.531  -0.581  0.00  0.00    +0.024 C 
ATOM     12  C   UNL     1       1.512   4.966  -1.041  0.00  0.00    +0.019 C 
ATOM     13  C   UNL     1       0.054   3.877   1.280  0.00  0.00    +0.094 C 
ATOM     14  C   UNL     1       1.792   5.304   0.434  0.00  0.00    +0.085 C 
ENDROOT
BRANCH   9  15
ATOM      5  N   UNL     1      -2.682   2.934  -1.138  0.00  0.00    -0.270 N 
ATOM      7  N   UNL     1      -3.569   1.925  -1.101  0.00  0.00    -0.171 NA
ATOM     15  C   UNL     1      -1.620   2.765  -0.299  0.00  0.00    +0.044 A 
ATOM     17  C   UNL     1      -1.827   1.562   0.332  0.00  0.00    +0.053 A 
ATOM     18  C   UNL     1      -3.042   1.090  -0.201  0.00  0.00    +0.093 A 
ATOM     19  C   UNL     1      -2.922   4.053  -2.020  0.00  0.00    +0.172 C 
BRANCH  18  21
ATOM     21  C   UNL     1      -3.708  -0.141   0.133  0.00  0.00    +0.003 A 
ATOM     23  C   UNL     1      -4.492  -0.791  -0.820  0.00  0.00    +0.018 A 
ATOM     24  C   UNL     1      -3.569  -0.683   1.408  0.00  0.00    +0.011 A 
ATOM     25  C   UNL     1      -5.148  -1.994  -0.510  0.00  0.00    -0.017 A 
ATOM     28  C   UNL     1      -4.214  -1.876   1.734  0.00  0.00    +0.009 A 
ATOM     29  C   UNL     1      -5.007  -2.544   0.786  0.00  0.00    -0.018 A 
ATOM     32  C   UNL     1      -5.941  -2.661  -1.457  0.00  0.00    +0.008 A 
ATOM     34  C   UNL     1      -5.663  -3.746   1.097  0.00  0.00    +0.008 A 
ATOM     35  C   UNL     1      -6.586  -3.855  -1.131  0.00  0.00    +0.001 A 
ATOM     36  C   UNL     1      -6.447  -4.396   0.144  0.00  0.00    +0.001 A 
ENDBRANCH  18  21
ENDBRANCH   9  15
BRANCH  10  16
ATOM     16  C   UNL     1       2.325   1.817   1.772  0.00  0.00    +0.123 C 
BRANCH  16   6
ATOM      1  O   UNL     1       1.509  -0.891   1.275  0.00  0.00    -0.270 OA
ATOM      6  N   UNL     1       3.143   0.757   1.269  0.00  0.00    -0.310 N 
ATOM     20  C   UNL     1       2.664  -0.535   1.056  0.00  0.00    +0.244 C 
ATOM     38  H   UNL     1       4.130   0.961   1.149  0.00  0.00    +0.149 HD
BRANCH  20  22
ATOM      2  O   UNL     1       6.751  -1.832  -1.378  0.00  0.00    -0.453 OA
ATOM      3  O   UNL     1       6.437  -4.171  -0.889  0.00  0.00    -0.453 OA
ATOM     22  C   UNL     1       3.647  -1.529   0.555  0.00  0.00    +0.040 A 
ATOM     26  C   UNL     1       4.745  -1.100  -0.195  0.00  0.00    +0.062 A 
ATOM     27  C   UNL     1       3.464  -2.894   0.840  0.00  0.00    +0.017 A 
ATOM     30  C   UNL     1       5.632  -2.060  -0.638  0.00  0.00    +0.167 A 
ATOM     31  C   UNL     1       4.377  -3.845   0.379  0.00  0.00    +0.050 A 
ATOM     33  C   UNL     1       5.452  -3.396  -0.359  0.00  0.00    +0.166 A 
ATOM     37  C   UNL     1       7.257  -3.174  -1.533  0.00  0.00    +0.466 C 
ENDBRANCH  20  22
ENDBRANCH  16   6
ENDBRANCH  10  16
TORSDOF 5
