REMARK  Name = 45783549
REMARK  12 active torsions:
REMARK  status: ('A' for Active; 'I' for Inactive)
REMARK    1  A    between atoms: O_2  and  C_28
REMARK    2  A    between atoms: O_2  and  C_29
REMARK    3  A    between atoms: O_3  and  C_30
REMARK    4  A    between atoms: O_3  and  C_31
REMARK    5  A    between atoms: N_4  and  C_13
REMARK    6  A    between atoms: N_7  and  C_21
REMARK    7  A    between atoms: N_7  and  C_25
REMARK    8  A    between atoms: N_7  and  C_26
REMARK    9  A    between atoms: C_9  and  C_14
REMARK   10  A    between atoms: C_13  and  C_15
REMARK   11  A    between atoms: C_18  and  C_22
REMARK   12  A    between atoms: C_29  and  C_30
REMARK                            x       y       z     vdW  Elec       q    Type
REMARK                         _______ _______ _______ _____ _____    ______ ____
ROOT
ATOM      1  O   UNL     1      -2.590  -1.470   2.023  0.00  0.00    -0.336 OA
ATOM      5  N   UNL     1      -1.579  -1.224   0.040  0.00  0.00    -0.190 NA
ATOM      6  N   UNL     1      -1.214  -1.502   2.281  0.00  0.00    -0.056 NA
ATOM     14  C   UNL     1      -2.718  -1.304   0.681  0.00  0.00    +0.245 A 
ATOM     18  C   UNL     1      -0.685  -1.351   1.063  0.00  0.00    +0.204 A 
ENDROOT
BRANCH  18  22
ATOM      8  N   UNL     1       2.568  -1.136  -0.726  0.00  0.00    -0.221 NA
ATOM     22  C   UNL     1       0.730  -1.324   0.834  0.00  0.00    +0.041 A 
ATOM     23  C   UNL     1       1.629  -1.455   1.888  0.00  0.00    +0.018 A 
ATOM     24  C   UNL     1       1.246  -1.169  -0.442  0.00  0.00    +0.126 A 
ATOM     27  C   UNL     1       2.996  -1.426   1.636  0.00  0.00    +0.068 A 
ATOM     28  C   UNL     1       3.410  -1.266   0.324  0.00  0.00    +0.215 A 
BRANCH  28   2
ATOM      2  O   UNL     1       4.752  -1.234   0.050  0.00  0.00    -0.474 OA
BRANCH   2  29
ATOM     29  C   UNL     1       5.123  -1.068  -1.314  0.00  0.00    +0.258 C 
BRANCH  29  30
ATOM     30  C   UNL     1       6.636  -1.034  -1.414  0.00  0.00    +0.200 C 
BRANCH  30   3
ATOM      3  O   UNL     1       7.127   0.067  -0.659  0.00  0.00    -0.380 OA
ATOM     31  C   UNL     1       8.546   0.136  -0.699  0.00  0.00    +0.194 C 
ENDBRANCH  30   3
ENDBRANCH  29  30
ENDBRANCH   2  29
ENDBRANCH  28   2
ENDBRANCH  18  22
BRANCH  14   9
ATOM      4  N   UNL     1      -4.225  -0.450  -1.106  0.00  0.00    -0.287 NA
ATOM      9  C   UNL     1      -4.131  -1.236   0.141  0.00  0.00    +0.146 C 
ATOM     10  C   UNL     1      -4.694  -2.621  -0.227  0.00  0.00    +0.030 C 
ATOM     11  C   UNL     1      -5.134  -2.500  -1.679  0.00  0.00    +0.017 C 
ATOM     12  C   UNL     1      -5.344  -1.010  -1.864  0.00  0.00    +0.085 C 
BRANCH   4  13
ATOM     13  C   UNL     1      -4.381   0.980  -0.873  0.00  0.00    +0.120 C 
BRANCH  13  15
ATOM     15  C   UNL     1      -3.069   1.641  -0.543  0.00  0.00    -0.033 A 
ATOM     16  C   UNL     1      -2.915   2.320   0.666  0.00  0.00    +0.007 A 
ATOM     17  C   UNL     1      -2.008   1.573  -1.445  0.00  0.00    +0.007 A 
ATOM     19  C   UNL     1      -1.700   2.932   0.972  0.00  0.00    +0.023 A 
ATOM     20  C   UNL     1      -0.792   2.185  -1.139  0.00  0.00    +0.023 A 
ATOM     21  C   UNL     1      -0.638   2.864   0.069  0.00  0.00    +0.029 A 
BRANCH  21   7
ATOM      7  N   UNL     1       0.591   3.482   0.379  0.00  0.00    -0.336 N 
ATOM     25  C   UNL     1       0.762   4.190   1.632  0.00  0.00    +0.129 C 
ATOM     26  C   UNL     1       1.702   3.411  -0.549  0.00  0.00    +0.129 C 
ENDBRANCH  21   7
ENDBRANCH  13  15
ENDBRANCH   4  13
ENDBRANCH  14   9
TORSDOF 9
