REMARK  Name = 26742498
REMARK  10 active torsions:
REMARK  status: ('A' for Active; 'I' for Inactive)
REMARK    1  A    between atoms: S_2  and  C_24
REMARK    2  A    between atoms: S_2  and  C_30
REMARK    3  A    between atoms: O_4  and  C_32
REMARK    4  A    between atoms: N_7  and  C_17
REMARK    5  A    between atoms: C_11  and  C_18
REMARK    6  A    between atoms: C_12  and  C_17
REMARK    7  A    between atoms: C_20  and  C_23
REMARK    8  A    between atoms: C_21  and  C_24
REMARK    9  A    between atoms: C_22  and  C_25
REMARK   10  A    between atoms: C_30  and  C_32
REMARK                            x       y       z     vdW  Elec       q    Type
REMARK                         _______ _______ _______ _____ _____    ______ ____
ROOT
ATOM      6  N   UNL     1      -1.056   0.778   2.536  0.00  0.00    -0.297 NA
ATOM     10  C   UNL     1      -0.820  -1.549   1.393  0.00  0.00    +0.002 C 
ATOM     11  C   UNL     1       0.578  -0.913   1.623  0.00  0.00    +0.055 C 
ATOM     12  C   UNL     1      -1.960   0.697   1.359  0.00  0.00    +0.074 C 
ATOM     13  C   UNL     1      -1.685  -0.589   0.550  0.00  0.00    +0.024 C 
ATOM     14  C   UNL     1      -1.490  -1.665   2.779  0.00  0.00    +0.019 C 
ATOM     15  C   UNL     1       0.348   0.544   2.117  0.00  0.00    +0.094 C 
ATOM     16  C   UNL     1      -1.442  -0.297   3.481  0.00  0.00    +0.085 C 
ENDROOT
BRANCH  11  18
ATOM      8  N   UNL     1       1.198  -1.595  -0.642  0.00  0.00    -0.237 NA
ATOM      9  N   UNL     1       3.379  -1.150  -1.566  0.00  0.00    -0.232 NA
ATOM     18  C   UNL     1       1.596  -0.986   0.494  0.00  0.00    +0.050 A 
ATOM     19  C   UNL     1       2.852  -0.442   0.673  0.00  0.00    +0.052 A 
ATOM     20  C   UNL     1       3.710  -0.554  -0.402  0.00  0.00    +0.076 A 
ATOM     22  C   UNL     1       2.127  -1.642  -1.617  0.00  0.00    +0.127 A 
ATOM     25  C   UNL     1       1.724  -2.310  -2.888  0.00  0.00    +0.088 C 
BRANCH  20  23
ATOM      1 BR   UNL     1       4.025   2.478  -1.371  0.00  0.00    -0.050 Br
ATOM     23  C   UNL     1       5.053  -0.027  -0.342  0.00  0.00    +0.014 A 
ATOM     26  C   UNL     1       5.353   1.278  -0.730  0.00  0.00    +0.027 A 
ATOM     27  C   UNL     1       6.065  -0.868   0.121  0.00  0.00    +0.011 A 
ATOM     28  C   UNL     1       6.666   1.743  -0.656  0.00  0.00    +0.016 A 
ATOM     29  C   UNL     1       7.378  -0.403   0.196  0.00  0.00    +0.001 A 
ATOM     31  C   UNL     1       7.678   0.903  -0.193  0.00  0.00    +0.001 A 
ENDBRANCH  20  23
ENDBRANCH  11  18
BRANCH  12  17
ATOM     17  C   UNL     1      -1.888   1.949   0.482  0.00  0.00    +0.123 C 
BRANCH  17   7
ATOM      3  O   UNL     1      -4.618   2.911   0.542  0.00  0.00    -0.275 OA
ATOM      7  N   UNL     1      -2.852   1.888  -0.574  0.00  0.00    -0.313 N 
ATOM     21  C   UNL     1      -4.152   2.377  -0.463  0.00  0.00    +0.223 C 
ATOM     33  H   UNL     1      -2.563   1.454  -1.446  0.00  0.00    +0.149 HD
BRANCH  21  24
ATOM     24  C   UNL     1      -4.978   2.176  -1.711  0.00  0.00    +0.165 C 
BRANCH  24   2
ATOM      2  S   UNL     1      -6.433   1.183  -1.299  0.00  0.00    -0.140 S 
BRANCH   2  30
ATOM     30  C   UNL     1      -5.654  -0.449  -1.304  0.00  0.00    +0.189 C 
BRANCH  30  32
ATOM      5  O   UNL     1      -7.871  -1.393  -1.252  0.00  0.00    -0.250 OA
ATOM     32  C   UNL     1      -6.682  -1.494  -0.978  0.00  0.00    +0.315 C 
BRANCH  32   4
ATOM      4  O   UNL     1      -6.150  -2.577  -0.357  0.00  0.00    -0.480 OA
ATOM     34  H   UNL     1      -6.831  -3.255  -0.156  0.00  0.00    +0.295 HD
ENDBRANCH  32   4
ENDBRANCH  30  32
ENDBRANCH   2  30
ENDBRANCH  24   2
ENDBRANCH  21  24
ENDBRANCH  17   7
ENDBRANCH  12  17
TORSDOF 9
