REMARK  Name = 56775645
REMARK  8 active torsions:
REMARK  status: ('A' for Active; 'I' for Inactive)
REMARK    1  A    between atoms: O_3  and  C_20
REMARK    2  A    between atoms: O_3  and  C_21
REMARK    3  A    between atoms: N_4  and  C_6
REMARK    4  A    between atoms: N_4  and  C_8
REMARK    5  A    between atoms: C_6  and  C_13
REMARK    6  A    between atoms: C_7  and  C_8
REMARK    7  A    between atoms: C_13  and  C_17
REMARK    8  A    between atoms: C_19  and  C_20
REMARK                            x       y       z     vdW  Elec       q    Type
REMARK                         _______ _______ _______ _____ _____    ______ ____
ROOT
ATOM     13  C   UNL     1      -1.388  -1.887   1.129  0.00  0.00    +0.085 C 
ENDROOT
BRANCH  13  17
ATOM      2  O   UNL     1       1.295   0.488   1.589  0.00  0.00    -0.356 OA
ATOM      5  N   UNL     1      -0.045   0.125   1.623  0.00  0.00    -0.083 NA
ATOM     17  C   UNL     1      -0.069  -1.148   1.217  0.00  0.00    +0.086 A 
ATOM     18  C   UNL     1       1.214  -1.636   0.916  0.00  0.00    +0.074 A 
ATOM     19  C   UNL     1       2.035  -0.569   1.167  0.00  0.00    +0.175 A 
BRANCH  19  20
ATOM     20  C   UNL     1       3.485  -0.357   1.072  0.00  0.00    +0.306 C 
BRANCH  20   3
ATOM      3  O   UNL     1       3.797   0.433  -0.078  0.00  0.00    -0.484 OA
BRANCH   3  21
ATOM     21  C   UNL     1       5.123   0.652  -0.325  0.00  0.00    +0.121 A 
ATOM     22  C   UNL     1       6.089   0.116   0.527  0.00  0.00    +0.045 A 
ATOM     23  C   UNL     1       5.511   1.413  -1.427  0.00  0.00    +0.045 A 
ATOM     24  C   UNL     1       7.443   0.340   0.275  0.00  0.00    +0.004 A 
ATOM     25  C   UNL     1       6.865   1.637  -1.679  0.00  0.00    +0.004 A 
ATOM     26  C   UNL     1       7.831   1.101  -0.828  0.00  0.00    +0.000 A 
ENDBRANCH   3  21
ENDBRANCH  20   3
ENDBRANCH  19  20
ENDBRANCH  13  17
BRANCH  13   6
ATOM      1  O   UNL     1      -2.225  -3.171  -1.777  0.00  0.00    -0.376 OA
ATOM      6  C   UNL     1      -2.003  -1.721  -0.227  0.00  0.00    +0.072 C 
ATOM     11  C   UNL     1      -1.223  -2.180  -1.453  0.00  0.00    +0.184 C 
ATOM     12  C   UNL     1      -3.059  -2.720  -0.686  0.00  0.00    +0.184 C 
BRANCH   6   4
ATOM      4  N   UNL     1      -2.502  -0.362  -0.466  0.00  0.00    -0.306 NA
ATOM     27  H   UNL     1      -1.782   0.356  -0.537  0.00  0.00    +0.123 HD
BRANCH   4   8
ATOM      8  C   UNL     1      -3.455  -0.005   0.575  0.00  0.00    +0.085 C 
BRANCH   8   7
ATOM      7  C   UNL     1      -4.416   1.077   0.085  0.00  0.00    +0.003 C 
ATOM      9  C   UNL     1      -5.223   0.579  -1.122  0.00  0.00    +0.005 C 
ATOM     10  C   UNL     1      -5.348   1.526   1.218  0.00  0.00    +0.005 C 
ATOM     14  C   UNL     1      -6.229   1.624  -1.597  0.00  0.00    +0.000 C 
ATOM     15  C   UNL     1      -6.355   2.569   0.739  0.00  0.00    +0.000 C 
ATOM     16  C   UNL     1      -7.149   2.075  -0.466  0.00  0.00    +0.000 C 
ENDBRANCH   8   7
ENDBRANCH   4   8
ENDBRANCH   6   4
ENDBRANCH  13   6
TORSDOF 8
