REMARK  Name = 38026845
REMARK  13 active torsions:
REMARK  status: ('A' for Active; 'I' for Inactive)
REMARK    1  A    between atoms: S_1  and  N_7
REMARK    2  A    between atoms: S_1  and  C_28
REMARK    3  A    between atoms: N_7  and  C_18
REMARK    4  A    between atoms: N_10  and  C_35
REMARK    5  A    between atoms: C_11  and  C_15
REMARK    6  A    between atoms: C_12  and  C_18
REMARK    7  A    between atoms: C_14  and  C_19
REMARK    8  A    between atoms: C_15  and  C_20
REMARK    9  A    between atoms: C_15  and  C_21
REMARK   10  A    between atoms: C_16  and  C_22
REMARK   11  A    between atoms: C_19  and  C_23
REMARK   12  A    between atoms: C_29  and  C_32
REMARK   13  A    between atoms: C_36  and  C_37
REMARK                            x       y       z     vdW  Elec       q    Type
REMARK                         _______ _______ _______ _____ _____    ______ ____
ROOT
ATOM     11  C   UNL     1      -1.809  -1.743  -1.127  0.00  0.00    +0.000 C 
ATOM     12  C   UNL     1      -2.541  -2.911  -0.420  0.00  0.00    +0.030 C 
ATOM     13  C   UNL     1      -0.629  -2.274  -1.957  0.00  0.00    +0.012 C 
ATOM     14  C   UNL     1       0.392  -3.039  -1.094  0.00  0.00    +0.023 C 
ATOM     16  C   UNL     1      -0.284  -4.029  -0.167  0.00  0.00    -0.073 C 
ATOM     17  C   UNL     1      -1.598  -3.964   0.112  0.00  0.00    -0.023 C 
ATOM     22  C   UNL     1       0.577  -5.125   0.397  0.00  0.00    +0.039 C 
ENDROOT
BRANCH  11  15
ATOM     15  C   UNL     1      -2.755  -0.940  -2.026  0.00  0.00    -0.013 C 
ATOM     20  C   UNL     1      -2.029   0.262  -2.622  0.00  0.00    +0.007 C 
ATOM     21  C   UNL     1      -3.325  -1.828  -3.127  0.00  0.00    +0.007 C 
ENDBRANCH  11  15
BRANCH  12  18
ATOM     18  C   UNL     1      -3.428  -2.397   0.720  0.00  0.00    +0.113 C 
BRANCH  18   7
ATOM      7  N   UNL     1      -2.575  -1.816   1.769  0.00  0.00    -0.189 NA
ATOM     38  H   UNL     1      -1.849  -2.424   2.166  0.00  0.00    +0.148 HD
BRANCH   7   1
ATOM      1  S   UNL     1      -3.157  -0.541   2.738  0.00  0.00    +0.058 S 
ATOM      3  O   UNL     1      -2.431  -0.524   3.993  0.00  0.00    -0.153 OA
ATOM      4  O   UNL     1      -4.607  -0.566   2.735  0.00  0.00    -0.153 OA
BRANCH   1  28
ATOM     28  C   UNL     1      -2.663   0.876   1.804  0.00  0.00    +0.105 A 
ATOM     30  C   UNL     1      -3.518   1.408   0.839  0.00  0.00    +0.030 A 
ATOM     31  C   UNL     1      -1.418   1.461   2.031  0.00  0.00    +0.030 A 
ATOM     33  C   UNL     1      -3.128   2.526   0.102  0.00  0.00    +0.025 A 
ATOM     34  C   UNL     1      -1.028   2.579   1.294  0.00  0.00    +0.025 A 
ATOM     35  C   UNL     1      -1.883   3.112   0.329  0.00  0.00    +0.033 A 
BRANCH  35  10
ATOM      6  O   UNL     1      -3.329   4.631  -1.831  0.00  0.00    -0.276 OA
ATOM     10  N   UNL     1      -1.493   4.230  -0.408  0.00  0.00    -0.286 N 
ATOM     36  C   UNL     1      -2.209   4.899  -1.409  0.00  0.00    +0.214 C 
ATOM     37  C   UNL     1      -1.435   6.069  -1.964  0.00  0.00    +0.109 C 
ATOM     39  H   UNL     1      -0.571   4.598  -0.183  0.00  0.00    +0.155 HD
ENDBRANCH  35  10
ENDBRANCH   1  28
ENDBRANCH   7   1
ENDBRANCH  18   7
ENDBRANCH  12  18
BRANCH  14  19
ATOM     19  C   UNL     1       1.284  -2.073  -0.307  0.00  0.00    +0.103 C 
BRANCH  19  23
ATOM      2  O   UNL     1       2.298  -1.751  -2.425  0.00  0.00    -0.276 OA
ATOM      5  O   UNL     1       6.376   1.742   2.292  0.00  0.00    -0.276 OA
ATOM      8  N   UNL     1       3.174  -0.523  -0.659  0.00  0.00    -0.298 N 
ATOM      9  N   UNL     1       5.543   0.465   0.540  0.00  0.00    -0.299 N 
ATOM     23  C   UNL     1       2.293  -1.439  -1.232  0.00  0.00    +0.216 C 
ATOM     24  C   UNL     1       4.186   0.135  -1.489  0.00  0.00    +0.126 C 
ATOM     25  C   UNL     1       3.146  -0.074   0.739  0.00  0.00    +0.126 C 
ATOM     26  C   UNL     1       5.571   0.017  -0.858  0.00  0.00    +0.126 C 
ATOM     27  C   UNL     1       4.531  -0.194   1.370  0.00  0.00    +0.126 C 
ATOM     29  C   UNL     1       6.422   1.383   1.113  0.00  0.00    +0.213 C 
ATOM     32  C   UNL     1       7.482   1.956   0.207  0.00  0.00    +0.109 C 
ENDBRANCH  19  23
ENDBRANCH  14  19
TORSDOF 8
