REMARK  Name = 7142447
REMARK  2 active torsions:
REMARK  status: ('A' for Active; 'I' for Inactive)
REMARK    1  A    between atoms: C_17  and  C_20
REMARK    2  A    between atoms: C_21  and  C_23
REMARK                            x       y       z     vdW  Elec       q    Type
REMARK                         _______ _______ _______ _____ _____    ______ ____
ROOT
ATOM      2  O   UNL     1       1.441   2.342   0.523  0.00  0.00    -0.273 OA
ATOM      3  O   UNL     1      -1.340  -2.141   0.842  0.00  0.00    -0.270 OA
ATOM      4  O   UNL     1       4.421   1.296  -2.024  0.00  0.00    -0.270 OA
ATOM      5  N   UNL     1       0.206  -0.661  -0.037  0.00  0.00    -0.283 N 
ATOM      6  N   UNL     1       2.927   0.065  -0.755  0.00  0.00    -0.294 N 
ATOM      7  N   UNL     1      -0.798   2.005   0.760  0.00  0.00    -0.283 N 
ATOM      9  C   UNL     1       0.469   0.560  -0.784  0.00  0.00    +0.180 C 
ATOM     10  C   UNL     1       1.788   0.504  -1.565  0.00  0.00    +0.140 C 
ATOM     11  C   UNL     1       1.315  -1.602   0.124  0.00  0.00    +0.128 C 
ATOM     12  C   UNL     1       2.639  -0.881   0.330  0.00  0.00    +0.127 C 
ATOM     13  C   UNL     1       0.437   1.686   0.236  0.00  0.00    +0.239 C 
ATOM     14  C   UNL     1      -1.069  -1.032   0.378  0.00  0.00    +0.249 C 
ATOM     15  C   UNL     1      -2.171  -0.036   0.294  0.00  0.00    +0.059 A 
ATOM     16  C   UNL     1      -2.024   1.333   0.575  0.00  0.00    +0.046 A 
ATOM     17  C   UNL     1       4.222   0.499  -1.105  0.00  0.00    +0.248 C 
ATOM     18  C   UNL     1      -3.460  -0.563   0.094  0.00  0.00    +0.024 A 
ATOM     19  C   UNL     1      -3.176   2.126   0.717  0.00  0.00    +0.024 A 
ATOM     21  C   UNL     1      -4.590   0.248   0.191  0.00  0.00    -0.010 A 
ATOM     22  C   UNL     1      -4.449   1.591   0.516  0.00  0.00    +0.011 A 
ATOM     31  H   UNL     1      -0.845   2.889   1.262  0.00  0.00    +0.155 HD
ENDROOT
BRANCH  17  20
ATOM      8  N   UNL     1       7.015  -1.759  -0.077  0.00  0.00    -0.263 NA
ATOM     20  C   UNL     1       5.341  -0.043  -0.340  0.00  0.00    +0.055 A 
ATOM     24  C   UNL     1       5.792   0.595   0.805  0.00  0.00    +0.016 A 
ATOM     25  C   UNL     1       5.975  -1.204  -0.740  0.00  0.00    +0.123 A 
ATOM     27  C   UNL     1       6.860   0.055   1.514  0.00  0.00    +0.020 A 
ATOM     28  C   UNL     1       7.431  -1.113   1.035  0.00  0.00    +0.111 A 
ENDBRANCH  17  20
BRANCH  21  23
ATOM      1  S   UNL     1      -6.568  -0.288  -1.599  0.00  0.00    -0.097 S 
ATOM     23  C   UNL     1      -5.902  -0.310  -0.021  0.00  0.00    +0.019 A 
ATOM     26  C   UNL     1      -6.757  -0.891   0.891  0.00  0.00    +0.016 A 
ATOM     29  C   UNL     1      -7.973  -1.323   0.286  0.00  0.00    +0.008 A 
ATOM     30  C   UNL     1      -8.002  -1.056  -1.065  0.00  0.00    +0.046 A 
ENDBRANCH  21  23
TORSDOF 2
