REMARK  Name = 45783413
REMARK  8 active torsions:
REMARK  status: ('A' for Active; 'I' for Inactive)
REMARK    1  A    between atoms: O_2  and  C_16
REMARK    2  A    between atoms: O_2  and  C_19
REMARK    3  A    between atoms: O_3  and  C_21
REMARK    4  A    between atoms: O_3  and  C_22
REMARK    5  A    between atoms: N_4  and  C_13
REMARK    6  A    between atoms: C_8  and  C_12
REMARK    7  A    between atoms: C_14  and  C_15
REMARK    8  A    between atoms: C_19  and  C_21
REMARK                            x       y       z     vdW  Elec       q    Type
REMARK                         _______ _______ _______ _____ _____    ______ ____
ROOT
ATOM      1  O   UNL     1       0.938  -2.663  -0.849  0.00  0.00    -0.336 OA
ATOM      5  N   UNL     1       0.345  -0.710   0.074  0.00  0.00    -0.190 NA
ATOM      6  N   UNL     1      -0.462  -2.666  -0.797  0.00  0.00    -0.056 NA
ATOM     12  C   UNL     1       1.332  -1.477  -0.317  0.00  0.00    +0.245 A 
ATOM     14  C   UNL     1      -0.736  -1.482  -0.241  0.00  0.00    +0.207 A 
ENDROOT
BRANCH  12   8
ATOM      4  N   UNL     1       3.159   0.212  -0.299  0.00  0.00    -0.294 NA
ATOM      8  C   UNL     1       2.824  -1.225  -0.259  0.00  0.00    +0.146 C 
ATOM      9  C   UNL     1       3.463  -1.740   1.044  0.00  0.00    +0.030 C 
ATOM     10  C   UNL     1       4.186  -0.537   1.634  0.00  0.00    +0.017 C 
ATOM     11  C   UNL     1       4.414   0.365   0.438  0.00  0.00    +0.085 C 
ATOM     13  C   UNL     1       3.251   0.743  -1.653  0.00  0.00    +0.105 C 
ENDBRANCH  12   8
BRANCH  14  15
ATOM      7  N   UNL     1      -3.674   0.759   0.236  0.00  0.00    -0.221 NA
ATOM     15  C   UNL     1      -2.076  -1.042   0.015  0.00  0.00    +0.084 A 
ATOM     16  C   UNL     1      -2.425   0.299   0.001  0.00  0.00    +0.226 A 
ATOM     17  C   UNL     1      -3.074  -1.970   0.289  0.00  0.00    +0.018 A 
ATOM     18  C   UNL     1      -4.372  -1.536   0.535  0.00  0.00    +0.021 A 
ATOM     20  C   UNL     1      -4.618  -0.173   0.498  0.00  0.00    +0.114 A 
BRANCH  16   2
ATOM      2  O   UNL     1      -1.476   1.254  -0.263  0.00  0.00    -0.474 OA
BRANCH   2  19
ATOM     19  C   UNL     1      -1.913   2.607  -0.259  0.00  0.00    +0.258 C 
BRANCH  19  21
ATOM     21  C   UNL     1      -0.728   3.510  -0.545  0.00  0.00    +0.200 C 
BRANCH  21   3
ATOM      3  O   UNL     1       0.248   3.332   0.473  0.00  0.00    -0.380 OA
ATOM     22  C   UNL     1       1.394   4.140   0.244  0.00  0.00    +0.194 C 
ENDBRANCH  21   3
ENDBRANCH  19  21
ENDBRANCH   2  19
ENDBRANCH  16   2
ENDBRANCH  14  15
TORSDOF 6
