REMARK  Name = 45783696
REMARK  8 active torsions:
REMARK  status: ('A' for Active; 'I' for Inactive)
REMARK    1  A    between atoms: O_2  and  C_15
REMARK    2  A    between atoms: O_2  and  C_24
REMARK    3  A    between atoms: O_3  and  C_26
REMARK    4  A    between atoms: O_3  and  C_27
REMARK    5  A    between atoms: N_4  and  C_12
REMARK    6  A    between atoms: C_8  and  C_13
REMARK    7  A    between atoms: C_12  and  C_14
REMARK    8  A    between atoms: C_17  and  C_20
REMARK                            x       y       z     vdW  Elec       q    Type
REMARK                         _______ _______ _______ _____ _____    ______ ____
ROOT
ATOM      4  N   UNL     1      -3.210  -0.866  -0.417  0.00  0.00    -0.287 NA
ATOM      8  C   UNL     1      -2.568  -1.688   0.627  0.00  0.00    +0.146 C 
ATOM      9  C   UNL     1      -2.723  -3.139   0.133  0.00  0.00    +0.030 C 
ATOM     10  C   UNL     1      -3.517  -3.035  -1.161  0.00  0.00    +0.017 C 
ATOM     11  C   UNL     1      -4.236  -1.707  -1.034  0.00  0.00    +0.085 C 
ENDROOT
BRANCH   8  13
ATOM      1  O   UNL     1      -0.793  -0.942   2.132  0.00  0.00    -0.336 OA
ATOM      5  N   UNL     1      -0.124  -1.264   0.019  0.00  0.00    -0.190 NA
ATOM      6  N   UNL     1       0.574  -0.634   2.105  0.00  0.00    -0.056 NA
ATOM     13  C   UNL     1      -1.122  -1.304   0.865  0.00  0.00    +0.245 A 
ATOM     17  C   UNL     1       0.895  -0.848   0.826  0.00  0.00    +0.204 A 
BRANCH  17  20
ATOM      7  N   UNL     1       4.523  -0.034   0.740  0.00  0.00    -0.221 NA
ATOM     20  C   UNL     1       2.225  -0.658   0.322  0.00  0.00    +0.041 A 
ATOM     22  C   UNL     1       2.524  -0.892  -1.016  0.00  0.00    +0.018 A 
ATOM     23  C   UNL     1       3.250  -0.234   1.151  0.00  0.00    +0.126 A 
ATOM     25  C   UNL     1       3.821  -0.698  -1.476  0.00  0.00    +0.068 A 
ATOM     26  C   UNL     1       4.776  -0.272  -0.566  0.00  0.00    +0.214 A 
BRANCH  26   3
ATOM      3  O   UNL     1       6.062  -0.073  -0.996  0.00  0.00    -0.480 OA
ATOM     27  C   UNL     1       7.002   0.364  -0.021  0.00  0.00    +0.279 C 
ENDBRANCH  26   3
ENDBRANCH  17  20
ENDBRANCH   8  13
BRANCH   4  12
ATOM     12  C   UNL     1      -3.759   0.384   0.093  0.00  0.00    +0.124 C 
BRANCH  12  14
ATOM     14  C   UNL     1      -2.693   1.431   0.278  0.00  0.00    +0.008 A 
ATOM     15  C   UNL     1      -1.911   1.849  -0.798  0.00  0.00    +0.124 A 
ATOM     16  C   UNL     1      -2.493   1.984   1.542  0.00  0.00    +0.008 A 
ATOM     18  C   UNL     1      -0.927   2.820  -0.610  0.00  0.00    +0.046 A 
ATOM     19  C   UNL     1      -1.510   2.955   1.731  0.00  0.00    +0.001 A 
ATOM     21  C   UNL     1      -0.727   3.373   0.655  0.00  0.00    +0.004 A 
BRANCH  15   2
ATOM      2  O   UNL     1      -2.093   1.319  -2.040  0.00  0.00    -0.495 OA
ATOM     24  C   UNL     1      -1.248   1.805  -3.082  0.00  0.00    +0.277 C 
ENDBRANCH  15   2
ENDBRANCH  12  14
ENDBRANCH   4  12
TORSDOF 6
