REMARK  Name = 7050394
REMARK  3 active torsions:
REMARK  status: ('A' for Active; 'I' for Inactive)
REMARK    1  A    between atoms: N_6  and  C_10
REMARK    2  A    between atoms: C_18  and  C_23
REMARK    3  A    between atoms: C_21  and  C_24
REMARK                            x       y       z     vdW  Elec       q    Type
REMARK                         _______ _______ _______ _____ _____    ______ ____
ROOT
ATOM      2  O   UNL     1       1.518   2.811   0.336  0.00  0.00    -0.273 OA
ATOM      3  O   UNL     1      -1.621  -0.152  -2.591  0.00  0.00    -0.270 OA
ATOM      5  N   UNL     1       0.212   0.262  -1.227  0.00  0.00    -0.286 N 
ATOM      7  N   UNL     1      -0.743   2.497   0.459  0.00  0.00    -0.283 N 
ATOM      9  C   UNL     1       0.711   0.548   0.112  0.00  0.00    +0.164 C 
ATOM     10  C   UNL     1       3.096   0.208  -0.776  0.00  0.00    +0.077 C 
ATOM     11  C   UNL     1       2.127   0.030   0.392  0.00  0.00    +0.054 C 
ATOM     12  C   UNL     1       2.481  -0.384  -2.039  0.00  0.00    +0.041 C 
ATOM     13  C   UNL     1       1.155   0.290  -2.349  0.00  0.00    +0.111 C 
ATOM     14  C   UNL     1       0.553   2.048   0.286  0.00  0.00    +0.238 C 
ATOM     15  C   UNL     1      -1.154   0.188  -1.503  0.00  0.00    +0.249 C 
ATOM     16  C   UNL     1      -2.117   0.610  -0.451  0.00  0.00    +0.059 A 
ATOM     17  C   UNL     1      -1.938   1.749   0.355  0.00  0.00    +0.046 A 
ATOM     19  C   UNL     1      -3.348  -0.068  -0.432  0.00  0.00    +0.023 A 
ATOM     20  C   UNL     1      -3.023   2.221   1.113  0.00  0.00    +0.024 A 
ATOM     21  C   UNL     1      -4.397   0.387   0.366  0.00  0.00    -0.017 A 
ATOM     22  C   UNL     1      -4.239   1.539   1.127  0.00  0.00    +0.010 A 
ATOM     35  H   UNL     1      -0.839   3.452   0.798  0.00  0.00    +0.155 HD
ENDROOT
BRANCH  21  24
ATOM      1 CL   UNL     1      -9.587  -2.538   0.421  0.00  0.00    -0.084 Cl
ATOM     24  C   UNL     1      -5.657  -0.324   0.380  0.00  0.00    -0.018 A 
ATOM     27  C   UNL     1      -6.848   0.372   0.591  0.00  0.00    +0.010 A 
ATOM     28  C   UNL     1      -5.682  -1.704   0.183  0.00  0.00    +0.010 A 
ATOM     30  C   UNL     1      -8.063  -0.313   0.604  0.00  0.00    +0.020 A 
ATOM     31  C   UNL     1      -6.897  -2.389   0.196  0.00  0.00    +0.020 A 
ATOM     33  C   UNL     1      -8.088  -1.694   0.406  0.00  0.00    +0.041 A 
ENDBRANCH  21  24
BRANCH  10   6
ATOM      4  O   UNL     1       5.285   1.452   0.495  0.00  0.00    -0.270 OA
ATOM      6  N   UNL     1       4.367  -0.412  -0.485  0.00  0.00    -0.308 N 
ATOM     18  C   UNL     1       5.402   0.275   0.149  0.00  0.00    +0.246 C 
ATOM     34  H   UNL     1       4.485  -1.379  -0.768  0.00  0.00    +0.149 HD
BRANCH  18  23
ATOM      8  N   UNL     1       7.644  -2.640   0.801  0.00  0.00    -0.263 NA
ATOM     23  C   UNL     1       6.623  -0.502   0.406  0.00  0.00    +0.055 A 
ATOM     25  C   UNL     1       7.849   0.130   0.492  0.00  0.00    +0.016 A 
ATOM     26  C   UNL     1       6.561  -1.868   0.563  0.00  0.00    +0.123 A 
ATOM     29  C   UNL     1       8.987  -0.631   0.736  0.00  0.00    +0.020 A 
ATOM     32  C   UNL     1       8.832  -2.000   0.882  0.00  0.00    +0.111 A 
ENDBRANCH  18  23
ENDBRANCH  10   6
TORSDOF 3
