REMARK  Name = 26742312
REMARK  4 active torsions:
REMARK  status: ('A' for Active; 'I' for Inactive)
REMARK    1  A    between atoms: N_4  and  C_15
REMARK    2  A    between atoms: N_6  and  C_23
REMARK    3  A    between atoms: N_7  and  C_26
REMARK    4  A    between atoms: C_29  and  C_32
REMARK                            x       y       z     vdW  Elec       q    Type
REMARK                         _______ _______ _______ _____ _____    ______ ____
ROOT
ATOM      2  O   UNL     1       0.284  -1.766   2.061  0.00  0.00    -0.266 OA
ATOM      4  N   UNL     1       4.458   0.114   0.017  0.00  0.00    -0.298 NA
ATOM      5  N   UNL     1       1.944  -1.811   0.417  0.00  0.00    -0.310 N 
ATOM      9  C   UNL     1       4.418  -2.213   0.948  0.00  0.00    +0.024 C 
ATOM     10  C   UNL     1       3.720  -1.831  -1.367  0.00  0.00    +0.050 C 
ATOM     11  C   UNL     1       4.472  -2.798  -0.457  0.00  0.00    +0.017 C 
ATOM     12  C   UNL     1       5.079  -0.818   0.966  0.00  0.00    +0.090 C 
ATOM     13  C   UNL     1       4.415  -0.450  -1.341  0.00  0.00    +0.094 C 
ATOM     14  C   UNL     1       2.957  -2.180   1.416  0.00  0.00    +0.130 C 
ATOM     16  C   UNL     1       2.270  -1.704  -0.938  0.00  0.00    +0.026 A 
ATOM     19  C   UNL     1       1.309  -1.473  -1.848  0.00  0.00    +0.024 A 
ATOM     20  C   UNL     1       0.621  -1.666   0.880  0.00  0.00    +0.273 A 
ATOM     23  C   UNL     1      -0.417  -1.386  -0.162  0.00  0.00    +0.100 A 
ATOM     24  C   UNL     1      -0.061  -1.309  -1.449  0.00  0.00    +0.030 A 
ENDROOT
BRANCH   4  15
ATOM      1  O   UNL     1       5.073   4.229   0.573  0.00  0.00    -0.380 OA
ATOM     15  C   UNL     1       5.143   1.404   0.025  0.00  0.00    +0.061 C 
ATOM     17  C   UNL     1       4.417   2.399  -0.884  0.00  0.00    +0.047 C 
ATOM     18  C   UNL     1       5.240   1.968   1.447  0.00  0.00    +0.047 C 
ATOM     21  C   UNL     1       5.059   3.778  -0.781  0.00  0.00    +0.161 C 
ATOM     22  C   UNL     1       5.836   3.371   1.421  0.00  0.00    +0.161 C 
ENDBRANCH   4  15
BRANCH  23   6
ATOM      3  O   UNL     1      -2.391   0.220  -1.433  0.00  0.00    -0.252 OA
ATOM      6  N   UNL     1      -1.708  -1.226   0.246  0.00  0.00    -0.265 N 
ATOM      7  N   UNL     1      -3.875  -0.469   0.250  0.00  0.00    -0.269 N 
ATOM     25  C   UNL     1      -2.645  -0.422  -0.416  0.00  0.00    +0.308 C 
ATOM     33  H   UNL     1      -1.927  -1.505   1.199  0.00  0.00    +0.157 HD
ATOM     34  H   UNL     1      -3.921  -1.054   1.081  0.00  0.00    +0.156 HD
BRANCH   7  26
ATOM     26  C   UNL     1      -5.074   0.198  -0.092  0.00  0.00    +0.036 A 
ATOM     27  C   UNL     1      -6.214   0.032   0.696  0.00  0.00    +0.042 A 
ATOM     28  C   UNL     1      -5.117   1.021  -1.217  0.00  0.00    +0.023 A 
ATOM     29  C   UNL     1      -7.396   0.690   0.358  0.00  0.00    +0.054 A 
ATOM     30  C   UNL     1      -6.300   1.680  -1.554  0.00  0.00    +0.003 A 
ATOM     31  C   UNL     1      -7.439   1.514  -0.767  0.00  0.00    +0.019 A 
BRANCH  29  32
ATOM      8  N   UNL     1      -9.513   0.384   1.819  0.00  0.00    -0.191 NA
ATOM     32  C   UNL     1      -8.564   0.521   1.164  0.00  0.00    +0.099 C 
ENDBRANCH  29  32
ENDBRANCH   7  26
ENDBRANCH  23   6
TORSDOF 4
