REMARK  Name = 45783541
REMARK  9 active torsions:
REMARK  status: ('A' for Active; 'I' for Inactive)
REMARK    1  A    between atoms: O_2  and  C_25
REMARK    2  A    between atoms: O_2  and  C_26
REMARK    3  A    between atoms: O_3  and  C_27
REMARK    4  A    between atoms: O_3  and  C_28
REMARK    5  A    between atoms: N_4  and  C_12
REMARK    6  A    between atoms: C_8  and  C_13
REMARK    7  A    between atoms: C_12  and  C_14
REMARK    8  A    between atoms: C_17  and  C_20
REMARK    9  A    between atoms: C_26  and  C_27
REMARK                            x       y       z     vdW  Elec       q    Type
REMARK                         _______ _______ _______ _____ _____    ______ ____
ROOT
ATOM      1  O   UNL     1      -1.167  -2.976   1.118  0.00  0.00    -0.336 OA
ATOM      5  N   UNL     1      -0.788  -1.155  -0.130  0.00  0.00    -0.190 NA
ATOM      6  N   UNL     1       0.198  -2.689   1.252  0.00  0.00    -0.056 NA
ATOM     13  C   UNL     1      -1.671  -2.026   0.288  0.00  0.00    +0.245 A 
ATOM     17  C   UNL     1       0.344  -1.603   0.487  0.00  0.00    +0.204 A 
ENDROOT
BRANCH  17  20
ATOM      7  N   UNL     1       3.965  -0.832   0.835  0.00  0.00    -0.221 NA
ATOM     20  C   UNL     1       1.606  -0.943   0.318  0.00  0.00    +0.041 A 
ATOM     22  C   UNL     1       1.722   0.185  -0.487  0.00  0.00    +0.018 A 
ATOM     23  C   UNL     1       2.747  -1.407   0.951  0.00  0.00    +0.126 A 
ATOM     24  C   UNL     1       2.958   0.805  -0.632  0.00  0.00    +0.068 A 
ATOM     25  C   UNL     1       4.039   0.263   0.044  0.00  0.00    +0.215 A 
BRANCH  25   2
ATOM      2  O   UNL     1       5.268   0.855  -0.082  0.00  0.00    -0.474 OA
BRANCH   2  26
ATOM     26  C   UNL     1       6.343   0.258   0.633  0.00  0.00    +0.258 C 
BRANCH  26  27
ATOM     27  C   UNL     1       7.615   1.034   0.352  0.00  0.00    +0.200 C 
BRANCH  27   3
ATOM      3  O   UNL     1       7.894   0.979  -1.042  0.00  0.00    -0.380 OA
ATOM     28  C   UNL     1       9.068   1.711  -1.367  0.00  0.00    +0.194 C 
ENDBRANCH  27   3
ENDBRANCH  26  27
ENDBRANCH   2  26
ENDBRANCH  25   2
ENDBRANCH  17  20
BRANCH  13   8
ATOM      4  N   UNL     1      -3.744  -0.803  -0.345  0.00  0.00    -0.287 NA
ATOM      8  C   UNL     1      -3.151  -2.115  -0.020  0.00  0.00    +0.146 C 
ATOM      9  C   UNL     1      -3.451  -2.994  -1.248  0.00  0.00    +0.030 C 
ATOM     10  C   UNL     1      -4.266  -2.110  -2.181  0.00  0.00    +0.017 C 
ATOM     11  C   UNL     1      -4.858  -1.066  -1.256  0.00  0.00    +0.085 C 
BRANCH   4  12
ATOM     12  C   UNL     1      -4.164  -0.055   0.833  0.00  0.00    +0.120 C 
BRANCH  12  14
ATOM     14  C   UNL     1      -4.295   1.417   0.546  0.00  0.00    -0.033 A 
ATOM     15  C   UNL     1      -3.200   2.263   0.722  0.00  0.00    +0.005 A 
ATOM     16  C   UNL     1      -5.513   1.936   0.104  0.00  0.00    +0.005 A 
ATOM     18  C   UNL     1      -3.322   3.627   0.455  0.00  0.00    +0.000 A 
ATOM     19  C   UNL     1      -5.634   3.299  -0.163  0.00  0.00    +0.000 A 
ATOM     21  C   UNL     1      -4.539   4.145   0.013  0.00  0.00    +0.000 A 
ENDBRANCH  12  14
ENDBRANCH   4  12
ENDBRANCH  13   8
TORSDOF 8
