REMARK  Name = 38029729
REMARK  15 active torsions:
REMARK  status: ('A' for Active; 'I' for Inactive)
REMARK    1  A    between atoms: S_1  and  N_7
REMARK    2  A    between atoms: S_1  and  C_22
REMARK    3  A    between atoms: O_2  and  C_21
REMARK    4  A    between atoms: O_2  and  C_23
REMARK    5  A    between atoms: N_7  and  C_16
REMARK    6  A    between atoms: N_8  and  C_29
REMARK    7  A    between atoms: C_9  and  C_13
REMARK    8  A    between atoms: C_10  and  C_16
REMARK    9  A    between atoms: C_12  and  C_17
REMARK   10  A    between atoms: C_13  and  C_18
REMARK   11  A    between atoms: C_13  and  C_19
REMARK   12  A    between atoms: C_14  and  C_20
REMARK   13  A    between atoms: C_17  and  C_21
REMARK   14  A    between atoms: C_23  and  C_28
REMARK   15  A    between atoms: C_30  and  C_31
REMARK                            x       y       z     vdW  Elec       q    Type
REMARK                         _______ _______ _______ _____ _____    ______ ____
ROOT
ATOM     16  C   UNL     1      -2.315   2.549  -0.460  0.00  0.00    +0.113 C 
ENDROOT
BRANCH  16  10
ATOM      9  C   UNL     1      -1.728   0.194  -1.217  0.00  0.00    +0.000 C 
ATOM     10  C   UNL     1      -2.870   1.204  -0.944  0.00  0.00    +0.030 C 
ATOM     11  C   UNL     1      -2.283  -1.237  -1.283  0.00  0.00    +0.012 C 
ATOM     12  C   UNL     1      -2.997  -1.647   0.019  0.00  0.00    +0.025 C 
ATOM     14  C   UNL     1      -3.951  -0.572   0.499  0.00  0.00    -0.073 C 
ATOM     15  C   UNL     1      -3.888   0.693   0.048  0.00  0.00    -0.023 C 
ATOM     20  C   UNL     1      -5.011  -0.996   1.478  0.00  0.00    +0.039 C 
BRANCH   9  13
ATOM     13  C   UNL     1      -0.977   0.519  -2.511  0.00  0.00    -0.013 C 
ATOM     18  C   UNL     1      -1.920   0.444  -3.707  0.00  0.00    +0.007 C 
ATOM     19  C   UNL     1       0.205  -0.428  -2.694  0.00  0.00    +0.007 C 
ENDBRANCH   9  13
BRANCH  12  17
ATOM     17  C   UNL     1      -1.986  -2.011   1.112  0.00  0.00    +0.128 C 
BRANCH  17  21
ATOM      3  O   UNL     1      -1.958  -4.420   0.781  0.00  0.00    -0.251 OA
ATOM     21  C   UNL     1      -1.359  -3.357   0.860  0.00  0.00    +0.308 C 
BRANCH  21   2
ATOM      2  O   UNL     1      -0.009  -3.186   0.736  0.00  0.00    -0.465 OA
BRANCH   2  23
ATOM     23  C   UNL     1       0.743  -4.379   0.491  0.00  0.00    +0.229 C 
ATOM     28  C   UNL     1       2.210  -4.023   0.380  0.00  0.00    +0.048 C 
ENDBRANCH   2  23
ENDBRANCH  21   2
ENDBRANCH  17  21
ENDBRANCH  12  17
ENDBRANCH  16  10
BRANCH  16   7
ATOM      7  N   UNL     1      -1.677   2.360   0.853  0.00  0.00    -0.189 NA
ATOM     32  H   UNL     1      -2.258   1.957   1.597  0.00  0.00    +0.148 HD
BRANCH   7   1
ATOM      1  S   UNL     1      -0.366   3.344   1.317  0.00  0.00    +0.058 S 
ATOM      4  O   UNL     1      -0.284   3.380   2.765  0.00  0.00    -0.153 OA
ATOM      5  O   UNL     1      -0.406   4.579   0.558  0.00  0.00    -0.153 OA
BRANCH   1  22
ATOM     22  C   UNL     1       1.012   2.414   0.717  0.00  0.00    +0.105 A 
ATOM     24  C   UNL     1       1.621   1.462   1.535  0.00  0.00    +0.030 A 
ATOM     25  C   UNL     1       1.491   2.632  -0.575  0.00  0.00    +0.030 A 
ATOM     26  C   UNL     1       2.709   0.728   1.061  0.00  0.00    +0.025 A 
ATOM     27  C   UNL     1       2.579   1.899  -1.049  0.00  0.00    +0.025 A 
ATOM     29  C   UNL     1       3.188   0.947  -0.231  0.00  0.00    +0.033 A 
BRANCH  29   8
ATOM      6  O   UNL     1       4.832  -1.194   1.103  0.00  0.00    -0.276 OA
ATOM      8  N   UNL     1       4.275   0.212  -0.705  0.00  0.00    -0.286 N 
ATOM     30  C   UNL     1       5.008  -0.777  -0.037  0.00  0.00    +0.214 C 
ATOM     31  C   UNL     1       6.114  -1.333  -0.899  0.00  0.00    +0.109 C 
ATOM     33  H   UNL     1       4.564   0.430  -1.657  0.00  0.00    +0.155 HD
ENDBRANCH  29   8
ENDBRANCH   1  22
ENDBRANCH   7   1
ENDBRANCH  16   7
TORSDOF 10
