REMARK  Name = 56774929
REMARK  10 active torsions:
REMARK  status: ('A' for Active; 'I' for Inactive)
REMARK    1  A    between atoms: O_2  and  C_15
REMARK    2  A    between atoms: O_4  and  C_24
REMARK    3  A    between atoms: O_4  and  C_27
REMARK    4  A    between atoms: N_6  and  C_18
REMARK    5  A    between atoms: N_7  and  C_21
REMARK    6  A    between atoms: C_8  and  C_14
REMARK    7  A    between atoms: C_13  and  C_15
REMARK    8  A    between atoms: C_15  and  C_17
REMARK    9  A    between atoms: C_18  and  C_24
REMARK   10  A    between atoms: C_27  and  C_28
REMARK                            x       y       z     vdW  Elec       q    Type
REMARK                         _______ _______ _______ _____ _____    ______ ____
ROOT
ATOM     15  C   UNL     1       1.730  -0.966  -0.958  0.00  0.00    +0.167 C 
ENDROOT
BRANCH  15  13
ATOM      1  O   UNL     1       2.316  -1.922   1.754  0.00  0.00    -0.369 OA
ATOM      5  O   UNL     1       5.637  -2.305   0.387  0.00  0.00    -0.273 OA
ATOM      6  N   UNL     1       4.027  -0.696  -0.099  0.00  0.00    -0.289 N 
ATOM     13  C   UNL     1       2.633  -0.264   0.061  0.00  0.00    +0.135 C 
ATOM     16  C   UNL     1       2.164  -0.533   1.486  0.00  0.00    +0.185 C 
ATOM     19  C   UNL     1       4.538  -1.788   0.599  0.00  0.00    +0.242 C 
ATOM     20  C   UNL     1       3.678  -2.290   1.753  0.00  0.00    +0.255 C 
BRANCH   6  18
ATOM     18  C   UNL     1       4.812  -0.062  -1.150  0.00  0.00    +0.136 C 
BRANCH  18  24
ATOM     24  C   UNL     1       5.714   1.024  -0.593  0.00  0.00    +0.178 C 
BRANCH  24   4
ATOM      4  O   UNL     1       4.919   2.037   0.009  0.00  0.00    -0.378 OA
BRANCH   4  27
ATOM     27  C   UNL     1       5.721   3.079   0.546  0.00  0.00    +0.156 C 
ATOM     28  C   UNL     1       4.820   4.123   1.171  0.00  0.00    +0.034 C 
ENDBRANCH   4  27
ENDBRANCH  24   4
ENDBRANCH  18  24
ENDBRANCH   6  18
ENDBRANCH  15  13
BRANCH  15  17
ATOM     17  C   UNL     1       0.297  -0.513  -0.841  0.00  0.00    -0.017 A 
ATOM     21  C   UNL     1      -2.356   0.323  -0.627  0.00  0.00    +0.033 A 
ATOM     22  C   UNL     1      -0.708  -1.443  -0.573  0.00  0.00    +0.008 A 
ATOM     23  C   UNL     1      -0.025   0.835  -1.001  0.00  0.00    +0.008 A 
ATOM     25  C   UNL     1      -2.034  -1.024  -0.466  0.00  0.00    +0.023 A 
ATOM     26  C   UNL     1      -1.351   1.253  -0.894  0.00  0.00    +0.023 A 
BRANCH  21   7
ATOM      3  O   UNL     1      -4.862  -1.248  -0.066  0.00  0.00    -0.275 OA
ATOM      7  N   UNL     1      -3.682   0.742  -0.520  0.00  0.00    -0.285 N 
ATOM     14  C   UNL     1      -4.817  -0.037  -0.257  0.00  0.00    +0.220 C 
ATOM     29  H   UNL     1      -3.828   1.742  -0.645  0.00  0.00    +0.155 HD
BRANCH  14   8
ATOM      8  C   UNL     1      -6.064   0.793  -0.223  0.00  0.00    +0.075 C 
ATOM      9  C   UNL     1      -7.278  -0.040  -0.641  0.00  0.00    +0.013 C 
ATOM     10  C   UNL     1      -6.345   1.272   1.206  0.00  0.00    +0.013 C 
ATOM     11  C   UNL     1      -7.938  -0.442   0.670  0.00  0.00    +0.001 C 
ATOM     12  C   UNL     1      -7.753   0.790   1.538  0.00  0.00    +0.001 C 
ENDBRANCH  14   8
ENDBRANCH  21   7
ENDBRANCH  15  17
BRANCH  15   2
ATOM      2  O   UNL     1       2.207  -0.699  -2.272  0.00  0.00    -0.385 OA
ATOM     30  H   UNL     1       1.998   0.220  -2.510  0.00  0.00    +0.210 HD
ENDBRANCH  15   2
TORSDOF 9
