REMARK  Name = 7134495
REMARK  12 active torsions:
REMARK  status: ('A' for Active; 'I' for Inactive)
REMARK    1  A    between atoms: S_1  and  N_12
REMARK    2  A    between atoms: S_1  and  C_23
REMARK    3  A    between atoms: O_5  and  C_15
REMARK    4  A    between atoms: O_6  and  C_18
REMARK    5  A    between atoms: O_7  and  C_20
REMARK    6  A    between atoms: N_12  and  C_16
REMARK    7  A    between atoms: N_13  and  C_22
REMARK    8  A    between atoms: C_15  and  C_21
REMARK    9  A    between atoms: C_22  and  C_24
REMARK   10  A    between atoms: C_22  and  C_25
REMARK   11  A    between atoms: C_24  and  C_28
REMARK   12  A    between atoms: C_29  and  C_34
REMARK                            x       y       z     vdW  Elec       q    Type
REMARK                         _______ _______ _______ _____ _____    ______ ____
ROOT
ATOM     15  C   UNL     1       0.266  -2.580   0.330  0.00  0.00    +0.145 C 
ATOM     16  C   UNL     1       2.412  -1.439  -0.394  0.00  0.00    +0.111 C 
ATOM     17  C   UNL     1       0.884  -1.446  -0.489  0.00  0.00    +0.067 C 
ATOM     18  C   UNL     1       3.024  -2.796  -0.760  0.00  0.00    +0.162 C 
ATOM     19  C   UNL     1       0.864  -3.931  -0.059  0.00  0.00    +0.078 C 
ATOM     20  C   UNL     1       2.390  -3.939   0.040  0.00  0.00    +0.148 C 
ENDROOT
BRANCH  15  21
ATOM      8  O   UNL     1      -1.806  -3.578  -0.314  0.00  0.00    -0.273 OA
ATOM     13  N   UNL     1      -1.819  -1.426   0.571  0.00  0.00    -0.301 N 
ATOM     21  C   UNL     1      -1.225  -2.606   0.160  0.00  0.00    +0.245 C 
ATOM     42  H   UNL     1      -1.258  -0.710   1.021  0.00  0.00    +0.150 HD
BRANCH  13  22
ATOM     22  C   UNL     1      -3.242  -1.187   0.490  0.00  0.00    +0.163 C 
BRANCH  22  25
ATOM     11  O   UNL     1      -3.312  -1.708   2.863  0.00  0.00    -0.274 OA
ATOM     14  N   UNL     1      -5.134  -2.238   1.568  0.00  0.00    -0.328 N 
ATOM     25  C   UNL     1      -3.863  -1.740   1.765  0.00  0.00    +0.231 C 
ATOM     43  H   UNL     1      -5.667  -2.625   2.340  0.00  0.00    +0.145 HD
ATOM     44  H   UNL     1      -5.586  -2.236   0.659  0.00  0.00    +0.145 HD
ENDBRANCH  22  25
BRANCH  22  24
ATOM     24  C   UNL     1      -3.573   0.302   0.338  0.00  0.00    +0.067 C 
BRANCH  24  28
ATOM     28  C   UNL     1      -3.393   0.798  -1.076  0.00  0.00    -0.045 A 
ATOM     32  C   UNL     1      -2.160   1.308  -1.484  0.00  0.00    +0.004 A 
ATOM     33  C   UNL     1      -4.459   0.748  -1.974  0.00  0.00    +0.004 A 
ATOM     35  C   UNL     1      -1.993   1.767  -2.791  0.00  0.00    +0.000 A 
ATOM     36  C   UNL     1      -4.292   1.207  -3.281  0.00  0.00    +0.000 A 
ATOM     37  C   UNL     1      -3.059   1.716  -3.689  0.00  0.00    +0.000 A 
ENDBRANCH  24  28
ENDBRANCH  22  24
ENDBRANCH  13  22
ENDBRANCH  15  21
BRANCH  15   5
ATOM      5  O   UNL     1       0.475  -2.362   1.720  0.00  0.00    -0.379 OA
ATOM     39  H   UNL     1       0.327  -1.423   1.920  0.00  0.00    +0.211 HD
ENDBRANCH  15   5
BRANCH  18   6
ATOM      6  O   UNL     1       4.421  -2.745  -0.459  0.00  0.00    -0.388 OA
ATOM     40  H   UNL     1       4.519  -2.574   0.493  0.00  0.00    +0.210 HD
ENDBRANCH  18   6
BRANCH  20   7
ATOM      7  O   UNL     1       2.849  -5.191  -0.467  0.00  0.00    -0.389 OA
ATOM     41  H   UNL     1       2.456  -5.893   0.080  0.00  0.00    +0.210 HD
ENDBRANCH  20   7
BRANCH  16  12
ATOM     12  N   UNL     1       2.940  -0.401  -1.321  0.00  0.00    -0.184 NA
ATOM     38  H   UNL     1       2.951  -0.622  -2.324  0.00  0.00    +0.148 HD
BRANCH  12   1
ATOM      1  S   UNL     1       3.835   0.898  -0.704  0.00  0.00    +0.059 S 
ATOM      9  O   UNL     1       4.698   1.431  -1.741  0.00  0.00    -0.153 OA
ATOM     10  O   UNL     1       4.390   0.509   0.579  0.00  0.00    -0.153 OA
BRANCH   1  23
ATOM     23  C   UNL     1       2.573   2.092  -0.377  0.00  0.00    +0.106 A 
ATOM     26  C   UNL     1       1.947   2.122   0.869  0.00  0.00    +0.041 A 
ATOM     27  C   UNL     1       2.204   3.005  -1.365  0.00  0.00    +0.028 A 
ATOM     29  C   UNL     1       0.952   3.065   1.127  0.00  0.00    +0.057 A 
ATOM     30  C   UNL     1       1.209   3.948  -1.107  0.00  0.00    +0.002 A 
ATOM     31  C   UNL     1       0.583   3.978   0.139  0.00  0.00    +0.012 A 
BRANCH  29  34
ATOM      2  F   UNL     1      -0.669   4.070   2.571  0.00  0.00    -0.166 F 
ATOM      3  F   UNL     1      -0.359   1.934   2.778  0.00  0.00    -0.166 F 
ATOM      4  F   UNL     1       1.159   3.323   3.482  0.00  0.00    -0.166 F 
ATOM     34  C   UNL     1       0.283   3.097   2.460  0.00  0.00    +0.417 C 
ENDBRANCH  29  34
ENDBRANCH   1  23
ENDBRANCH  12   1
ENDBRANCH  16  12
TORSDOF 12
