REMARK  Name = 11885943
REMARK  9 active torsions:
REMARK  status: ('A' for Active; 'I' for Inactive)
REMARK    1  A    between atoms: O_3  and  C_13
REMARK    2  A    between atoms: O_3  and  C_17
REMARK    3  A    between atoms: O_6  and  C_26
REMARK    4  A    between atoms: O_6  and  C_27
REMARK    5  A    between atoms: N_8  and  C_12
REMARK    6  A    between atoms: N_9  and  C_21
REMARK    7  A    between atoms: C_16  and  C_18
REMARK    8  A    between atoms: C_21  and  C_25
REMARK    9  A    between atoms: C_22  and  C_26
REMARK                            x       y       z     vdW  Elec       q    Type
REMARK                         _______ _______ _______ _____ _____    ______ ____
ROOT
ATOM      1  O   UNL     1       2.023   1.219   0.930  0.00  0.00    -0.368 OA
ATOM      2  O   UNL     1       2.124   2.404  -1.897  0.00  0.00    -0.368 OA
ATOM     10  C   UNL     1       1.207   1.474  -1.282  0.00  0.00    +0.173 C 
ATOM     11  C   UNL     1       2.027   0.591  -0.363  0.00  0.00    +0.192 C 
ATOM     12  C   UNL     1       0.276   2.207  -0.345  0.00  0.00    +0.130 C 
ATOM     13  C   UNL     1       3.394   0.636  -1.002  0.00  0.00    +0.235 C 
ATOM     14  C   UNL     1       1.119   2.335   0.912  0.00  0.00    +0.185 C 
ATOM     15  C   UNL     1       3.462   2.058  -1.512  0.00  0.00    +0.207 C 
ENDROOT
BRANCH  12   8
ATOM      4  O   UNL     1      -2.285   3.245   0.437  0.00  0.00    -0.270 OA
ATOM      8  N   UNL     1      -0.923   1.445  -0.097  0.00  0.00    -0.304 N 
ATOM     16  C   UNL     1      -2.120   2.038   0.279  0.00  0.00    +0.244 C 
ATOM     28  H   UNL     1      -0.835   0.434  -0.099  0.00  0.00    +0.149 HD
BRANCH  16  18
ATOM     18  C   UNL     1      -3.257   1.112   0.523  0.00  0.00    +0.037 A 
ATOM     19  C   UNL     1      -3.304  -0.121  -0.128  0.00  0.00    +0.028 A 
ATOM     20  C   UNL     1      -4.276   1.477   1.402  0.00  0.00    +0.013 A 
ATOM     22  C   UNL     1      -4.372  -0.989   0.101  0.00  0.00    +0.060 A 
ATOM     23  C   UNL     1      -5.343   0.608   1.631  0.00  0.00    +0.002 A 
ATOM     24  C   UNL     1      -5.391  -0.625   0.981  0.00  0.00    +0.015 A 
BRANCH  22  26
ATOM      7  O   UNL     1      -5.467  -2.864  -0.883  0.00  0.00    -0.245 OA
ATOM     26  C   UNL     1      -4.422  -2.275  -0.577  0.00  0.00    +0.339 C 
BRANCH  26   6
ATOM      6  O   UNL     1      -3.168  -2.756  -0.837  0.00  0.00    -0.464 OA
ATOM     27  C   UNL     1      -3.086  -4.020  -1.505  0.00  0.00    +0.280 C 
ENDBRANCH  26   6
ENDBRANCH  22  26
ENDBRANCH  16  18
ENDBRANCH  12   8
BRANCH  13   3
ATOM      3  O   UNL     1       4.444   0.342  -0.108  0.00  0.00    -0.442 OA
BRANCH   3  17
ATOM      5  O   UNL     1       4.365  -1.870  -0.722  0.00  0.00    -0.226 OA
ATOM      9  N   UNL     1       5.882  -1.114   0.861  0.00  0.00    -0.281 N 
ATOM     17  C   UNL     1       4.856  -0.970  -0.049  0.00  0.00    +0.401 C 
ATOM     29  H   UNL     1       6.196  -0.287   1.361  0.00  0.00    +0.152 HD
BRANCH   9  21
ATOM     21  C   UNL     1       6.529  -2.373   1.149  0.00  0.00    +0.104 C 
ATOM     25  C   UNL     1       5.706  -3.215   2.102  0.00  0.00    +0.024 C 
ENDBRANCH   9  21
ENDBRANCH   3  17
ENDBRANCH  13   3
TORSDOF 7
