REMARK  Name = 45361564
REMARK  11 active torsions:
REMARK  status: ('A' for Active; 'I' for Inactive)
REMARK    1  A    between atoms: O_1  and  C_10
REMARK    2  A    between atoms: N_4  and  C_14
REMARK    3  A    between atoms: N_5  and  C_24
REMARK    4  A    between atoms: C_7  and  C_17
REMARK    5  A    between atoms: C_9  and  C_19
REMARK    6  A    between atoms: C_13  and  C_18
REMARK    7  A    between atoms: C_18  and  C_20
REMARK    8  A    between atoms: C_18  and  C_21
REMARK    9  A    between atoms: C_22  and  C_23
REMARK   10  A    between atoms: C_24  and  C_25
REMARK   11  A    between atoms: C_24  and  C_26
REMARK                            x       y       z     vdW  Elec       q    Type
REMARK                         _______ _______ _______ _____ _____    ______ ____
ROOT
ATOM      7  C   UNL     1       0.599   1.604   0.521  0.00  0.00    -0.027 C 
ATOM      8  C   UNL     1       0.467   0.129   0.016  0.00  0.00    +0.028 C 
ATOM      9  C   UNL     1      -0.980  -0.425   0.280  0.00  0.00    +0.012 C 
ATOM     10  C   UNL     1       1.629  -0.756   0.552  0.00  0.00    +0.122 C 
ATOM     11  C   UNL     1       1.995   2.155   0.145  0.00  0.00    +0.007 C 
ATOM     12  C   UNL     1      -0.459   2.478  -0.192  0.00  0.00    +0.009 C 
ATOM     13  C   UNL     1       3.021  -0.147   0.264  0.00  0.00    +0.029 C 
ATOM     14  C   UNL     1      -2.039   0.503  -0.379  0.00  0.00    +0.076 C 
ATOM     15  C   UNL     1       3.135   1.313   0.701  0.00  0.00    +0.007 C 
ATOM     16  C   UNL     1      -1.882   1.974   0.006  0.00  0.00    +0.023 C 
ATOM     17  C   UNL     1       0.412   1.726   2.055  0.00  0.00    +0.011 C 
ATOM     19  C   UNL     1      -1.188  -1.865  -0.219  0.00  0.00    +0.010 C 
ENDROOT
BRANCH  14   4
ATOM      3  O   UNL     1      -4.359   0.772  -2.049  0.00  0.00    -0.270 OA
ATOM      4  N   UNL     1      -3.389   0.087  -0.058  0.00  0.00    -0.308 N 
ATOM     22  C   UNL     1      -4.445   0.262  -0.936  0.00  0.00    +0.244 C 
ATOM     31  H   UNL     1      -3.555  -0.240   0.888  0.00  0.00    +0.149 HD
BRANCH  22  23
ATOM      6  N   UNL     1      -8.268  -1.048   0.476  0.00  0.00    -0.263 NA
ATOM     23  C   UNL     1      -5.772  -0.194  -0.447  0.00  0.00    +0.040 A 
ATOM     27  C   UNL     1      -6.934   0.397  -0.930  0.00  0.00    +0.033 A 
ATOM     28  C   UNL     1      -5.857  -1.212   0.496  0.00  0.00    +0.033 A 
ATOM     29  C   UNL     1      -8.147  -0.062  -0.441  0.00  0.00    +0.111 A 
ATOM     30  C   UNL     1      -7.117  -1.599   0.922  0.00  0.00    +0.111 A 
ENDBRANCH  22  23
ENDBRANCH  14   4
BRANCH  10   1
ATOM      1  O   UNL     1       1.598  -2.028  -0.097  0.00  0.00    -0.391 OA
ATOM     32  H   UNL     1       1.699  -1.882  -1.053  0.00  0.00    +0.210 HD
ENDBRANCH  10   1
BRANCH  13  18
ATOM     18  C   UNL     1       4.145  -0.966   0.912  0.00  0.00    +0.077 C 
ATOM     20  C   UNL     1       3.947  -1.025   2.422  0.00  0.00    +0.017 C 
BRANCH  18  21
ATOM      2  O   UNL     1       6.058   0.482   1.248  0.00  0.00    -0.276 OA
ATOM      5  N   UNL     1       6.012  -0.877  -0.631  0.00  0.00    -0.313 N 
ATOM     21  C   UNL     1       5.500  -0.364   0.552  0.00  0.00    +0.216 C 
ATOM     33  H   UNL     1       5.447  -1.523  -1.175  0.00  0.00    +0.149 HD
BRANCH   5  24
ATOM     24  C   UNL     1       7.281  -0.460  -1.179  0.00  0.00    +0.067 C 
ATOM     25  C   UNL     1       7.943  -1.608  -1.931  0.00  0.00    +0.027 C 
ATOM     26  C   UNL     1       7.096   0.755  -2.080  0.00  0.00    +0.027 C 
ENDBRANCH   5  24
ENDBRANCH  18  21
ENDBRANCH  13  18
TORSDOF 6
