REMARK  Name = 11912792
REMARK  8 active torsions:
REMARK  status: ('A' for Active; 'I' for Inactive)
REMARK    1  A    between atoms: O_4  and  C_28
REMARK    2  A    between atoms: O_6  and  C_34
REMARK    3  A    between atoms: O_6  and  C_35
REMARK    4  A    between atoms: N_7  and  C_13
REMARK    5  A    between atoms: N_8  and  C_14
REMARK    6  A    between atoms: C_17  and  C_19
REMARK    7  A    between atoms: C_20  and  C_28
REMARK    8  A    between atoms: C_21  and  C_27
REMARK                            x       y       z     vdW  Elec       q    Type
REMARK                         _______ _______ _______ _____ _____    ______ ____
ROOT
ATOM      1  O   UNL     1      -0.179   0.533   2.345  0.00  0.00    -0.370 OA
ATOM      2  O   UNL     1      -1.458   3.294   1.652  0.00  0.00    -0.370 OA
ATOM     11  C   UNL     1      -1.611   1.973   1.106  0.00  0.00    +0.171 C 
ATOM     12  C   UNL     1      -0.248   1.310   1.138  0.00  0.00    +0.171 C 
ATOM     13  C   UNL     1      -2.456   1.120   2.025  0.00  0.00    +0.130 C 
ATOM     14  C   UNL     1       0.723   2.465   1.202  0.00  0.00    +0.130 C 
ATOM     15  C   UNL     1      -1.437   0.618   3.032  0.00  0.00    +0.185 C 
ATOM     16  C   UNL     1      -0.071   3.527   1.941  0.00  0.00    +0.185 C 
ENDROOT
BRANCH  14   8
ATOM      8  N   UNL     1       1.043   2.919  -0.133  0.00  0.00    -0.306 N 
ATOM      9  N   UNL     1       2.739   1.317  -0.390  0.00  0.00    -0.214 NA
ATOM     10  N   UNL     1       2.230   2.875  -2.157  0.00  0.00    -0.223 NA
ATOM     18  C   UNL     1       2.033   2.354  -0.917  0.00  0.00    +0.216 A 
ATOM     21  C   UNL     1       3.696   0.791  -1.181  0.00  0.00    +0.076 A 
ATOM     23  C   UNL     1       3.203   2.300  -2.894  0.00  0.00    +0.116 A 
ATOM     24  C   UNL     1       3.976   1.245  -2.454  0.00  0.00    +0.048 A 
ATOM     37  H   UNL     1       0.489   3.655  -0.555  0.00  0.00    +0.149 HD
BRANCH  21  27
ATOM     27  C   UNL     1       4.432  -0.309  -0.603  0.00  0.00    +0.001 A 
ATOM     30  C   UNL     1       5.761  -0.532  -0.969  0.00  0.00    +0.013 A 
ATOM     31  C   UNL     1       3.817  -1.153   0.323  0.00  0.00    +0.013 A 
ATOM     32  C   UNL     1       6.472  -1.595  -0.411  0.00  0.00    +0.046 A 
ATOM     33  C   UNL     1       4.527  -2.216   0.881  0.00  0.00    +0.046 A 
ATOM     34  C   UNL     1       5.855  -2.437   0.514  0.00  0.00    +0.120 A 
BRANCH  34   6
ATOM      6  O   UNL     1       6.547  -3.475   1.057  0.00  0.00    -0.495 OA
ATOM     35  C   UNL     1       5.856  -4.296   1.997  0.00  0.00    +0.277 C 
ENDBRANCH  34   6
ENDBRANCH  21  27
ENDBRANCH  14   8
BRANCH  13   7
ATOM      3  O   UNL     1      -5.088   1.074   0.877  0.00  0.00    -0.270 OA
ATOM      7  N   UNL     1      -3.065   0.025   1.308  0.00  0.00    -0.304 N 
ATOM     17  C   UNL     1      -4.349   0.097   0.787  0.00  0.00    +0.245 C 
ATOM     36  H   UNL     1      -2.516  -0.815   1.150  0.00  0.00    +0.149 HD
BRANCH  17  19
ATOM     19  C   UNL     1      -4.841  -1.124   0.099  0.00  0.00    +0.051 A 
ATOM     20  C   UNL     1      -4.630  -1.293  -1.255  0.00  0.00    +0.071 A 
ATOM     22  C   UNL     1      -5.506  -2.065   0.860  0.00  0.00    +0.014 A 
ATOM     25  C   UNL     1      -5.103  -2.450  -1.873  0.00  0.00    +0.016 A 
ATOM     26  C   UNL     1      -5.979  -3.223   0.242  0.00  0.00    +0.001 A 
ATOM     29  C   UNL     1      -5.777  -3.415  -1.125  0.00  0.00    +0.001 A 
BRANCH  20  28
ATOM      5  O   UNL     1      -3.916   0.912  -1.850  0.00  0.00    -0.245 OA
ATOM     28  C   UNL     1      -3.929  -0.303  -2.063  0.00  0.00    +0.338 C 
BRANCH  28   4
ATOM      4  O   UNL     1      -3.268  -0.865  -3.110  0.00  0.00    -0.477 OA
ATOM     38  H   UNL     1      -2.799  -0.193  -3.649  0.00  0.00    +0.295 HD
ENDBRANCH  28   4
ENDBRANCH  20  28
ENDBRANCH  17  19
ENDBRANCH  13   7
TORSDOF 7
