REMARK  Name = 11883092
REMARK  10 active torsions:
REMARK  status: ('A' for Active; 'I' for Inactive)
REMARK    1  A    between atoms: O_2  and  C_15
REMARK    2  A    between atoms: O_3  and  C_20
REMARK    3  A    between atoms: N_9  and  C_31
REMARK    4  A    between atoms: C_10  and  C_18
REMARK    5  A    between atoms: C_12  and  C_20
REMARK    6  A    between atoms: C_12  and  C_21
REMARK    7  A    between atoms: C_13  and  C_23
REMARK    8  A    between atoms: C_23  and  C_24
REMARK    9  A    between atoms: C_26  and  C_27
REMARK   10  A    between atoms: C_31  and  C_32
REMARK                            x       y       z     vdW  Elec       q    Type
REMARK                         _______ _______ _______ _____ _____    ______ ____
ROOT
ATOM      1  S   UNL     1      -0.323   3.128  -0.054  0.00  0.00    -0.057 S 
ATOM      5  O   UNL     1       3.604   0.670  -0.416  0.00  0.00    -0.275 OA
ATOM      7  N   UNL     1       0.664   0.741  -0.207  0.00  0.00    -0.229 NA
ATOM      8  N   UNL     1       2.232   2.571  -0.250  0.00  0.00    -0.264 N 
ATOM     10  C   UNL     1      -2.890  -0.627   0.395  0.00  0.00    -0.019 C 
ATOM     11  C   UNL     1      -3.576   0.618  -0.323  0.00  0.00    +0.011 C 
ATOM     12  C   UNL     1      -5.152   0.686  -0.288  0.00  0.00    +0.021 C 
ATOM     13  C   UNL     1      -1.384  -0.729  -0.129  0.00  0.00    +0.054 C 
ATOM     14  C   UNL     1      -3.636  -1.927  -0.004  0.00  0.00    +0.010 C 
ATOM     15  C   UNL     1      -5.733  -0.706  -0.666  0.00  0.00    +0.123 C 
ATOM     16  C   UNL     1      -2.882   1.954   0.070  0.00  0.00    +0.049 C 
ATOM     17  C   UNL     1      -5.147  -1.846   0.158  0.00  0.00    +0.032 C 
ATOM     18  C   UNL     1      -2.892  -0.507   1.938  0.00  0.00    +0.012 C 
ATOM     19  C   UNL     1      -0.709   0.618  -0.106  0.00  0.00    +0.058 A 
ATOM     21  C   UNL     1      -5.639   1.699  -1.363  0.00  0.00    +0.016 C 
ATOM     22  C   UNL     1      -1.401   1.810  -0.034  0.00  0.00    +0.015 A 
ATOM     25  C   UNL     1       0.981   2.018  -0.183  0.00  0.00    +0.165 A 
ATOM     27  C   UNL     1       3.459   1.894  -0.361  0.00  0.00    +0.222 C 
ATOM     38  H   UNL     1       2.255   3.587  -0.215  0.00  0.00    +0.157 HD
ENDROOT
BRANCH  27  26
ATOM     26  C   UNL     1       4.675   2.843  -0.406  0.00  0.00    +0.075 C 
ATOM     28  C   UNL     1       6.077   2.206  -0.306  0.00  0.00    +0.013 C 
ATOM     29  C   UNL     1       5.019   3.618   0.883  0.00  0.00    +0.013 C 
ATOM     30  C   UNL     1       6.503   3.455   0.493  0.00  0.00    +0.001 C 
ENDBRANCH  27  26
BRANCH  15   2
ATOM      2  O   UNL     1      -7.152  -0.715  -0.519  0.00  0.00    -0.391 OA
ATOM     36  H   UNL     1      -7.474  -1.585  -0.810  0.00  0.00    +0.210 HD
ENDBRANCH  15   2
BRANCH  12  20
ATOM     20  C   UNL     1      -5.742   1.184   1.050  0.00  0.00    +0.165 C 
BRANCH  20   3
ATOM      3  O   UNL     1      -7.146   1.200   0.923  0.00  0.00    -0.394 OA
ATOM     37  H   UNL     1      -7.509   1.524   1.765  0.00  0.00    +0.209 HD
ENDBRANCH  20   3
ENDBRANCH  12  20
BRANCH  13  23
ATOM     23  C   UNL     1      -0.534  -1.795   0.577  0.00  0.00    +0.106 C 
BRANCH  23  24
ATOM      4  O   UNL     1       0.782  -1.909  -1.450  0.00  0.00    -0.276 OA
ATOM      9  N   UNL     1       1.346  -3.253   0.361  0.00  0.00    -0.308 N 
ATOM     24  C   UNL     1       0.586  -2.300  -0.302  0.00  0.00    +0.214 C 
ATOM     39  H   UNL     1       1.110  -3.497   1.319  0.00  0.00    +0.149 HD
BRANCH   9  31
ATOM     31  C   UNL     1       2.484  -3.912  -0.238  0.00  0.00    +0.178 C 
BRANCH  31  32
ATOM      6  O   UNL     1       4.424  -2.658  -0.986  0.00  0.00    -0.466 OA
ATOM     32  C   UNL     1       3.731  -3.144   0.077  0.00  0.00    +0.122 A 
ATOM     33  C   UNL     1       4.357  -2.809   1.255  0.00  0.00    +0.046 A 
ATOM     34  C   UNL     1       5.508  -2.070   0.893  0.00  0.00    +0.041 A 
ATOM     35  C   UNL     1       5.504  -2.005  -0.481  0.00  0.00    +0.195 A 
ENDBRANCH  31  32
ENDBRANCH   9  31
ENDBRANCH  23  24
ENDBRANCH  13  23
TORSDOF 8
