REMARK  Name = 51136752
REMARK  11 active torsions:
REMARK  status: ('A' for Active; 'I' for Inactive)
REMARK    1  A    between atoms: O_1  and  C_17
REMARK    2  A    between atoms: N_6  and  C_29
REMARK    3  A    between atoms: C_7  and  C_11
REMARK    4  A    between atoms: C_8  and  C_13
REMARK    5  A    between atoms: C_11  and  C_14
REMARK    6  A    between atoms: C_13  and  C_17
REMARK    7  A    between atoms: C_22  and  C_23
REMARK    8  A    between atoms: C_23  and  C_26
REMARK    9  A    between atoms: C_23  and  C_27
REMARK   10  A    between atoms: C_23  and  C_28
REMARK   11  A    between atoms: C_29  and  C_30
REMARK                            x       y       z     vdW  Elec       q    Type
REMARK                         _______ _______ _______ _____ _____    ______ ____
ROOT
ATOM      2  O   UNL     1       5.290   0.276  -0.788  0.00  0.00    -0.253 OA
ATOM      4  N   UNL     1       3.419   0.696   0.516  0.00  0.00    -0.285 N 
ATOM      6  N   UNL     1       4.150  -1.511   0.086  0.00  0.00    -0.300 N 
ATOM      7  C   UNL     1       0.952   0.782   0.742  0.00  0.00    +0.016 C 
ATOM      8  C   UNL     1       1.022   2.319   0.535  0.00  0.00    +0.006 C 
ATOM      9  C   UNL     1       2.277   2.732  -0.256  0.00  0.00    +0.023 C 
ATOM     10  C   UNL     1       2.277   0.282   1.343  0.00  0.00    +0.113 C 
ATOM     12  C   UNL     1       3.546   2.146   0.361  0.00  0.00    +0.109 C 
ATOM     16  C   UNL     1       4.352  -0.149  -0.106  0.00  0.00    +0.302 C 
ATOM     31  H   UNL     1       3.344  -1.862   0.583  0.00  0.00    +0.150 HD
ENDROOT
BRANCH   6  29
ATOM     29  C   UNL     1       5.021  -2.507  -0.496  0.00  0.00    +0.102 C 
ATOM     30  C   UNL     1       4.685  -2.753  -1.953  0.00  0.00    +0.024 C 
ENDBRANCH   6  29
BRANCH   7  11
ATOM     11  C   UNL     1       0.611  -0.004  -0.529  0.00  0.00    +0.061 C 
BRANCH  11  14
ATOM      5  N   UNL     1       0.921  -2.335  -0.039  0.00  0.00    -0.287 NA
ATOM     14  C   UNL     1       0.074  -1.366  -0.161  0.00  0.00    +0.044 C 
ATOM     15  C   UNL     1      -1.387  -1.527   0.049  0.00  0.00    -0.001 A 
ATOM     18  C   UNL     1      -1.803  -2.666   0.751  0.00  0.00    -0.037 A 
ATOM     19  C   UNL     1      -0.762  -3.624   1.248  0.00  0.00    +0.059 C 
ATOM     20  C   UNL     1       0.394  -3.671   0.258  0.00  0.00    +0.146 C 
ATOM     21  C   UNL     1      -2.322  -0.596  -0.407  0.00  0.00    +0.014 A 
ATOM     22  C   UNL     1      -3.679  -0.801  -0.150  0.00  0.00    -0.041 A 
ATOM     24  C   UNL     1      -3.162  -2.854   1.017  0.00  0.00    +0.004 A 
ATOM     25  C   UNL     1      -4.097  -1.925   0.562  0.00  0.00    +0.004 A 
BRANCH  22  23
ATOM     23  C   UNL     1      -4.685   0.187  -0.635  0.00  0.00    -0.013 C 
ATOM     26  C   UNL     1      -4.103   1.407  -1.423  0.00  0.00    +0.015 C 
ATOM     27  C   UNL     1      -5.712  -0.479  -1.602  0.00  0.00    +0.015 C 
ATOM     28  C   UNL     1      -5.488   0.804   0.552  0.00  0.00    +0.015 C 
ENDBRANCH  22  23
ENDBRANCH  11  14
ENDBRANCH   7  11
BRANCH   8  13
ATOM     13  C   UNL     1      -0.237   2.895  -0.112  0.00  0.00    +0.124 C 
BRANCH  13  17
ATOM      3  O   UNL     1       0.363   5.052   0.851  0.00  0.00    -0.251 OA
ATOM     17  C   UNL     1      -0.393   4.360   0.186  0.00  0.00    +0.305 C 
BRANCH  17   1
ATOM      1  O   UNL     1      -1.524   4.829  -0.402  0.00  0.00    -0.481 OA
ATOM     32  H   UNL     1      -1.657   5.785  -0.227  0.00  0.00    +0.295 HD
ENDBRANCH  17   1
ENDBRANCH  13  17
ENDBRANCH   8  13
TORSDOF 7
