REMARK  Name = 45783280
REMARK  8 active torsions:
REMARK  status: ('A' for Active; 'I' for Inactive)
REMARK    1  A    between atoms: O_2  and  C_27
REMARK    2  A    between atoms: O_2  and  C_28
REMARK    3  A    between atoms: N_3  and  C_13
REMARK    4  A    between atoms: N_7  and  C_26
REMARK    5  A    between atoms: C_9  and  C_14
REMARK    6  A    between atoms: C_13  and  C_15
REMARK    7  A    between atoms: C_16  and  C_19
REMARK    8  A    between atoms: C_26  and  C_27
REMARK                            x       y       z     vdW  Elec       q    Type
REMARK                         _______ _______ _______ _____ _____    ______ ____
ROOT
ATOM      1  O   UNL     1      -2.618   2.228   0.120  0.00  0.00    -0.336 OA
ATOM      4  N   UNL     1      -1.070   0.694   0.637  0.00  0.00    -0.190 NA
ATOM      5  N   UNL     1      -1.377   2.821  -0.147  0.00  0.00    -0.056 NA
ATOM     14  C   UNL     1      -2.346   0.978   0.578  0.00  0.00    +0.245 A 
ATOM     16  C   UNL     1      -0.515   1.855   0.183  0.00  0.00    +0.202 A 
ENDROOT
BRANCH  16  19
ATOM      7  N   UNL     1       3.978   0.117   0.671  0.00  0.00    -0.327 N 
ATOM      8  N   UNL     1       3.675   2.334  -0.149  0.00  0.00    -0.240 NA
ATOM     19  C   UNL     1       0.906   2.018   0.071  0.00  0.00    +0.027 A 
ATOM     22  C   UNL     1       1.758   0.979   0.429  0.00  0.00    +0.055 A 
ATOM     23  C   UNL     1       1.437   3.215  -0.396  0.00  0.00    +0.031 A 
ATOM     24  C   UNL     1       3.122   1.185   0.301  0.00  0.00    +0.119 A 
ATOM     25  C   UNL     1       2.815   3.321  -0.487  0.00  0.00    +0.113 A 
ATOM     29  H   UNL     1       4.973   0.280   0.570  0.00  0.00    +0.148 HD
BRANCH   7  26
ATOM     26  C   UNL     1       3.486  -1.130   1.158  0.00  0.00    +0.131 C 
BRANCH  26  27
ATOM     27  C   UNL     1       4.646  -2.049   1.498  0.00  0.00    +0.178 C 
BRANCH  27   2
ATOM      2  O   UNL     1       5.407  -2.306   0.324  0.00  0.00    -0.381 OA
ATOM     28  C   UNL     1       6.504  -3.169   0.593  0.00  0.00    +0.194 C 
ENDBRANCH  27   2
ENDBRANCH  26  27
ENDBRANCH   7  26
ENDBRANCH  16  19
BRANCH  14   9
ATOM      3  N   UNL     1      -3.262  -1.325   0.803  0.00  0.00    -0.287 NA
ATOM      9  C   UNL     1      -3.539   0.119   0.942  0.00  0.00    +0.146 C 
ATOM     10  C   UNL     1      -3.973   0.295   2.409  0.00  0.00    +0.030 C 
ATOM     11  C   UNL     1      -3.968  -1.110   2.996  0.00  0.00    +0.017 C 
ATOM     12  C   UNL     1      -4.111  -2.005   1.782  0.00  0.00    +0.085 C 
BRANCH   3  13
ATOM     13  C   UNL     1      -3.477  -1.823  -0.549  0.00  0.00    +0.120 C 
BRANCH  13  15
ATOM      6  N   UNL     1      -0.167  -0.909  -3.139  0.00  0.00    -0.263 NA
ATOM     15  C   UNL     1      -2.318  -1.503  -1.456  0.00  0.00    -0.030 A 
ATOM     17  C   UNL     1      -2.520  -0.750  -2.607  0.00  0.00    +0.024 A 
ATOM     18  C   UNL     1      -1.042  -1.960  -1.145  0.00  0.00    +0.024 A 
ATOM     20  C   UNL     1      -1.421  -0.483  -3.408  0.00  0.00    +0.111 A 
ATOM     21  C   UNL     1      -0.010  -1.638  -2.011  0.00  0.00    +0.111 A 
ENDBRANCH  13  15
ENDBRANCH   3  13
ENDBRANCH  14   9
TORSDOF 7
