REMARK  Name = 75536842
REMARK  7 active torsions:
REMARK  status: ('A' for Active; 'I' for Inactive)
REMARK    1  A    between atoms: O_2  and  C_9
REMARK    2  A    between atoms: N_4  and  C_8
REMARK    3  A    between atoms: N_4  and  C_13
REMARK    4  A    between atoms: N_5  and  C_12
REMARK    5  A    between atoms: N_6  and  C_20
REMARK    6  A    between atoms: C_10  and  C_12
REMARK    7  A    between atoms: C_13  and  C_14
REMARK                            x       y       z     vdW  Elec       q    Type
REMARK                         _______ _______ _______ _____ _____    ______ ____
ROOT
ATOM      1  O   UNL     1      -0.164  -1.249   0.035  0.00  0.00    -0.371 OA
ATOM      8  C   UNL     1      -2.110   0.093  -0.197  0.00  0.00    +0.111 C 
ATOM      9  C   UNL     1      -1.196   0.722   0.838  0.00  0.00    +0.164 C 
ATOM     10  C   UNL     1       0.139   0.085   0.477  0.00  0.00    +0.165 C 
ATOM     11  C   UNL     1      -1.572  -1.327  -0.251  0.00  0.00    +0.181 C 
ENDROOT
BRANCH   9   2
ATOM      2  O   UNL     1      -1.151   2.132   0.743  0.00  0.00    -0.388 OA
ATOM     27  H   UNL     1      -0.879   2.369  -0.161  0.00  0.00    +0.210 HD
ENDBRANCH   9   2
BRANCH   8   4
ATOM      4  N   UNL     1      -3.519   0.151   0.156  0.00  0.00    -0.305 NA
ATOM     26  H   UNL     1      -3.740   1.090   0.490  0.00  0.00    +0.123 HD
BRANCH   4  13
ATOM     13  C   UNL     1      -4.362  -0.149  -0.996  0.00  0.00    +0.116 C 
BRANCH  13  14
ATOM      7  N   UNL     1      -8.543  -0.036   0.006  0.00  0.00    -0.263 NA
ATOM     14  C   UNL     1      -5.825  -0.110  -0.645  0.00  0.00    -0.031 A 
ATOM     16  C   UNL     1      -6.404  -1.161   0.057  0.00  0.00    +0.024 A 
ATOM     17  C   UNL     1      -6.604   0.979  -1.022  0.00  0.00    +0.024 A 
ATOM     18  C   UNL     1      -7.754  -1.077   0.355  0.00  0.00    +0.111 A 
ATOM     19  C   UNL     1      -7.946   0.967  -0.675  0.00  0.00    +0.111 A 
ENDBRANCH  13  14
ENDBRANCH   4  13
ENDBRANCH   8   4
BRANCH  10  12
ATOM     12  C   UNL     1       1.113   0.032   1.640  0.00  0.00    +0.140 C 
BRANCH  12   5
ATOM      3  O   UNL     1       3.420   1.360   0.581  0.00  0.00    -0.253 OA
ATOM      5  N   UNL     1       2.353  -0.579   1.254  0.00  0.00    -0.297 N 
ATOM      6  N   UNL     1       4.510  -0.715   0.456  0.00  0.00    -0.269 N 
ATOM     15  C   UNL     1       3.443   0.142   0.741  0.00  0.00    +0.304 C 
ATOM     28  H   UNL     1       2.440  -1.586   1.346  0.00  0.00    +0.150 HD
ATOM     29  H   UNL     1       4.365  -1.703   0.647  0.00  0.00    +0.156 HD
BRANCH   6  20
ATOM     20  C   UNL     1       5.778  -0.377  -0.072  0.00  0.00    +0.035 A 
ATOM     21  C   UNL     1       6.728  -1.373  -0.296  0.00  0.00    +0.023 A 
ATOM     22  C   UNL     1       6.078   0.953  -0.369  0.00  0.00    +0.023 A 
ATOM     23  C   UNL     1       7.979  -1.040  -0.816  0.00  0.00    +0.002 A 
ATOM     24  C   UNL     1       7.329   1.286  -0.889  0.00  0.00    +0.002 A 
ATOM     25  C   UNL     1       8.279   0.290  -1.112  0.00  0.00    +0.000 A 
ENDBRANCH   6  20
ENDBRANCH  12   5
ENDBRANCH  10  12
TORSDOF 7
