REMARK  Name = 7113923
REMARK  7 active torsions:
REMARK  status: ('A' for Active; 'I' for Inactive)
REMARK    1  A    between atoms: S_1  and  N_13
REMARK    2  A    between atoms: S_1  and  C_30
REMARK    3  A    between atoms: O_9  and  C_35
REMARK    4  A    between atoms: N_13  and  C_24
REMARK    5  A    between atoms: C_23  and  C_26
REMARK    6  A    between atoms: C_29  and  C_35
REMARK    7  A    between atoms: C_36  and  C_39
REMARK                            x       y       z     vdW  Elec       q    Type
REMARK                         _______ _______ _______ _____ _____    ______ ____
ROOT
ATOM      5  O   UNL     1       0.326   3.840  -0.992  0.00  0.00    -0.266 OA
ATOM      6  O   UNL     1       3.069  -0.271  -2.549  0.00  0.00    -0.270 OA
ATOM     11  N   UNL     1       3.821   0.315  -0.412  0.00  0.00    -0.297 N 
ATOM     12  N   UNL     1       1.882   2.708   0.345  0.00  0.00    -0.310 N 
ATOM     14  C   UNL     1       4.399   2.720  -0.128  0.00  0.00    +0.027 C 
ATOM     15  C   UNL     1       3.518   1.439   1.782  0.00  0.00    +0.054 C 
ATOM     16  C   UNL     1       4.538   2.501   1.375  0.00  0.00    +0.018 C 
ATOM     17  C   UNL     1       4.667   1.409  -0.889  0.00  0.00    +0.113 C 
ATOM     18  C   UNL     1       3.001   3.280  -0.417  0.00  0.00    +0.130 C 
ATOM     19  C   UNL     1       3.826   0.119   1.047  0.00  0.00    +0.117 C 
ATOM     20  C   UNL     1       2.104   1.886   1.458  0.00  0.00    +0.027 A 
ATOM     21  C   UNL     1       1.073   1.465   2.212  0.00  0.00    +0.024 A 
ATOM     22  C   UNL     1       0.585   3.109  -0.037  0.00  0.00    +0.274 A 
ATOM     23  C   UNL     1       3.077  -0.430  -1.329  0.00  0.00    +0.247 C 
ATOM     24  C   UNL     1      -0.513   2.592   0.818  0.00  0.00    +0.112 A 
ATOM     25  C   UNL     1      -0.280   1.826   1.884  0.00  0.00    +0.031 A 
ENDROOT
BRANCH  23  26
ATOM     26  C   UNL     1       2.207  -1.490  -0.808  0.00  0.00    +0.038 A 
ATOM     27  C   UNL     1       2.703  -2.782  -0.655  0.00  0.00    +0.028 A 
ATOM     28  C   UNL     1       0.888  -1.197  -0.469  0.00  0.00    +0.013 A 
ATOM     29  C   UNL     1       1.874  -3.789  -0.160  0.00  0.00    +0.060 A 
ATOM     31  C   UNL     1       0.060  -2.204   0.026  0.00  0.00    +0.002 A 
ATOM     32  C   UNL     1       0.553  -3.500   0.181  0.00  0.00    +0.015 A 
BRANCH  29  35
ATOM     10  O   UNL     1       3.536  -5.506  -0.267  0.00  0.00    -0.245 OA
ATOM     35  C   UNL     1       2.388  -5.140   0.002  0.00  0.00    +0.337 C 
BRANCH  35   9
ATOM      9  O   UNL     1       1.452  -5.996   0.496  0.00  0.00    -0.477 OA
ATOM     41  H   UNL     1       1.808  -6.904   0.602  0.00  0.00    +0.295 HD
ENDBRANCH  35   9
ENDBRANCH  29  35
ENDBRANCH  23  26
BRANCH  24  13
ATOM     13  N   UNL     1      -1.850   2.913   0.524  0.00  0.00    -0.211 N 
ATOM     40  H   UNL     1      -2.486   2.743   1.317  0.00  0.00    +0.174 HD
BRANCH  13   1
ATOM      1  S   UNL     1      -2.450   2.415  -0.978  0.00  0.00    +0.073 S 
ATOM      7  O   UNL     1      -3.035   3.547  -1.671  0.00  0.00    -0.150 OA
ATOM      8  O   UNL     1      -1.468   1.580  -1.644  0.00  0.00    -0.150 OA
BRANCH   1  30
ATOM     30  C   UNL     1      -3.779   1.364  -0.470  0.00  0.00    +0.109 A 
ATOM     33  C   UNL     1      -3.533   0.018  -0.264  0.00  0.00    +0.041 A 
ATOM     34  C   UNL     1      -5.037   1.908  -0.289  0.00  0.00    +0.029 A 
ATOM     36  C   UNL     1      -4.581  -0.811   0.136  0.00  0.00    +0.057 A 
ATOM     37  C   UNL     1      -6.086   1.079   0.111  0.00  0.00    +0.002 A 
ATOM     38  C   UNL     1      -5.857  -0.280   0.324  0.00  0.00    +0.012 A 
BRANCH  36  39
ATOM      2  F   UNL     1      -5.451  -2.953   0.752  0.00  0.00    -0.166 F 
ATOM      3  F   UNL     1      -3.880  -2.922  -0.743  0.00  0.00    -0.166 F 
ATOM      4  F   UNL     1      -3.407  -2.495   1.336  0.00  0.00    -0.166 F 
ATOM     39  C   UNL     1      -4.337  -2.265   0.364  0.00  0.00    +0.417 C 
ENDBRANCH  36  39
ENDBRANCH   1  30
ENDBRANCH  13   1
ENDBRANCH  24  13
TORSDOF 7
