REMARK  Name = 75537120
REMARK  3 active torsions:
REMARK  status: ('A' for Active; 'I' for Inactive)
REMARK    1  A    between atoms: N_2  and  C_6
REMARK    2  A    between atoms: N_4  and  C_17
REMARK    3  A    between atoms: C_17  and  C_18
REMARK                            x       y       z     vdW  Elec       q    Type
REMARK                         _______ _______ _______ _____ _____    ______ ____
ROOT
ATOM      1  O   UNL     1       2.227   2.604  -0.087  0.00  0.00    -0.252 OA
ATOM      2  N   UNL     1       2.650   0.286  -0.182  0.00  0.00    -0.281 N 
ATOM      3  N   UNL     1       0.523   1.000  -0.286  0.00  0.00    -0.278 N 
ATOM      4  N   UNL     1      -1.926  -0.300   0.186  0.00  0.00    -0.295 NA
ATOM      5  C   UNL     1       0.436  -0.430  -0.494  0.00  0.00    +0.109 C 
ATOM      7  C   UNL     1       1.849  -0.927  -0.193  0.00  0.00    +0.133 C 
ATOM      8  C   UNL     1      -0.658  -1.030   0.389  0.00  0.00    +0.109 C 
ATOM     11  C   UNL     1       1.847   1.445  -0.178  0.00  0.00    +0.305 C 
ATOM     12  C   UNL     1      -0.687   1.795  -0.315  0.00  0.00    +0.125 C 
ATOM     13  C   UNL     1      -1.773   1.127   0.532  0.00  0.00    +0.104 C 
ENDROOT
BRANCH   2   6
ATOM      6  C   UNL     1       4.085   0.253  -0.037  0.00  0.00    +0.078 C 
ATOM      9  C   UNL     1       4.485  -0.526   1.219  0.00  0.00    +0.022 C 
ATOM     10  C   UNL     1       4.737  -0.337  -1.290  0.00  0.00    +0.022 C 
ATOM     14  C   UNL     1       6.002  -0.620   1.362  0.00  0.00    +0.002 C 
ATOM     15  C   UNL     1       6.253  -0.433  -1.143  0.00  0.00    +0.002 C 
ATOM     16  C   UNL     1       6.650  -1.206   0.111  0.00  0.00    +0.000 C 
ENDBRANCH   2   6
BRANCH   4  17
ATOM     17  C   UNL     1      -2.994  -0.906   0.981  0.00  0.00    +0.119 C 
BRANCH  17  18
ATOM     18  C   UNL     1      -4.356  -0.591   0.422  0.00  0.00    -0.033 A 
ATOM     19  C   UNL     1      -5.039   0.548   0.849  0.00  0.00    +0.005 A 
ATOM     20  C   UNL     1      -4.935  -1.438  -0.522  0.00  0.00    +0.005 A 
ATOM     21  C   UNL     1      -6.301   0.839   0.331  0.00  0.00    +0.000 A 
ATOM     22  C   UNL     1      -6.197  -1.147  -1.040  0.00  0.00    +0.000 A 
ATOM     23  C   UNL     1      -6.880  -0.008  -0.614  0.00  0.00    +0.000 A 
ENDBRANCH  17  18
ENDBRANCH   4  17
TORSDOF 3
