REMARK  Name = 75367755
REMARK  4 active torsions:
REMARK  status: ('A' for Active; 'I' for Inactive)
REMARK    1  A    between atoms: O_2  and  C_6
REMARK    2  A    between atoms: N_3  and  C_8
REMARK    3  A    between atoms: C_8  and  C_11
REMARK    4  A    between atoms: C_14  and  C_17
REMARK                            x       y       z     vdW  Elec       q    Type
REMARK                         _______ _______ _______ _____ _____    ______ ____
ROOT
ATOM      1  O   UNL     1       3.269  -0.415  -1.814  0.00  0.00    -0.376 OA
ATOM      3  N   UNL     1       1.220   0.470   0.364  0.00  0.00    -0.293 NA
ATOM      5  C   UNL     1       2.367   0.183   1.233  0.00  0.00    +0.118 C 
ATOM      6  C   UNL     1       3.682  -0.249   0.566  0.00  0.00    +0.154 C 
ATOM      7  C   UNL     1       1.568   1.125  -0.897  0.00  0.00    +0.113 C 
ATOM      9  C   UNL     1       3.505  -1.173  -0.632  0.00  0.00    +0.192 C 
ATOM     10  C   UNL     1       1.942   0.076  -1.944  0.00  0.00    +0.175 C 
ENDROOT
BRANCH   6   2
ATOM      2  O   UNL     1       4.469  -0.937   1.539  0.00  0.00    -0.388 OA
ATOM     18  H   UNL     1       4.609  -0.329   2.285  0.00  0.00    +0.210 HD
ENDBRANCH   6   2
BRANCH   3   8
ATOM      8  C   UNL     1       0.208   1.228   1.101  0.00  0.00    +0.119 C 
BRANCH   8  11
ATOM     11  C   UNL     1      -1.177   0.979   0.567  0.00  0.00    -0.032 A 
ATOM     12  C   UNL     1      -1.697  -0.315   0.546  0.00  0.00    +0.023 A 
ATOM     13  C   UNL     1      -1.942   2.046   0.093  0.00  0.00    +0.005 A 
ATOM     14  C   UNL     1      -2.981  -0.543   0.052  0.00  0.00    +0.052 A 
ATOM     15  C   UNL     1      -3.227   1.817  -0.400  0.00  0.00    +0.002 A 
ATOM     16  C   UNL     1      -3.746   0.523  -0.421  0.00  0.00    +0.019 A 
BRANCH  14  17
ATOM      4  N   UNL     1      -3.948  -2.945   0.014  0.00  0.00    -0.191 NA
ATOM     17  C   UNL     1      -3.514  -1.869   0.031  0.00  0.00    +0.099 C 
ENDBRANCH  14  17
ENDBRANCH   8  11
ENDBRANCH   3   8
TORSDOF 4
