REMARK  Name = 7134361
REMARK  10 active torsions:
REMARK  status: ('A' for Active; 'I' for Inactive)
REMARK    1  A    between atoms: N_7  and  C_13
REMARK    2  A    between atoms: N_8  and  C_21
REMARK    3  A    between atoms: N_9  and  C_30
REMARK    4  A    between atoms: C_14  and  C_18
REMARK    5  A    between atoms: C_19  and  C_20
REMARK    6  A    between atoms: C_21  and  C_23
REMARK    7  A    between atoms: C_21  and  C_26
REMARK    8  A    between atoms: C_22  and  C_25
REMARK    9  A    between atoms: C_23  and  C_28
REMARK   10  A    between atoms: C_31  and  C_34
REMARK                            x       y       z     vdW  Elec       q    Type
REMARK                         _______ _______ _______ _____ _____    ______ ____
ROOT
ATOM      3  O   UNL     1       4.167   0.464   1.818  0.00  0.00    -0.268 OA
ATOM      6  N   UNL     1       2.344   1.022   0.492  0.00  0.00    -0.285 N 
ATOM     13  C   UNL     1      -0.563   1.145   0.184  0.00  0.00    +0.077 C 
ATOM     14  C   UNL     1       1.514  -0.031   1.091  0.00  0.00    +0.164 C 
ATOM     15  C   UNL     1       0.072   0.396   1.358  0.00  0.00    +0.054 C 
ATOM     16  C   UNL     1       0.340   2.298  -0.247  0.00  0.00    +0.041 C 
ATOM     17  C   UNL     1       1.738   1.805  -0.599  0.00  0.00    +0.111 C 
ATOM     19  C   UNL     1       3.694   1.136   0.900  0.00  0.00    +0.264 C 
ENDROOT
BRANCH  19  20
ATOM      9  N   UNL     1       5.274   1.798  -0.925  0.00  0.00    -0.346 N 
ATOM     20  C   UNL     1       4.535   2.093   0.188  0.00  0.00    +0.104 A 
ATOM     24  C   UNL     1       4.736   3.419   0.493  0.00  0.00    +0.032 A 
ATOM     27  C   UNL     1       5.945   2.918  -1.339  0.00  0.00    +0.086 A 
ATOM     29  C   UNL     1       5.629   3.943  -0.474  0.00  0.00    +0.020 A 
ATOM     30  C   UNL     1       5.347   0.509  -1.579  0.00  0.00    +0.149 C 
ENDBRANCH  19  20
BRANCH  14  18
ATOM      2  O   UNL     1       2.215  -1.166  -0.891  0.00  0.00    -0.274 OA
ATOM      8  N   UNL     1       0.886  -2.301   0.648  0.00  0.00    -0.302 N 
ATOM     18  C   UNL     1       1.595  -1.212   0.169  0.00  0.00    +0.234 C 
ATOM     39  H   UNL     1       0.528  -2.274   1.598  0.00  0.00    +0.150 HD
BRANCH   8  21
ATOM     21  C   UNL     1       0.786  -3.554  -0.064  0.00  0.00    +0.163 C 
BRANCH  21  26
ATOM      5  O   UNL     1       2.501  -4.376   1.449  0.00  0.00    -0.274 OA
ATOM     10  N   UNL     1       2.435  -5.207  -0.691  0.00  0.00    -0.328 N 
ATOM     26  C   UNL     1       1.996  -4.390   0.330  0.00  0.00    +0.231 C 
ATOM     40  H   UNL     1       3.227  -5.827  -0.557  0.00  0.00    +0.145 HD
ATOM     41  H   UNL     1       1.993  -5.224  -1.605  0.00  0.00    +0.145 HD
ENDBRANCH  21  26
BRANCH  21  23
ATOM     23  C   UNL     1      -0.510  -4.305   0.262  0.00  0.00    +0.067 C 
BRANCH  23  28
ATOM     28  C   UNL     1      -1.747  -3.510  -0.081  0.00  0.00    -0.045 A 
ATOM     32  C   UNL     1      -2.302  -2.672   0.873  0.00  0.00    +0.004 A 
ATOM     33  C   UNL     1      -2.305  -3.633  -1.344  0.00  0.00    +0.004 A 
ATOM     35  C   UNL     1      -3.445  -1.937   0.556  0.00  0.00    +0.000 A 
ATOM     36  C   UNL     1      -3.447  -2.898  -1.661  0.00  0.00    +0.000 A 
ATOM     37  C   UNL     1      -4.017  -2.050  -0.711  0.00  0.00    +0.000 A 
ENDBRANCH  23  28
ENDBRANCH  21  23
ENDBRANCH   8  21
ENDBRANCH  14  18
BRANCH  13   7
ATOM      4  O   UNL     1      -2.732   1.462  -1.591  0.00  0.00    -0.270 OA
ATOM      7  N   UNL     1      -1.878   1.626   0.535  0.00  0.00    -0.308 N 
ATOM     22  C   UNL     1      -2.899   1.755  -0.405  0.00  0.00    +0.254 C 
ATOM     38  H   UNL     1      -2.048   1.915   1.495  0.00  0.00    +0.149 HD
BRANCH  22  25
ATOM      1  S   UNL     1      -4.358   2.578   1.758  0.00  0.00    +0.041 S 
ATOM     11  N   UNL     1      -6.374   2.903   0.306  0.00  0.00    -0.146 NA
ATOM     12  N   UNL     1      -5.964   3.011   1.560  0.00  0.00    -0.110 NA
ATOM     25  C   UNL     1      -4.191   2.227   0.112  0.00  0.00    +0.117 A 
ATOM     31  C   UNL     1      -5.359   2.454  -0.523  0.00  0.00    +0.081 A 
ATOM     34  C   UNL     1      -5.658   2.280  -1.959  0.00  0.00    +0.069 C 
ENDBRANCH  22  25
ENDBRANCH  13   7
TORSDOF 8
