REMARK  Name = 7144188
REMARK  4 active torsions:
REMARK  status: ('A' for Active; 'I' for Inactive)
REMARK    1  A    between atoms: O_6  and  C_30
REMARK    2  A    between atoms: O_6  and  C_33
REMARK    3  A    between atoms: C_18  and  C_23
REMARK    4  A    between atoms: C_20  and  C_24
REMARK                            x       y       z     vdW  Elec       q    Type
REMARK                         _______ _______ _______ _____ _____    ______ ____
ROOT
ATOM      4  O   UNL     1       3.972   2.562  -1.810  0.00  0.00    -0.268 OA
ATOM      5  O   UNL     1       4.308  -1.605   1.067  0.00  0.00    -0.268 OA
ATOM      7  N   UNL     1       2.315   1.925  -0.282  0.00  0.00    -0.311 N 
ATOM      8  N   UNL     1       2.386  -0.473   1.771  0.00  0.00    -0.295 N 
ATOM     11  C   UNL     1       2.748   1.935   2.248  0.00  0.00    +0.027 C 
ATOM     12  C   UNL     1       0.575   1.182   1.373  0.00  0.00    +0.054 C 
ATOM     13  C   UNL     1       1.244   2.142   2.356  0.00  0.00    +0.018 C 
ATOM     14  C   UNL     1       3.189   2.319   0.834  0.00  0.00    +0.130 C 
ATOM     15  C   UNL     1       3.122   0.484   2.594  0.00  0.00    +0.113 C 
ATOM     16  C   UNL     1       0.930  -0.273   1.749  0.00  0.00    +0.117 C 
ATOM     17  C   UNL     1       0.999   1.468  -0.070  0.00  0.00    +0.034 A 
ATOM     18  C   UNL     1       0.174   1.265  -1.130  0.00  0.00    +0.002 A 
ATOM     19  C   UNL     1       2.837   2.151  -1.568  0.00  0.00    +0.252 A 
ATOM     20  C   UNL     1       3.089  -1.440   1.046  0.00  0.00    +0.266 C 
ATOM     21  C   UNL     1       0.679   1.483  -2.472  0.00  0.00    +0.015 A 
ATOM     22  C   UNL     1       1.929   1.883  -2.706  0.00  0.00    +0.071 A 
ENDROOT
BRANCH  20  24
ATOM      9  N   UNL     1       2.158  -1.917  -1.102  0.00  0.00    -0.247 NA
ATOM     10  N   UNL     1       1.131  -4.357  -0.176  0.00  0.00    -0.259 NA
ATOM     24  C   UNL     1       2.330  -2.334   0.164  0.00  0.00    +0.144 A 
ATOM     27  C   UNL     1       1.830  -3.528   0.624  0.00  0.00    +0.143 A 
ATOM     31  C   UNL     1       1.460  -2.746  -1.902  0.00  0.00    +0.131 A 
ATOM     32  C   UNL     1       0.955  -3.945  -1.447  0.00  0.00    +0.130 A 
ENDBRANCH  20  24
BRANCH  18  23
ATOM     23  C   UNL     1      -1.222   0.809  -0.954  0.00  0.00    -0.016 A 
ATOM     25  C   UNL     1      -1.505  -0.553  -0.919  0.00  0.00    +0.012 A 
ATOM     26  C   UNL     1      -2.243   1.745  -0.825  0.00  0.00    +0.012 A 
ATOM     28  C   UNL     1      -2.822  -0.983  -0.754  0.00  0.00    +0.046 A 
ATOM     29  C   UNL     1      -3.560   1.316  -0.660  0.00  0.00    +0.046 A 
ATOM     30  C   UNL     1      -3.849  -0.048  -0.624  0.00  0.00    +0.130 A 
BRANCH  30   6
ATOM      6  O   UNL     1      -5.134  -0.468  -0.463  0.00  0.00    -0.406 OA
BRANCH   6  33
ATOM      1  F   UNL     1      -6.707  -1.053   1.046  0.00  0.00    -0.133 F 
ATOM      2  F   UNL     1      -4.973   0.074   1.753  0.00  0.00    -0.133 F 
ATOM      3  F   UNL     1      -6.521   1.060   0.522  0.00  0.00    -0.133 F 
ATOM     33  C   UNL     1      -5.826  -0.080   0.718  0.00  0.00    +0.575 C 
ENDBRANCH   6  33
ENDBRANCH  30   6
ENDBRANCH  18  23
TORSDOF 4
