REMARK  Name = 25389088
REMARK  8 active torsions:
REMARK  status: ('A' for Active; 'I' for Inactive)
REMARK    1  A    between atoms: N_3  and  C_23
REMARK    2  A    between atoms: N_4  and  C_15
REMARK    3  A    between atoms: N_6  and  C_25
REMARK    4  A    between atoms: C_8  and  C_14
REMARK    5  A    between atoms: C_9  and  C_15
REMARK    6  A    between atoms: C_17  and  C_18
REMARK    7  A    between atoms: C_25  and  C_26
REMARK    8  A    between atoms: C_25  and  C_27
REMARK                            x       y       z     vdW  Elec       q    Type
REMARK                         _______ _______ _______ _____ _____    ______ ____
ROOT
ATOM      2  N   UNL     1      -0.818  -2.900   0.577  0.00  0.00    -0.297 NA
ATOM      7  C   UNL     1       0.436  -1.972  -1.509  0.00  0.00    +0.002 C 
ATOM      8  C   UNL     1       1.424  -2.179  -0.328  0.00  0.00    +0.055 C 
ATOM      9  C   UNL     1      -1.534  -1.713   0.039  0.00  0.00    +0.074 C 
ATOM     10  C   UNL     1      -0.701  -1.027  -1.064  0.00  0.00    +0.024 C 
ATOM     11  C   UNL     1       0.577  -2.536   0.927  0.00  0.00    +0.094 C 
ATOM     12  C   UNL     1      -0.205  -3.346  -1.799  0.00  0.00    +0.019 C 
ATOM     13  C   UNL     1      -0.774  -3.926  -0.492  0.00  0.00    +0.085 C 
ENDROOT
BRANCH   8  14
ATOM      3  N   UNL     1       3.676  -1.335   0.484  0.00  0.00    -0.271 N 
ATOM      5  N   UNL     1       4.426  -0.234   0.657  0.00  0.00    -0.176 NA
ATOM     14  C   UNL     1       2.443  -1.085  -0.044  0.00  0.00    +0.044 A 
ATOM     16  C   UNL     1       2.383   0.275  -0.229  0.00  0.00    +0.048 A 
ATOM     18  C   UNL     1       3.631   0.747   0.220  0.00  0.00    +0.066 A 
ATOM     23  C   UNL     1       4.216  -2.622   0.856  0.00  0.00    +0.172 C 
BRANCH  18  17
ATOM     17  C   UNL     1       4.120   2.178   0.248  0.00  0.00    +0.040 C 
ATOM     19  C   UNL     1       4.167   2.811  -1.154  0.00  0.00    +0.010 C 
ATOM     20  C   UNL     1       3.262   3.130   1.107  0.00  0.00    +0.010 C 
ATOM     21  C   UNL     1       3.781   4.266  -0.934  0.00  0.00    +0.001 C 
ATOM     22  C   UNL     1       2.716   4.179   0.145  0.00  0.00    +0.001 C 
ENDBRANCH  18  17
ENDBRANCH   8  14
BRANCH   9  15
ATOM     15  C   UNL     1      -1.941  -0.730   1.140  0.00  0.00    +0.124 C 
BRANCH  15   4
ATOM      1  O   UNL     1      -4.813  -0.650   0.869  0.00  0.00    -0.253 OA
ATOM      4  N   UNL     1      -2.727   0.339   0.604  0.00  0.00    -0.298 N 
ATOM      6  N   UNL     1      -4.632   1.472  -0.051  0.00  0.00    -0.297 N 
ATOM     24  C   UNL     1      -4.123   0.302   0.506  0.00  0.00    +0.300 C 
ATOM     28  H   UNL     1      -2.246   1.169   0.272  0.00  0.00    +0.150 HD
ATOM     29  H   UNL     1      -3.987   2.232  -0.249  0.00  0.00    +0.150 HD
BRANCH   6  25
ATOM     25  C   UNL     1      -6.043   1.689  -0.263  0.00  0.00    +0.068 C 
ATOM     26  C   UNL     1      -6.267   2.565  -1.489  0.00  0.00    +0.027 C 
ATOM     27  C   UNL     1      -6.682   2.303   0.977  0.00  0.00    +0.027 C 
ENDBRANCH   6  25
ENDBRANCH  15   4
ENDBRANCH   9  15
TORSDOF 5
