REMARK  Name = 7049409
REMARK  12 active torsions:
REMARK  status: ('A' for Active; 'I' for Inactive)
REMARK    1  A    between atoms: O_4  and  C_28
REMARK    2  A    between atoms: O_4  and  C_34
REMARK    3  A    between atoms: N_7  and  C_11
REMARK    4  A    between atoms: N_8  and  C_15
REMARK    5  A    between atoms: N_9  and  C_24
REMARK    6  A    between atoms: N_10  and  C_33
REMARK    7  A    between atoms: C_12  and  C_18
REMARK    8  A    between atoms: C_22  and  C_25
REMARK    9  A    between atoms: C_24  and  C_26
REMARK   10  A    between atoms: C_24  and  C_28
REMARK   11  A    between atoms: C_26  and  C_29
REMARK   12  A    between atoms: C_26  and  C_30
REMARK                            x       y       z     vdW  Elec       q    Type
REMARK                         _______ _______ _______ _____ _____    ______ ____
ROOT
ATOM      2  O   UNL     1       3.942  -0.890  -0.203  0.00  0.00    -0.268 OA
ATOM      6  N   UNL     1       2.338   0.379   0.864  0.00  0.00    -0.283 N 
ATOM     11  C   UNL     1       0.411   1.287   1.925  0.00  0.00    +0.094 C 
ATOM     12  C   UNL     1       1.574  -0.757   1.359  0.00  0.00    +0.164 C 
ATOM     13  C   UNL     1       0.589  -0.168   2.366  0.00  0.00    +0.056 C 
ATOM     14  C   UNL     1       1.767   1.647   1.326  0.00  0.00    +0.131 C 
ATOM     22  C   UNL     1       3.529   0.215   0.150  0.00  0.00    +0.264 C 
ENDROOT
BRANCH  11   7
ATOM      3  O   UNL     1      -2.340   1.897   2.496  0.00  0.00    -0.253 OA
ATOM      7  N   UNL     1      -0.653   1.445   0.967  0.00  0.00    -0.295 N 
ATOM      8  N   UNL     1      -2.794   1.841   0.219  0.00  0.00    -0.297 N 
ATOM     23  C   UNL     1      -1.965   1.743   1.334  0.00  0.00    +0.300 C 
ATOM     35  H   UNL     1      -0.457   1.267  -0.014  0.00  0.00    +0.151 HD
ATOM     36  H   UNL     1      -2.367   1.766  -0.698  0.00  0.00    +0.151 HD
BRANCH   8  15
ATOM     15  C   UNL     1      -4.206   2.141   0.307  0.00  0.00    +0.074 C 
ATOM     16  C   UNL     1      -4.986   1.454  -0.818  0.00  0.00    +0.022 C 
ATOM     17  C   UNL     1      -4.449   3.654   0.307  0.00  0.00    +0.022 C 
ATOM     19  C   UNL     1      -4.728   2.091  -2.183  0.00  0.00    +0.002 C 
ATOM     20  C   UNL     1      -4.191   4.288  -1.060  0.00  0.00    +0.002 C 
ATOM     21  C   UNL     1      -4.987   3.594  -2.161  0.00  0.00    +0.000 C 
ENDBRANCH   8  15
ENDBRANCH  11   7
BRANCH  22  25
ATOM     10  N   UNL     1       4.544   1.833  -1.470  0.00  0.00    -0.346 N 
ATOM     25  C   UNL     1       4.254   1.432  -0.192  0.00  0.00    +0.104 A 
ATOM     27  C   UNL     1       4.767   2.374   0.672  0.00  0.00    +0.032 A 
ATOM     31  C   UNL     1       5.234   3.016  -1.435  0.00  0.00    +0.086 A 
ATOM     32  C   UNL     1       5.388   3.376  -0.115  0.00  0.00    +0.020 A 
ATOM     33  C   UNL     1       4.184   1.128  -2.681  0.00  0.00    +0.149 C 
ENDBRANCH  22  25
BRANCH  12  18
ATOM      1  O   UNL     1       0.968  -0.975  -0.941  0.00  0.00    -0.274 OA
ATOM      9  N   UNL     1       0.083  -2.477   0.604  0.00  0.00    -0.301 N 
ATOM     18  C   UNL     1       0.861  -1.400   0.207  0.00  0.00    +0.234 C 
ATOM     37  H   UNL     1       0.124  -2.783   1.571  0.00  0.00    +0.150 HD
BRANCH   9  24
ATOM     24  C   UNL     1      -0.720  -3.252  -0.310  0.00  0.00    +0.184 C 
BRANCH  24  26
ATOM     26  C   UNL     1      -2.223  -3.207   0.042  0.00  0.00    +0.014 C 
ATOM     29  C   UNL     1      -2.783  -1.783   0.124  0.00  0.00    +0.009 C 
ATOM     30  C   UNL     1      -2.510  -3.958   1.345  0.00  0.00    +0.009 C 
ENDBRANCH  24  26
BRANCH  24  28
ATOM      5  O   UNL     1       0.688  -5.128   0.280  0.00  0.00    -0.249 OA
ATOM     28  C   UNL     1      -0.219  -4.688  -0.419  0.00  0.00    +0.328 C 
BRANCH  28   4
ATOM      4  O   UNL     1      -0.890  -5.397  -1.369  0.00  0.00    -0.467 OA
ATOM     34  C   UNL     1      -0.477  -6.758  -1.537  0.00  0.00    +0.280 C 
ENDBRANCH  28   4
ENDBRANCH  24  28
ENDBRANCH   9  24
ENDBRANCH  12  18
TORSDOF 8
