REMARK  Name = 40777920
REMARK  11 active torsions:
REMARK  status: ('A' for Active; 'I' for Inactive)
REMARK    1  A    between atoms: O_2  and  C_9
REMARK    2  A    between atoms: O_3  and  C_10
REMARK    3  A    between atoms: N_6  and  C_13
REMARK    4  A    between atoms: N_7  and  C_18
REMARK    5  A    between atoms: N_8  and  C_17
REMARK    6  A    between atoms: C_11  and  C_13
REMARK    7  A    between atoms: C_12  and  C_14
REMARK    8  A    between atoms: C_14  and  C_15
REMARK    9  A    between atoms: C_17  and  C_19
REMARK   10  A    between atoms: C_17  and  C_20
REMARK   11  A    between atoms: C_18  and  C_21
REMARK                            x       y       z     vdW  Elec       q    Type
REMARK                         _______ _______ _______ _____ _____    ______ ____
ROOT
ATOM      1  O   UNL     1      -1.427   0.316  -0.605  0.00  0.00    -0.366 OA
ATOM      9  C   UNL     1      -3.595   1.113  -0.035  0.00  0.00    +0.176 C 
ATOM     10  C   UNL     1      -3.332  -0.192   0.688  0.00  0.00    +0.175 C 
ATOM     11  C   UNL     1      -2.189   1.535  -0.449  0.00  0.00    +0.167 C 
ATOM     12  C   UNL     1      -2.227  -0.795  -0.163  0.00  0.00    +0.158 C 
ENDROOT
BRANCH   9   2
ATOM      2  O   UNL     1      -4.353   0.878  -1.221  0.00  0.00    -0.387 OA
ATOM     23  H   UNL     1      -4.464   1.734  -1.669  0.00  0.00    +0.210 HD
ENDBRANCH   9   2
BRANCH  10   3
ATOM      3  O   UNL     1      -4.465  -1.031   0.756  0.00  0.00    -0.387 OA
ATOM     24  H   UNL     1      -5.167  -0.536   1.212  0.00  0.00    +0.210 HD
ENDBRANCH  10   3
BRANCH  11  13
ATOM     13  C   UNL     1      -1.491   2.389   0.600  0.00  0.00    +0.140 C 
BRANCH  13   6
ATOM      5  O   UNL     1       0.959   0.937   1.064  0.00  0.00    -0.253 OA
ATOM      6  N   UNL     1      -0.174   2.760   0.174  0.00  0.00    -0.297 N 
ATOM      8  N   UNL     1       2.114   2.588  -0.088  0.00  0.00    -0.297 N 
ATOM     16  C   UNL     1       0.968   1.998   0.440  0.00  0.00    +0.300 C 
ATOM     25  H   UNL     1      -0.066   3.618  -0.359  0.00  0.00    +0.150 HD
ATOM     27  H   UNL     1       2.009   3.425  -0.653  0.00  0.00    +0.150 HD
BRANCH   8  17
ATOM     17  C   UNL     1       3.428   2.004   0.046  0.00  0.00    +0.068 C 
ATOM     19  C   UNL     1       4.488   3.095   0.115  0.00  0.00    +0.027 C 
ATOM     20  C   UNL     1       3.704   1.038  -1.100  0.00  0.00    +0.027 C 
ENDBRANCH   8  17
ENDBRANCH  13   6
ENDBRANCH  11  13
BRANCH  12  14
ATOM     14  C   UNL     1      -1.357  -1.784   0.592  0.00  0.00    +0.130 C 
BRANCH  14  15
ATOM      4  O   UNL     1       0.017  -1.930  -1.396  0.00  0.00    -0.276 OA
ATOM      7  N   UNL     1       0.563  -3.224   0.452  0.00  0.00    -0.304 N 
ATOM     15  C   UNL     1      -0.201  -2.298  -0.245  0.00  0.00    +0.216 C 
ATOM     26  H   UNL     1       0.315  -3.454   1.410  0.00  0.00    +0.150 HD
BRANCH   7  18
ATOM     18  C   UNL     1       1.715  -3.860  -0.120  0.00  0.00    +0.193 C 
BRANCH  18  21
ATOM     21  C   UNL     1       2.929  -3.086   0.142  0.00  0.00    -0.087 C 
ATOM     22  C   UNL     1       3.926  -2.453   0.354  0.00  0.00    +0.005 C 
ENDBRANCH  18  21
ENDBRANCH   7  18
ENDBRANCH  14  15
ENDBRANCH  12  14
TORSDOF 9
