REMARK  Name = 56775446
REMARK  9 active torsions:
REMARK  status: ('A' for Active; 'I' for Inactive)
REMARK    1  A    between atoms: N_3  and  C_7
REMARK    2  A    between atoms: N_3  and  C_12
REMARK    3  A    between atoms: N_5  and  C_16
REMARK    4  A    between atoms: N_5  and  C_20
REMARK    5  A    between atoms: N_5  and  C_21
REMARK    6  A    between atoms: C_7  and  C_10
REMARK    7  A    between atoms: C_10  and  C_11
REMARK    8  A    between atoms: C_12  and  C_14
REMARK    9  A    between atoms: C_15  and  C_16
REMARK                            x       y       z     vdW  Elec       q    Type
REMARK                         _______ _______ _______ _____ _____    ______ ____
ROOT
ATOM      1  O   UNL     1      -0.875  -3.611   0.628  0.00  0.00    -0.376 OA
ATOM      7  C   UNL     1      -0.552  -1.677  -0.216  0.00  0.00    +0.072 C 
ATOM      8  C   UNL     1       0.002  -2.505   0.939  0.00  0.00    +0.184 C 
ATOM      9  C   UNL     1      -1.376  -2.919  -0.538  0.00  0.00    +0.184 C 
ENDROOT
BRANCH   7   3
ATOM      3  N   UNL     1      -1.437  -0.654   0.323  0.00  0.00    -0.302 NA
ATOM     23  H   UNL     1      -0.975   0.058   0.888  0.00  0.00    +0.123 HD
BRANCH   3  12
ATOM     12  C   UNL     1      -2.172  -0.014  -0.765  0.00  0.00    +0.118 C 
BRANCH  12  14
ATOM      6  N   UNL     1      -4.742   2.544   0.323  0.00  0.00    -0.263 NA
ATOM     14  C   UNL     1      -3.471   0.581  -0.290  0.00  0.00    -0.015 A 
ATOM     17  C   UNL     1      -4.574  -0.225  -0.025  0.00  0.00    +0.008 A 
ATOM     18  C   UNL     1      -3.606   1.947  -0.102  0.00  0.00    +0.115 A 
ATOM     19  C   UNL     1      -5.760   0.353   0.413  0.00  0.00    +0.020 A 
ATOM     22  C   UNL     1      -5.792   1.729   0.570  0.00  0.00    +0.111 A 
ENDBRANCH  12  14
ENDBRANCH   3  12
ENDBRANCH   7   3
BRANCH   7  10
ATOM     10  C   UNL     1       0.417  -1.134  -1.274  0.00  0.00    +0.085 C 
BRANCH  10  11
ATOM      2  O   UNL     1       2.361   1.546   0.064  0.00  0.00    -0.358 OA
ATOM      4  N   UNL     1       1.217   1.042  -0.542  0.00  0.00    -0.083 NA
ATOM     11  C   UNL     1       1.440  -0.270  -0.664  0.00  0.00    +0.086 A 
ATOM     13  C   UNL     1       2.696  -0.647  -0.157  0.00  0.00    +0.072 A 
ATOM     15  C   UNL     1       3.234   0.531   0.289  0.00  0.00    +0.151 A 
BRANCH  15  16
ATOM     16  C   UNL     1       4.539   0.899   0.945  0.00  0.00    +0.161 C 
BRANCH  16   5
ATOM      5  N   UNL     1       5.687   0.533   0.117  0.00  0.00    -0.301 NA
ATOM     20  C   UNL     1       6.899   0.453   0.931  0.00  0.00    +0.105 C 
ATOM     21  C   UNL     1       5.863   1.498  -0.968  0.00  0.00    +0.105 C 
ENDBRANCH  16   5
ENDBRANCH  15  16
ENDBRANCH  10  11
ENDBRANCH   7  10
TORSDOF 7
