REMARK  Name = 44716356
REMARK  7 active torsions:
REMARK  status: ('A' for Active; 'I' for Inactive)
REMARK    1  A    between atoms: N_3  and  C_18
REMARK    2  A    between atoms: N_4  and  C_13
REMARK    3  A    between atoms: N_4  and  C_17
REMARK    4  A    between atoms: C_7  and  C_14
REMARK    5  A    between atoms: C_8  and  C_13
REMARK    6  A    between atoms: C_16  and  C_19
REMARK    7  A    between atoms: C_17  and  C_20
REMARK                            x       y       z     vdW  Elec       q    Type
REMARK                         _______ _______ _______ _____ _____    ______ ____
ROOT
ATOM      2  N   UNL     1      -4.778  -0.327   0.348  0.00  0.00    -0.298 NA
ATOM      6  C   UNL     1      -3.241  -1.001  -1.643  0.00  0.00    +0.002 C 
ATOM      7  C   UNL     1      -2.862  -1.803  -0.368  0.00  0.00    +0.055 C 
ATOM      8  C   UNL     1      -4.220   0.890  -0.298  0.00  0.00    +0.071 C 
ATOM      9  C   UNL     1      -3.149   0.510  -1.343  0.00  0.00    +0.024 C 
ATOM     10  C   UNL     1      -4.723  -1.315  -1.941  0.00  0.00    +0.019 C 
ATOM     11  C   UNL     1      -3.677  -1.206   0.815  0.00  0.00    +0.094 C 
ATOM     12  C   UNL     1      -5.559  -1.066  -0.673  0.00  0.00    +0.085 C 
ENDROOT
BRANCH   7  14
ATOM      3  N   UNL     1      -0.883  -3.047   0.621  0.00  0.00    -0.270 N 
ATOM      5  N   UNL     1       0.444  -2.993   0.825  0.00  0.00    -0.171 NA
ATOM     14  C   UNL     1      -1.386  -1.959  -0.030  0.00  0.00    +0.044 A 
ATOM     15  C   UNL     1      -0.313  -1.136  -0.269  0.00  0.00    +0.053 A 
ATOM     16  C   UNL     1       0.787  -1.823   0.278  0.00  0.00    +0.093 A 
ATOM     18  C   UNL     1      -1.623  -4.196   1.090  0.00  0.00    +0.172 C 
BRANCH  16  19
ATOM     19  C   UNL     1       2.158  -1.384   0.291  0.00  0.00    +0.003 A 
ATOM     21  C   UNL     1       2.638  -0.568  -0.734  0.00  0.00    +0.018 A 
ATOM     22  C   UNL     1       3.003  -1.772   1.327  0.00  0.00    +0.011 A 
ATOM     24  C   UNL     1       3.973  -0.130  -0.735  0.00  0.00    -0.017 A 
ATOM     25  C   UNL     1       4.332  -1.346   1.341  0.00  0.00    +0.009 A 
ATOM     26  C   UNL     1       4.832  -0.525   0.317  0.00  0.00    -0.018 A 
ATOM     29  C   UNL     1       4.473   0.691  -1.759  0.00  0.00    +0.008 A 
ATOM     30  C   UNL     1       6.166  -0.087   0.316  0.00  0.00    +0.008 A 
ATOM     31  C   UNL     1       5.801   1.117  -1.745  0.00  0.00    +0.001 A 
ATOM     32  C   UNL     1       6.646   0.729  -0.709  0.00  0.00    +0.001 A 
ENDBRANCH  16  19
ENDBRANCH   7  14
BRANCH   8  13
ATOM     13  C   UNL     1      -3.688   1.899   0.722  0.00  0.00    +0.100 C 
BRANCH  13   4
ATOM      4  N   UNL     1      -3.286   3.133   0.067  0.00  0.00    -0.308 NA
ATOM     33  H   UNL     1      -4.116   3.692  -0.128  0.00  0.00    +0.122 HD
BRANCH   4  17
ATOM     17  C   UNL     1      -2.362   3.892   0.900  0.00  0.00    +0.155 C 
BRANCH  17  20
ATOM      1  O   UNL     1      -0.394   3.318  -0.412  0.00  0.00    -0.467 OA
ATOM     20  C   UNL     1      -0.960   3.349   0.823  0.00  0.00    +0.119 A 
ATOM     23  C   UNL     1      -0.089   2.856   1.766  0.00  0.00    +0.046 A 
ATOM     27  C   UNL     1       1.088   2.499   1.066  0.00  0.00    +0.041 A 
ATOM     28  C   UNL     1       0.852   2.800  -0.255  0.00  0.00    +0.195 A 
ENDBRANCH  17  20
ENDBRANCH   4  17
ENDBRANCH  13   4
ENDBRANCH   8  13
TORSDOF 6
