REMARK  Name = 40779435
REMARK  8 active torsions:
REMARK  status: ('A' for Active; 'I' for Inactive)
REMARK    1  A    between atoms: N_3  and  C_11
REMARK    2  A    between atoms: C_5  and  C_11
REMARK    3  A    between atoms: C_6  and  C_12
REMARK    4  A    between atoms: C_14  and  C_15
REMARK    5  A    between atoms: C_15  and  C_16
REMARK    6  A    between atoms: C_16  and  C_17
REMARK    7  A    between atoms: C_16  and  C_18
REMARK    8  A    between atoms: C_16  and  C_19
REMARK                            x       y       z     vdW  Elec       q    Type
REMARK                         _______ _______ _______ _____ _____    ______ ____
ROOT
ATOM      2  N   UNL     1       2.169   1.286  -0.890  0.00  0.00    -0.297 NA
ATOM      4  C   UNL     1       2.994   0.001   1.214  0.00  0.00    -0.000 C 
ATOM      5  C   UNL     1       1.005   0.836  -0.081  0.00  0.00    +0.074 C 
ATOM      6  C   UNL     1       3.629  -0.585  -0.069  0.00  0.00    +0.028 C 
ATOM      7  C   UNL     1       1.459  -0.065   1.089  0.00  0.00    +0.024 C 
ATOM      8  C   UNL     1       3.389   1.489   1.278  0.00  0.00    +0.019 C 
ATOM      9  C   UNL     1       2.999   0.124  -1.292  0.00  0.00    +0.092 C 
ATOM     10  C   UNL     1       2.999   2.175  -0.042  0.00  0.00    +0.085 C 
ENDROOT
BRANCH   6  12
ATOM     12  C   UNL     1       3.494  -2.075  -0.158  0.00  0.00    -0.030 C 
ATOM     13  C   UNL     1       4.531  -2.919  -0.204  0.00  0.00    +0.004 C 
ENDBRANCH   6  12
BRANCH   5  11
ATOM     11  C   UNL     1      -0.071   0.160  -0.934  0.00  0.00    +0.123 C 
BRANCH  11   3
ATOM      1  O   UNL     1      -2.382   1.844  -0.477  0.00  0.00    -0.276 OA
ATOM      3  N   UNL     1      -1.226  -0.147  -0.149  0.00  0.00    -0.314 N 
ATOM     14  C   UNL     1      -2.300   0.723   0.021  0.00  0.00    +0.214 C 
ATOM     20  H   UNL     1      -1.256  -1.054   0.308  0.00  0.00    +0.149 HD
BRANCH  14  15
ATOM     15  C   UNL     1      -3.400   0.164   0.908  0.00  0.00    +0.102 C 
BRANCH  15  16
ATOM     16  C   UNL     1      -4.527  -0.579   0.151  0.00  0.00    -0.029 C 
ATOM     17  C   UNL     1      -5.600  -1.097   1.123  0.00  0.00    +0.011 C 
ATOM     18  C   UNL     1      -5.189   0.419  -0.819  0.00  0.00    +0.011 C 
ATOM     19  C   UNL     1      -3.973  -1.757  -0.668  0.00  0.00    +0.011 C 
ENDBRANCH  15  16
ENDBRANCH  14  15
ENDBRANCH  11   3
ENDBRANCH   5  11
TORSDOF 5
