REMARK  Name = 7143710
REMARK  5 active torsions:
REMARK  status: ('A' for Active; 'I' for Inactive)
REMARK    1  A    between atoms: O_3  and  C_20
REMARK    2  A    between atoms: O_3  and  C_28
REMARK    3  A    between atoms: C_15  and  C_18
REMARK    4  A    between atoms: C_16  and  C_19
REMARK    5  A    between atoms: C_18  and  C_20
REMARK                            x       y       z     vdW  Elec       q    Type
REMARK                         _______ _______ _______ _____ _____    ______ ____
ROOT
ATOM      1  O   UNL     1       0.368  -1.325  -1.875  0.00  0.00    -0.267 OA
ATOM      2  O   UNL     1      -3.553   2.253  -1.225  0.00  0.00    -0.276 OA
ATOM      4  N   UNL     1      -4.012   0.308  -0.040  0.00  0.00    -0.300 N 
ATOM      5  N   UNL     1      -1.466  -1.575  -0.456  0.00  0.00    -0.311 N 
ATOM      6  C   UNL     1      -3.860  -1.825  -1.331  0.00  0.00    +0.027 C 
ATOM      7  C   UNL     1      -3.438  -1.832   1.091  0.00  0.00    +0.054 C 
ATOM      8  C   UNL     1      -4.100  -2.607  -0.046  0.00  0.00    +0.018 C 
ATOM      9  C   UNL     1      -4.470  -0.416  -1.227  0.00  0.00    +0.113 C 
ATOM     10  C   UNL     1      -2.353  -1.781  -1.610  0.00  0.00    +0.130 C 
ATOM     11  C   UNL     1      -4.095  -0.444   1.221  0.00  0.00    +0.117 C 
ATOM     12  C   UNL     1      -1.948  -1.675   0.851  0.00  0.00    +0.027 A 
ATOM     13  C   UNL     1      -1.099  -1.604   1.889  0.00  0.00    +0.022 A 
ATOM     14  C   UNL     1      -0.099  -1.383  -0.736  0.00  0.00    +0.259 A 
ATOM     15  C   UNL     1      -3.616   1.640  -0.156  0.00  0.00    +0.218 C 
ATOM     16  C   UNL     1       0.823  -1.270   0.449  0.00  0.00    +0.047 A 
ATOM     17  C   UNL     1       0.305  -1.393   1.680  0.00  0.00    +0.015 A 
ENDROOT
BRANCH  16  19
ATOM     19  C   UNL     1       2.264  -1.022   0.273  0.00  0.00    -0.012 A 
ATOM     21  C   UNL     1       2.748   0.287   0.224  0.00  0.00    +0.017 A 
ATOM     22  C   UNL     1       3.146  -2.093   0.155  0.00  0.00    +0.009 A 
ATOM     23  C   UNL     1       4.120   0.539   0.057  0.00  0.00    -0.017 A 
ATOM     24  C   UNL     1       4.511  -1.861  -0.011  0.00  0.00    +0.009 A 
ATOM     25  C   UNL     1       5.014  -0.551  -0.062  0.00  0.00    -0.018 A 
ATOM     26  C   UNL     1       4.622   1.849   0.006  0.00  0.00    +0.008 A 
ATOM     27  C   UNL     1       6.386  -0.298  -0.229  0.00  0.00    +0.008 A 
ATOM     29  C   UNL     1       5.988   2.082  -0.160  0.00  0.00    +0.001 A 
ATOM     30  C   UNL     1       6.868   1.010  -0.278  0.00  0.00    +0.001 A 
ENDBRANCH  16  19
BRANCH  15  18
ATOM     18  C   UNL     1      -3.240   2.347   1.121  0.00  0.00    +0.124 C 
BRANCH  18  20
ATOM     20  C   UNL     1      -2.839   3.773   0.811  0.00  0.00    +0.168 C 
BRANCH  20   3
ATOM      3  O   UNL     1      -1.701   3.772  -0.042  0.00  0.00    -0.382 OA
ATOM     28  C   UNL     1      -1.277   5.094  -0.346  0.00  0.00    +0.194 C 
ENDBRANCH  20   3
ENDBRANCH  18  20
ENDBRANCH  15  18
TORSDOF 4
