REMARK  Name = 40779129
REMARK  9 active torsions:
REMARK  status: ('A' for Active; 'I' for Inactive)
REMARK    1  A    between atoms: O_1  and  C_16
REMARK    2  A    between atoms: O_1  and  C_20
REMARK    3  A    between atoms: N_5  and  C_19
REMARK    4  A    between atoms: N_7  and  C_23
REMARK    5  A    between atoms: C_9  and  C_15
REMARK    6  A    between atoms: C_10  and  C_16
REMARK    7  A    between atoms: C_18  and  C_21
REMARK    8  A    between atoms: C_23  and  C_26
REMARK    9  A    between atoms: C_23  and  C_27
REMARK                            x       y       z     vdW  Elec       q    Type
REMARK                         _______ _______ _______ _____ _____    ______ ____
ROOT
ATOM      4  N   UNL     1       0.864   3.303   0.633  0.00  0.00    -0.296 NA
ATOM      8  C   UNL     1      -0.441   2.504  -1.475  0.00  0.00    +0.002 C 
ATOM      9  C   UNL     1      -1.335   2.397  -0.209  0.00  0.00    +0.055 C 
ATOM     10  C   UNL     1       1.679   2.320  -0.128  0.00  0.00    +0.095 C 
ATOM     11  C   UNL     1       0.847   1.682  -1.260  0.00  0.00    +0.026 C 
ATOM     12  C   UNL     1      -0.019   3.984  -1.598  0.00  0.00    +0.019 C 
ATOM     13  C   UNL     1      -0.433   2.694   1.023  0.00  0.00    +0.094 C 
ATOM     14  C   UNL     1       0.585   4.451  -0.262  0.00  0.00    +0.085 C 
ENDROOT
BRANCH   9  15
ATOM      5  N   UNL     1      -3.370   1.129   0.625  0.00  0.00    -0.270 N 
ATOM      6  N   UNL     1      -3.947  -0.084   0.683  0.00  0.00    -0.168 NA
ATOM     15  C   UNL     1      -2.169   1.137  -0.023  0.00  0.00    +0.044 A 
ATOM     17  C   UNL     1      -1.945  -0.160  -0.415  0.00  0.00    +0.056 A 
ATOM     18  C   UNL     1      -3.072  -0.867   0.046  0.00  0.00    +0.128 A 
ATOM     19  C   UNL     1      -4.042   2.259   1.224  0.00  0.00    +0.172 C 
BRANCH  18  21
ATOM      2  O   UNL     1      -2.456  -3.155  -0.768  0.00  0.00    -0.461 OA
ATOM     21  C   UNL     1      -3.309  -2.311  -0.129  0.00  0.00    +0.155 A 
ATOM     22  C   UNL     1      -4.413  -2.993   0.326  0.00  0.00    +0.051 A 
ATOM     24  C   UNL     1      -4.228  -4.342  -0.058  0.00  0.00    +0.042 A 
ATOM     25  C   UNL     1      -3.023  -4.389  -0.720  0.00  0.00    +0.196 A 
ENDBRANCH  18  21
ENDBRANCH   9  15
BRANCH  10  16
ATOM     16  C   UNL     1       2.313   1.263   0.779  0.00  0.00    +0.252 C 
BRANCH  16   1
ATOM      1  O   UNL     1       3.153   0.443  -0.010  0.00  0.00    -0.449 OA
BRANCH   1  20
ATOM      3  O   UNL     1       3.707  -0.791   1.846  0.00  0.00    -0.226 OA
ATOM      7  N   UNL     1       4.590  -1.286  -0.242  0.00  0.00    -0.279 N 
ATOM     20  C   UNL     1       3.812  -0.571   0.644  0.00  0.00    +0.401 C 
ATOM     28  H   UNL     1       4.550  -1.026  -1.223  0.00  0.00    +0.152 HD
BRANCH   7  23
ATOM     23  C   UNL     1       5.406  -2.416   0.139  0.00  0.00    +0.070 C 
ATOM     26  C   UNL     1       6.648  -2.492  -0.738  0.00  0.00    +0.027 C 
ATOM     27  C   UNL     1       4.598  -3.706   0.066  0.00  0.00    +0.027 C 
ENDBRANCH   7  23
ENDBRANCH   1  20
ENDBRANCH  16   1
ENDBRANCH  10  16
TORSDOF 6
