REMARK  Name = 45361418
REMARK  14 active torsions:
REMARK  status: ('A' for Active; 'I' for Inactive)
REMARK    1  A    between atoms: O_1  and  C_10
REMARK    2  A    between atoms: N_5  and  C_14
REMARK    3  A    between atoms: N_6  and  C_25
REMARK    4  A    between atoms: C_7  and  C_17
REMARK    5  A    between atoms: C_9  and  C_19
REMARK    6  A    between atoms: C_13  and  C_18
REMARK    7  A    between atoms: C_18  and  C_20
REMARK    8  A    between atoms: C_18  and  C_21
REMARK    9  A    between atoms: C_22  and  C_23
REMARK   10  A    between atoms: C_23  and  C_24
REMARK   11  A    between atoms: C_24  and  C_26
REMARK   12  A    between atoms: C_24  and  C_27
REMARK   13  A    between atoms: C_24  and  C_28
REMARK   14  A    between atoms: C_25  and  C_29
REMARK                            x       y       z     vdW  Elec       q    Type
REMARK                         _______ _______ _______ _____ _____    ______ ____
ROOT
ATOM      7  C   UNL     1      -0.387   0.196   1.255  0.00  0.00    -0.027 C 
ATOM      8  C   UNL     1      -0.467  -0.397  -0.191  0.00  0.00    +0.028 C 
ATOM      9  C   UNL     1      -1.935  -0.841  -0.532  0.00  0.00    +0.012 C 
ATOM     10  C   UNL     1       0.628  -1.479  -0.418  0.00  0.00    +0.122 C 
ATOM     11  C   UNL     1       1.043   0.725   1.518  0.00  0.00    +0.007 C 
ATOM     12  C   UNL     1      -1.359   1.393   1.364  0.00  0.00    +0.009 C 
ATOM     13  C   UNL     1       2.045  -0.977  -0.054  0.00  0.00    +0.029 C 
ATOM     14  C   UNL     1      -2.914   0.352  -0.347  0.00  0.00    +0.076 C 
ATOM     15  C   UNL     1       2.114  -0.342   1.335  0.00  0.00    +0.007 C 
ATOM     16  C   UNL     1      -2.796   1.030   1.018  0.00  0.00    +0.023 C 
ATOM     17  C   UNL     1      -0.739  -0.848   2.346  0.00  0.00    +0.011 C 
ATOM     19  C   UNL     1      -2.091  -1.408  -1.953  0.00  0.00    +0.010 C 
ENDROOT
BRANCH  14   5
ATOM      3  O   UNL     1      -5.078   1.954  -1.417  0.00  0.00    -0.276 OA
ATOM      5  N   UNL     1      -4.292  -0.050  -0.542  0.00  0.00    -0.312 N 
ATOM     22  C   UNL     1      -5.259   0.790  -1.062  0.00  0.00    +0.214 C 
ATOM     33  H   UNL     1      -4.555  -0.985  -0.244  0.00  0.00    +0.149 HD
BRANCH  22  23
ATOM     23  C   UNL     1      -6.626   0.133  -1.157  0.00  0.00    +0.102 C 
BRANCH  23  24
ATOM     24  C   UNL     1      -7.492   0.255   0.119  0.00  0.00    -0.029 C 
ATOM     26  C   UNL     1      -7.729   1.725   0.501  0.00  0.00    +0.011 C 
ATOM     27  C   UNL     1      -8.848  -0.449  -0.062  0.00  0.00    +0.011 C 
ATOM     28  C   UNL     1      -6.737  -0.433   1.274  0.00  0.00    +0.011 C 
ENDBRANCH  23  24
ENDBRANCH  22  23
ENDBRANCH  14   5
BRANCH  10   1
ATOM      1  O   UNL     1       0.664  -1.838  -1.800  0.00  0.00    -0.391 OA
ATOM     34  H   UNL     1       0.869  -1.039  -2.314  0.00  0.00    +0.210 HD
ENDBRANCH  10   1
BRANCH  13  18
ATOM     18  C   UNL     1       3.090  -2.095  -0.160  0.00  0.00    +0.077 C 
ATOM     20  C   UNL     1       2.728  -3.241   0.779  0.00  0.00    +0.017 C 
BRANCH  18  21
ATOM      2  O   UNL     1       4.958  -1.542   1.279  0.00  0.00    -0.276 OA
ATOM      6  N   UNL     1       5.113  -1.043  -0.981  0.00  0.00    -0.308 N 
ATOM     21  C   UNL     1       4.477  -1.540   0.148  0.00  0.00    +0.217 C 
ATOM     35  H   UNL     1       4.628  -1.056  -1.874  0.00  0.00    +0.149 HD
BRANCH   6  25
ATOM     25  C   UNL     1       6.436  -0.464  -0.941  0.00  0.00    +0.178 C 
BRANCH  25  29
ATOM      4  O   UNL     1       5.826   1.363   0.542  0.00  0.00    -0.466 OA
ATOM     29  C   UNL     1       6.397   1.006  -0.639  0.00  0.00    +0.122 A 
ATOM     30  C   UNL     1       6.830   2.118  -1.323  0.00  0.00    +0.046 A 
ATOM     31  C   UNL     1       6.505   3.230  -0.509  0.00  0.00    +0.041 A 
ATOM     32  C   UNL     1       5.896   2.718   0.613  0.00  0.00    +0.195 A 
ENDBRANCH  25  29
ENDBRANCH   6  25
ENDBRANCH  18  21
ENDBRANCH  13  18
TORSDOF 8
