REMARK  Name = 45783812
REMARK  7 active torsions:
REMARK  status: ('A' for Active; 'I' for Inactive)
REMARK    1  A    between atoms: N_4  and  C_13
REMARK    2  A    between atoms: N_8  and  C_27
REMARK    3  A    between atoms: N_8  and  C_28
REMARK    4  A    between atoms: N_8  and  C_29
REMARK    5  A    between atoms: C_9  and  C_14
REMARK    6  A    between atoms: C_13  and  C_15
REMARK    7  A    between atoms: C_18  and  C_22
REMARK                            x       y       z     vdW  Elec       q    Type
REMARK                         _______ _______ _______ _____ _____    ______ ____
ROOT
ATOM      4  N   UNL     1      -3.708  -0.419  -0.806  0.00  0.00    -0.287 NA
ATOM      9  C   UNL     1      -3.413  -1.445   0.214  0.00  0.00    +0.146 C 
ATOM     10  C   UNL     1      -3.924  -2.763  -0.398  0.00  0.00    +0.030 C 
ATOM     11  C   UNL     1      -4.543  -2.368  -1.731  0.00  0.00    +0.017 C 
ATOM     12  C   UNL     1      -4.872  -0.900  -1.552  0.00  0.00    +0.085 C 
ENDROOT
BRANCH   9  14
ATOM      1  O   UNL     1      -1.643  -1.941   1.825  0.00  0.00    -0.336 OA
ATOM      5  N   UNL     1      -0.898  -1.179  -0.145  0.00  0.00    -0.190 NA
ATOM      6  N   UNL     1      -0.247  -1.903   1.925  0.00  0.00    -0.056 NA
ATOM     14  C   UNL     1      -1.943  -1.500   0.576  0.00  0.00    +0.245 A 
ATOM     18  C   UNL     1       0.119  -1.443   0.725  0.00  0.00    +0.204 A 
BRANCH  18  22
ATOM      7  N   UNL     1       3.828  -1.339   0.980  0.00  0.00    -0.240 NA
ATOM     22  C   UNL     1       1.492  -1.238   0.363  0.00  0.00    +0.041 A 
ATOM     24  C   UNL     1       1.837  -0.759  -0.895  0.00  0.00    +0.016 A 
ATOM     25  C   UNL     1       2.515  -1.510   1.257  0.00  0.00    +0.124 A 
ATOM     26  C   UNL     1       3.177  -0.569  -1.218  0.00  0.00    +0.044 A 
ATOM     27  C   UNL     1       4.125  -0.871  -0.254  0.00  0.00    +0.121 A 
BRANCH  27   8
ATOM      8  N   UNL     1       5.485  -0.674  -0.597  0.00  0.00    -0.321 N 
ATOM     28  C   UNL     1       6.527  -0.962   0.363  0.00  0.00    +0.130 C 
ATOM     29  C   UNL     1       5.840  -0.177  -1.908  0.00  0.00    +0.130 C 
ENDBRANCH  27   8
ENDBRANCH  18  22
ENDBRANCH   9  14
BRANCH   4  13
ATOM     13  C   UNL     1      -3.929   0.906  -0.241  0.00  0.00    +0.120 C 
BRANCH  13  15
ATOM      2  O   UNL     1       0.509   2.767  -1.395  0.00  0.00    -0.453 OA
ATOM      3  O   UNL     1       0.934   3.472   0.870  0.00  0.00    -0.453 OA
ATOM     15  C   UNL     1      -2.634   1.596   0.094  0.00  0.00    -0.030 A 
ATOM     16  C   UNL     1      -1.690   1.825  -0.911  0.00  0.00    +0.054 A 
ATOM     17  C   UNL     1      -2.385   2.007   1.415  0.00  0.00    +0.009 A 
ATOM     19  C   UNL     1      -0.519   2.462  -0.557  0.00  0.00    +0.167 A 
ATOM     20  C   UNL     1      -1.191   2.652   1.747  0.00  0.00    +0.050 A 
ATOM     21  C   UNL     1      -0.276   2.865   0.737  0.00  0.00    +0.166 A 
ATOM     23  C   UNL     1       1.426   3.407  -0.484  0.00  0.00    +0.466 C 
ENDBRANCH  13  15
ENDBRANCH   4  13
TORSDOF 5
