REMARK  Name = 75367637
REMARK  3 active torsions:
REMARK  status: ('A' for Active; 'I' for Inactive)
REMARK    1  A    between atoms: O_2  and  C_9
REMARK    2  A    between atoms: O_2  and  C_18
REMARK    3  A    between atoms: C_20  and  C_23
REMARK                            x       y       z     vdW  Elec       q    Type
REMARK                         _______ _______ _______ _____ _____    ______ ____
ROOT
ATOM      1  O   UNL     1       0.107  -3.662   0.478  0.00  0.00    -0.375 OA
ATOM      3  O   UNL     1       5.056   1.456   0.833  0.00  0.00    -0.377 OA
ATOM      4  O   UNL     1       0.928   1.002  -1.918  0.00  0.00    -0.252 OA
ATOM      5  N   UNL     1       0.924  -0.946  -0.667  0.00  0.00    -0.280 N 
ATOM      6  N   UNL     1       2.622   0.719  -0.384  0.00  0.00    -0.281 N 
ATOM      8  C   UNL     1      -0.425  -1.306  -1.123  0.00  0.00    +0.156 C 
ATOM      9  C   UNL     1      -1.330  -1.657   0.057  0.00  0.00    +0.218 C 
ATOM     10  C   UNL     1       1.766  -2.047  -0.173  0.00  0.00    +0.137 C 
ATOM     11  C   UNL     1       1.456   0.302  -1.044  0.00  0.00    +0.305 C 
ATOM     12  C   UNL     1      -1.199  -3.105   0.532  0.00  0.00    +0.206 C 
ATOM     13  C   UNL     1       3.577   1.573  -1.088  0.00  0.00    +0.137 C 
ATOM     14  C   UNL     1       2.747   0.775   1.077  0.00  0.00    +0.137 C 
ATOM     15  C   UNL     1       1.143  -2.826   0.979  0.00  0.00    +0.179 C 
ATOM     16  C   UNL     1       4.990   1.304  -0.588  0.00  0.00    +0.179 C 
ATOM     17  C   UNL     1       4.189   0.527   1.493  0.00  0.00    +0.179 C 
ENDROOT
BRANCH   9   2
ATOM      2  O   UNL     1      -2.696  -1.440  -0.297  0.00  0.00    -0.469 OA
BRANCH   2  18
ATOM      7  N   UNL     1      -2.332   0.734   0.421  0.00  0.00    -0.218 NA
ATOM     18  C   UNL     1      -3.185  -0.179  -0.095  0.00  0.00    +0.215 A 
ATOM     19  C   UNL     1      -4.505   0.089  -0.420  0.00  0.00    +0.067 A 
ATOM     20  C   UNL     1      -2.829   1.976   0.617  0.00  0.00    +0.042 A 
ATOM     21  C   UNL     1      -4.980   1.378  -0.204  0.00  0.00    +0.007 A 
ATOM     22  C   UNL     1      -4.132   2.345   0.324  0.00  0.00    +0.023 A 
ATOM     23  C   UNL     1      -1.892   2.988   1.188  0.00  0.00    +0.066 C 
ENDBRANCH   2  18
ENDBRANCH   9   2
TORSDOF 2
