REMARK  Name = 26744329
REMARK  6 active torsions:
REMARK  status: ('A' for Active; 'I' for Inactive)
REMARK    1  A    between atoms: O_1  and  C_12
REMARK    2  A    between atoms: N_5  and  C_14
REMARK    3  A    between atoms: N_9  and  C_25
REMARK    4  A    between atoms: C_10  and  C_15
REMARK    5  A    between atoms: C_14  and  C_16
REMARK    6  A    between atoms: C_17  and  C_20
REMARK                            x       y       z     vdW  Elec       q    Type
REMARK                         _______ _______ _______ _____ _____    ______ ____
ROOT
ATOM      5  N   UNL     1      -3.084  -0.056   0.735  0.00  0.00    -0.285 NA
ATOM     10  C   UNL     1      -2.933   0.711  -0.518  0.00  0.00    +0.149 C 
ATOM     11  C   UNL     1      -3.515   2.101  -0.201  0.00  0.00    +0.061 C 
ATOM     12  C   UNL     1      -4.008   2.004   1.237  0.00  0.00    +0.130 C 
ATOM     13  C   UNL     1      -4.232   0.517   1.435  0.00  0.00    +0.116 C 
ENDROOT
BRANCH  10  15
ATOM      2  O   UNL     1      -1.308   0.916  -2.332  0.00  0.00    -0.336 OA
ATOM      6  N   UNL     1      -0.389   0.703  -0.301  0.00  0.00    -0.190 NA
ATOM      7  N   UNL     1       0.078   0.946  -2.527  0.00  0.00    -0.056 NA
ATOM     15  C   UNL     1      -1.497   0.771  -0.994  0.00  0.00    +0.245 A 
ATOM     17  C   UNL     1       0.551   0.814  -1.284  0.00  0.00    +0.202 A 
BRANCH  17  20
ATOM     20  C   UNL     1       1.955   0.792  -0.991  0.00  0.00    +0.025 A 
ATOM     23  C   UNL     1       2.390   0.654   0.327  0.00  0.00    +0.044 A 
ATOM     24  C   UNL     1       2.884   0.909  -2.025  0.00  0.00    +0.012 A 
ATOM     25  C   UNL     1       3.756   0.631   0.611  0.00  0.00    +0.127 A 
ATOM     26  C   UNL     1       4.250   0.887  -1.740  0.00  0.00    +0.003 A 
ATOM     27  C   UNL     1       4.686   0.748  -0.422  0.00  0.00    +0.033 A 
BRANCH  25   9
ATOM      3  O   UNL     1       5.434   0.473   2.185  0.00  0.00    -0.126 OA
ATOM      4  O   UNL     1       3.349   0.387   2.868  0.00  0.00    -0.126 OA
ATOM      9  N   UNL     1       4.201   0.490   1.952  0.00  0.00    +0.056 N 
ENDBRANCH  25   9
ENDBRANCH  17  20
ENDBRANCH  10  15
BRANCH  12   1
ATOM      1  O   UNL     1      -5.203   2.743   1.408  0.00  0.00    -0.390 OA
ATOM     28  H   UNL     1      -5.006   3.671   1.193  0.00  0.00    +0.210 HD
ENDBRANCH  12   1
BRANCH   5  14
ATOM     14  C   UNL     1      -3.235  -1.489   0.517  0.00  0.00    +0.120 C 
BRANCH  14  16
ATOM      8  N   UNL     1       0.545  -3.398  -0.235  0.00  0.00    -0.263 NA
ATOM     16  C   UNL     1      -1.912  -2.157   0.254  0.00  0.00    -0.030 A 
ATOM     18  C   UNL     1      -1.705  -2.853  -0.932  0.00  0.00    +0.024 A 
ATOM     19  C   UNL     1      -0.891  -2.081   1.196  0.00  0.00    +0.024 A 
ATOM     21  C   UNL     1      -0.470  -3.451  -1.127  0.00  0.00    +0.111 A 
ATOM     22  C   UNL     1       0.307  -2.713   0.905  0.00  0.00    +0.111 A 
ENDBRANCH  14  16
ENDBRANCH   5  14
TORSDOF 6
