REMARK  Name = 40533390
REMARK  4 active torsions:
REMARK  status: ('A' for Active; 'I' for Inactive)
REMARK    1  A    between atoms: N_3  and  C_13
REMARK    2  A    between atoms: N_5  and  C_26
REMARK    3  A    between atoms: C_13  and  C_16
REMARK    4  A    between atoms: C_17  and  C_21
REMARK                            x       y       z     vdW  Elec       q    Type
REMARK                         _______ _______ _______ _____ _____    ______ ____
ROOT
ATOM      2  O   UNL     1      -1.417  -1.869   1.692  0.00  0.00    -0.267 OA
ATOM      3  N   UNL     1       3.392  -1.211   0.430  0.00  0.00    -0.297 NA
ATOM      4  N   UNL     1       0.406  -2.325   0.311  0.00  0.00    -0.311 N 
ATOM      6  C   UNL     1       2.543  -3.452   1.167  0.00  0.00    +0.024 C 
ATOM      7  C   UNL     1       2.367  -2.812  -1.190  0.00  0.00    +0.050 C 
ATOM      8  C   UNL     1       2.655  -3.984  -0.256  0.00  0.00    +0.017 C 
ATOM      9  C   UNL     1       3.560  -2.312   1.387  0.00  0.00    +0.090 C 
ATOM     10  C   UNL     1       3.412  -1.697  -0.957  0.00  0.00    +0.094 C 
ATOM     11  C   UNL     1       1.095  -3.007   1.416  0.00  0.00    +0.130 C 
ATOM     12  C   UNL     1       0.963  -2.279  -0.969  0.00  0.00    +0.026 A 
ATOM     14  C   UNL     1       0.268  -1.751  -1.988  0.00  0.00    +0.022 A 
ATOM     15  C   UNL     1      -0.879  -1.817   0.585  0.00  0.00    +0.260 A 
ATOM     17  C   UNL     1      -1.621  -1.199  -0.571  0.00  0.00    +0.053 A 
ATOM     18  C   UNL     1      -1.040  -1.198  -1.780  0.00  0.00    +0.016 A 
ENDROOT
BRANCH  17  21
ATOM      1  S   UNL     1      -3.144   0.701   0.701  0.00  0.00    -0.088 S 
ATOM     21  C   UNL     1      -2.953  -0.596  -0.388  0.00  0.00    +0.026 A 
ATOM     24  C   UNL     1      -4.137  -0.939  -0.996  0.00  0.00    +0.024 A 
ATOM     28  C   UNL     1      -5.240  -0.126  -0.568  0.00  0.00    -0.010 A 
ATOM     29  C   UNL     1      -4.833   0.826   0.372  0.00  0.00    +0.020 A 
ATOM     31  C   UNL     1      -6.604  -0.152  -0.946  0.00  0.00    +0.009 A 
ATOM     32  C   UNL     1      -5.744   1.739   0.938  0.00  0.00    +0.015 A 
ATOM     33  C   UNL     1      -7.511   0.753  -0.387  0.00  0.00    +0.001 A 
ATOM     34  C   UNL     1      -7.083   1.688   0.545  0.00  0.00    +0.001 A 
ENDBRANCH  17  21
BRANCH   3  13
ATOM     13  C   UNL     1       4.405  -0.178   0.637  0.00  0.00    +0.121 C 
BRANCH  13  16
ATOM      5  N   UNL     1       3.854   3.069  -1.003  0.00  0.00    -0.349 N 
ATOM     16  C   UNL     1       3.947   1.165   0.133  0.00  0.00    -0.008 A 
ATOM     19  C   UNL     1       2.791   1.879   0.555  0.00  0.00    +0.004 A 
ATOM     20  C   UNL     1       4.580   1.922  -0.826  0.00  0.00    +0.091 A 
ATOM     22  C   UNL     1       2.756   3.070  -0.173  0.00  0.00    +0.049 A 
ATOM     23  C   UNL     1       1.768   1.625   1.490  0.00  0.00    +0.010 A 
ATOM     25  C   UNL     1       1.745   4.024  -0.012  0.00  0.00    +0.026 A 
ATOM     26  C   UNL     1       4.207   4.121  -1.932  0.00  0.00    +0.149 C 
ATOM     27  C   UNL     1       0.750   2.571   1.661  0.00  0.00    +0.001 A 
ATOM     30  C   UNL     1       0.741   3.751   0.921  0.00  0.00    +0.002 A 
ENDBRANCH  13  16
ENDBRANCH   3  13
TORSDOF 3
