REMARK  Name = 40780082
REMARK  9 active torsions:
REMARK  status: ('A' for Active; 'I' for Inactive)
REMARK    1  A    between atoms: O_1  and  C_16
REMARK    2  A    between atoms: O_1  and  C_26
REMARK    3  A    between atoms: O_3  and  C_32
REMARK    4  A    between atoms: O_3  and  C_33
REMARK    5  A    between atoms: N_5  and  C_24
REMARK    6  A    between atoms: N_7  and  C_27
REMARK    7  A    between atoms: C_9  and  C_15
REMARK    8  A    between atoms: C_11  and  C_16
REMARK    9  A    between atoms: C_18  and  C_19
REMARK                            x       y       z     vdW  Elec       q    Type
REMARK                         _______ _______ _______ _____ _____    ______ ____
ROOT
ATOM      4  N   UNL     1       2.000  -3.682   0.595  0.00  0.00    -0.296 NA
ATOM      8  C   UNL     1       2.971  -2.327  -1.406  0.00  0.00    +0.002 C 
ATOM      9  C   UNL     1       3.631  -1.877  -0.074  0.00  0.00    +0.055 C 
ATOM     10  C   UNL     1       1.440  -2.162  -1.300  0.00  0.00    +0.026 C 
ATOM     11  C   UNL     1       0.893  -3.135  -0.233  0.00  0.00    +0.095 C 
ATOM     12  C   UNL     1       2.863  -2.578   1.083  0.00  0.00    +0.094 C 
ATOM     13  C   UNL     1       3.255  -3.837  -1.555  0.00  0.00    +0.019 C 
ATOM     14  C   UNL     1       2.822  -4.564  -0.269  0.00  0.00    +0.085 C 
ENDROOT
BRANCH   9  15
ATOM      5  N   UNL     1       4.832   0.131   0.911  0.00  0.00    -0.271 N 
ATOM      6  N   UNL     1       4.810   1.471   1.008  0.00  0.00    -0.176 NA
ATOM     15  C   UNL     1       3.808  -0.385   0.172  0.00  0.00    +0.044 A 
ATOM     17  C   UNL     1       3.065   0.693  -0.244  0.00  0.00    +0.048 A 
ATOM     18  C   UNL     1       3.729   1.808   0.301  0.00  0.00    +0.066 A 
ATOM     24  C   UNL     1       5.885  -0.607   1.569  0.00  0.00    +0.172 C 
BRANCH  18  19
ATOM     19  C   UNL     1       3.346   3.271   0.161  0.00  0.00    +0.040 C 
ATOM     20  C   UNL     1       1.972   3.564   0.787  0.00  0.00    +0.010 C 
ATOM     21  C   UNL     1       3.394   3.739  -1.304  0.00  0.00    +0.010 C 
ATOM     22  C   UNL     1       1.599   5.040   0.650  0.00  0.00    +0.001 C 
ATOM     23  C   UNL     1       3.017   5.213  -1.432  0.00  0.00    +0.001 C 
ATOM     25  C   UNL     1       1.658   5.503  -0.802  0.00  0.00    +0.000 C 
ENDBRANCH  18  19
ENDBRANCH   9  15
BRANCH  11  16
ATOM     16  C   UNL     1      -0.206  -2.493   0.615  0.00  0.00    +0.252 C 
BRANCH  16   1
ATOM      1  O   UNL     1      -1.261  -2.102  -0.243  0.00  0.00    -0.449 OA
BRANCH   1  26
ATOM      2  O   UNL     1      -2.425  -1.300   1.554  0.00  0.00    -0.226 OA
ATOM      7  N   UNL     1      -3.280  -1.182  -0.622  0.00  0.00    -0.251 N 
ATOM     26  C   UNL     1      -2.349  -1.499   0.348  0.00  0.00    +0.405 C 
ATOM     34  H   UNL     1      -3.036  -1.428  -1.578  0.00  0.00    +0.158 HD
BRANCH   7  27
ATOM     27  C   UNL     1      -4.536  -0.556  -0.451  0.00  0.00    +0.037 A 
ATOM     28  C   UNL     1      -5.350  -0.313  -1.557  0.00  0.00    +0.027 A 
ATOM     29  C   UNL     1      -4.961  -0.180   0.823  0.00  0.00    +0.027 A 
ATOM     30  C   UNL     1      -6.589   0.305  -1.389  0.00  0.00    +0.047 A 
ATOM     31  C   UNL     1      -6.200   0.438   0.991  0.00  0.00    +0.047 A 
ATOM     32  C   UNL     1      -7.014   0.680  -0.115  0.00  0.00    +0.120 A 
BRANCH  32   3
ATOM      3  O   UNL     1      -8.223   1.283   0.049  0.00  0.00    -0.495 OA
ATOM     33  C   UNL     1      -8.595   1.641   1.379  0.00  0.00    +0.277 C 
ENDBRANCH  32   3
ENDBRANCH   7  27
ENDBRANCH   1  26
ENDBRANCH  16   1
ENDBRANCH  11  16
TORSDOF 7
