REMARK  Name = 11939954
REMARK  9 active torsions:
REMARK  status: ('A' for Active; 'I' for Inactive)
REMARK    1  A    between atoms: N_5  and  C_13
REMARK    2  A    between atoms: N_6  and  C_14
REMARK    3  A    between atoms: N_7  and  C_20
REMARK    4  A    between atoms: N_10  and  C_33
REMARK    5  A    between atoms: N_10  and  C_35
REMARK    6  A    between atoms: N_10  and  C_36
REMARK    7  A    between atoms: C_19  and  C_23
REMARK    8  A    between atoms: C_30  and  C_34
REMARK    9  A    between atoms: C_34  and  C_37
REMARK                            x       y       z     vdW  Elec       q    Type
REMARK                         _______ _______ _______ _____ _____    ______ ____
ROOT
ATOM      1  O   UNL     1       0.355  -3.879   1.077  0.00  0.00    -0.370 OA
ATOM      2  O   UNL     1      -0.823  -1.213   2.189  0.00  0.00    -0.370 OA
ATOM     11  C   UNL     1      -0.675  -1.745   0.862  0.00  0.00    +0.171 C 
ATOM     12  C   UNL     1       0.643  -2.494   0.823  0.00  0.00    +0.171 C 
ATOM     13  C   UNL     1      -1.714  -2.811   0.606  0.00  0.00    +0.130 C 
ATOM     14  C   UNL     1       1.436  -1.904   1.966  0.00  0.00    +0.131 C 
ATOM     15  C   UNL     1      -1.065  -4.054   1.187  0.00  0.00    +0.185 C 
ATOM     16  C   UNL     1       0.348  -1.528   2.956  0.00  0.00    +0.185 C 
ENDROOT
BRANCH  13   5
ATOM      5  N   UNL     1      -1.919  -2.971  -0.817  0.00  0.00    -0.306 N 
ATOM      8  N   UNL     1      -3.461  -1.237  -0.886  0.00  0.00    -0.214 NA
ATOM      9  N   UNL     1      -2.865  -2.460  -2.875  0.00  0.00    -0.223 NA
ATOM     17  C   UNL     1      -2.786  -2.189  -1.558  0.00  0.00    +0.216 A 
ATOM     19  C   UNL     1      -4.298  -0.493  -1.639  0.00  0.00    +0.076 A 
ATOM     21  C   UNL     1      -3.720  -1.679  -3.567  0.00  0.00    +0.116 A 
ATOM     22  C   UNL     1      -4.469  -0.670  -2.997  0.00  0.00    +0.048 A 
ATOM     38  H   UNL     1      -1.368  -3.654  -1.326  0.00  0.00    +0.149 HD
BRANCH  19  23
ATOM     23  C   UNL     1      -5.023   0.528  -0.922  0.00  0.00    +0.001 A 
ATOM     26  C   UNL     1      -4.329   1.534  -0.250  0.00  0.00    +0.012 A 
ATOM     27  C   UNL     1      -6.418   0.510  -0.903  0.00  0.00    +0.012 A 
ATOM     31  C   UNL     1      -5.030   2.522   0.441  0.00  0.00    +0.024 A 
ATOM     32  C   UNL     1      -7.119   1.498  -0.212  0.00  0.00    +0.024 A 
ATOM     33  C   UNL     1      -6.425   2.504   0.460  0.00  0.00    +0.029 A 
BRANCH  33  10
ATOM     10  N   UNL     1      -7.134   3.503   1.160  0.00  0.00    -0.336 N 
ATOM     35  C   UNL     1      -8.583   3.492   1.186  0.00  0.00    +0.129 C 
ATOM     36  C   UNL     1      -6.423   4.545   1.873  0.00  0.00    +0.129 C 
ENDBRANCH  33  10
ENDBRANCH  19  23
ENDBRANCH  13   5
BRANCH  14   6
ATOM      3  O   UNL     1       4.166  -1.841   1.100  0.00  0.00    -0.252 OA
ATOM      6  N   UNL     1       2.180  -0.743   1.540  0.00  0.00    -0.292 N 
ATOM      7  N   UNL     1       3.971   0.476   0.777  0.00  0.00    -0.269 N 
ATOM     18  C   UNL     1       3.517  -0.798   1.130  0.00  0.00    +0.304 C 
ATOM     39  H   UNL     1       1.692   0.146   1.474  0.00  0.00    +0.151 HD
ATOM     40  H   UNL     1       3.304   1.238   0.862  0.00  0.00    +0.156 HD
BRANCH   7  20
ATOM     20  C   UNL     1       5.256   0.842   0.314  0.00  0.00    +0.035 A 
ATOM     24  C   UNL     1       6.246  -0.129   0.162  0.00  0.00    +0.024 A 
ATOM     25  C   UNL     1       5.534   2.174   0.007  0.00  0.00    +0.024 A 
ATOM     28  C   UNL     1       7.513   0.232  -0.297  0.00  0.00    +0.013 A 
ATOM     29  C   UNL     1       6.801   2.535  -0.451  0.00  0.00    +0.013 A 
ATOM     30  C   UNL     1       7.790   1.564  -0.603  0.00  0.00    +0.017 A 
BRANCH  30  34
ATOM      4  O   UNL     1      10.132   1.314  -0.733  0.00  0.00    -0.292 OA
ATOM     34  C   UNL     1       9.111   1.941  -1.080  0.00  0.00    +0.160 C 
ATOM     37  C   UNL     1       9.278   3.126  -2.025  0.00  0.00    +0.091 C 
ENDBRANCH  30  34
ENDBRANCH   7  20
ENDBRANCH  14   6
TORSDOF 6
