REMARK  Name = 25389393
REMARK  10 active torsions:
REMARK  status: ('A' for Active; 'I' for Inactive)
REMARK    1  A    between atoms: S_1  and  N_7
REMARK    2  A    between atoms: S_1  and  C_24
REMARK    3  A    between atoms: O_4  and  C_34
REMARK    4  A    between atoms: O_4  and  C_35
REMARK    5  A    between atoms: N_6  and  C_15
REMARK    6  A    between atoms: N_7  and  C_16
REMARK    7  A    between atoms: C_9  and  C_15
REMARK    8  A    between atoms: C_10  and  C_16
REMARK    9  A    between atoms: C_19  and  C_22
REMARK   10  A    between atoms: C_22  and  C_23
REMARK                            x       y       z     vdW  Elec       q    Type
REMARK                         _______ _______ _______ _____ _____    ______ ____
ROOT
ATOM      5  N   UNL     1      -3.115   2.807  -1.216  0.00  0.00    -0.298 NA
ATOM      8  C   UNL     1      -2.543   3.248   1.283  0.00  0.00    -0.003 C 
ATOM      9  C   UNL     1      -1.262   2.964   0.466  0.00  0.00    +0.020 C 
ATOM     10  C   UNL     1      -3.939   1.929  -0.342  0.00  0.00    +0.072 C 
ATOM     11  C   UNL     1      -3.514   2.062   1.138  0.00  0.00    +0.024 C 
ATOM     12  C   UNL     1      -1.672   2.568  -0.970  0.00  0.00    +0.089 C 
ATOM     13  C   UNL     1      -3.220   4.474   0.641  0.00  0.00    +0.019 C 
ATOM     14  C   UNL     1      -3.417   4.215  -0.863  0.00  0.00    +0.085 C 
ENDROOT
BRANCH   9  15
ATOM     15  C   UNL     1      -0.361   1.909   1.106  0.00  0.00    +0.089 C 
BRANCH  15   6
ATOM      6  N   UNL     1       0.852   1.758   0.303  0.00  0.00    -0.302 NA
ATOM     17  C   UNL     1       1.505   0.475   0.595  0.00  0.00    +0.084 C 
ATOM     18  C   UNL     1       1.766   2.884   0.536  0.00  0.00    +0.084 C 
ATOM     19  C   UNL     1       3.737   1.436  -0.107  0.00  0.00    -0.004 C 
ATOM     20  C   UNL     1       2.748   0.278  -0.276  0.00  0.00    +0.019 C 
ATOM     21  C   UNL     1       3.017   2.769  -0.338  0.00  0.00    +0.019 C 
BRANCH  19  22
ATOM     22  C   UNL     1       4.926   1.284  -1.052  0.00  0.00    +0.038 C 
BRANCH  22  23
ATOM     23  C   UNL     1       5.923   0.285  -0.533  0.00  0.00    -0.047 A 
ATOM     25  C   UNL     1       6.965   0.705   0.295  0.00  0.00    +0.003 A 
ATOM     26  C   UNL     1       5.807  -1.061  -0.879  0.00  0.00    +0.003 A 
ATOM     29  C   UNL     1       7.890  -0.221   0.777  0.00  0.00    +0.000 A 
ATOM     30  C   UNL     1       6.732  -1.987  -0.397  0.00  0.00    +0.000 A 
ATOM     31  C   UNL     1       7.773  -1.568   0.431  0.00  0.00    +0.000 A 
ENDBRANCH  22  23
ENDBRANCH  19  22
ENDBRANCH  15   6
ENDBRANCH   9  15
BRANCH  10  16
ATOM     16  C   UNL     1      -3.931   0.470  -0.805  0.00  0.00    +0.124 C 
BRANCH  16   7
ATOM      7  N   UNL     1      -4.870  -0.305   0.021  0.00  0.00    -0.188 NA
ATOM     36  H   UNL     1      -5.010   0.019   0.986  0.00  0.00    +0.148 HD
BRANCH   7   1
ATOM      1  S   UNL     1      -5.086  -1.971  -0.262  0.00  0.00    +0.058 S 
ATOM      2  O   UNL     1      -5.426  -2.180  -1.656  0.00  0.00    -0.153 OA
ATOM      3  O   UNL     1      -5.923  -2.526   0.784  0.00  0.00    -0.153 OA
BRANCH   1  24
ATOM     24  C   UNL     1      -3.453  -2.595  -0.001  0.00  0.00    +0.105 A 
ATOM     27  C   UNL     1      -2.558  -2.675  -1.068  0.00  0.00    +0.032 A 
ATOM     28  C   UNL     1      -3.059  -3.008   1.272  0.00  0.00    +0.032 A 
ATOM     32  C   UNL     1      -1.269  -3.167  -0.862  0.00  0.00    +0.047 A 
ATOM     33  C   UNL     1      -1.771  -3.500   1.478  0.00  0.00    +0.047 A 
ATOM     34  C   UNL     1      -0.876  -3.580   0.411  0.00  0.00    +0.120 A 
BRANCH  34   4
ATOM      4  O   UNL     1       0.382  -4.062   0.612  0.00  0.00    -0.495 OA
ATOM     35  C   UNL     1       1.244  -4.117  -0.524  0.00  0.00    +0.277 C 
ENDBRANCH  34   4
ENDBRANCH   1  24
ENDBRANCH   7   1
ENDBRANCH  16   7
ENDBRANCH  10  16
TORSDOF 9
