REMARK  Name = 71693364
REMARK  8 active torsions:
REMARK  status: ('A' for Active; 'I' for Inactive)
REMARK    1  A    between atoms: O_2  and  C_12
REMARK    2  A    between atoms: N_5  and  C_11
REMARK    3  A    between atoms: N_6  and  C_22
REMARK    4  A    between atoms: C_9  and  C_12
REMARK    5  A    between atoms: C_10  and  C_14
REMARK    6  A    between atoms: C_11  and  C_16
REMARK    7  A    between atoms: C_11  and  C_17
REMARK    8  A    between atoms: C_23  and  C_24
REMARK                            x       y       z     vdW  Elec       q    Type
REMARK                         _______ _______ _______ _____ _____    ______ ____
ROOT
ATOM     14  C   UNL     1       1.122  -0.949  -0.319  0.00  0.00    -0.017 A 
ATOM     18  C   UNL     1       0.145  -1.910  -0.058  0.00  0.00    +0.008 A 
ATOM     19  C   UNL     1       0.755   0.380  -0.530  0.00  0.00    +0.008 A 
ATOM     20  C   UNL     1      -1.199  -1.542  -0.009  0.00  0.00    +0.023 A 
ATOM     21  C   UNL     1      -0.590   0.748  -0.481  0.00  0.00    +0.023 A 
ATOM     22  C   UNL     1      -1.567  -0.213  -0.220  0.00  0.00    +0.034 A 
ENDROOT
BRANCH  14  10
ATOM      1  O   UNL     1       3.034  -1.122  -1.712  0.00  0.00    -0.361 OA
ATOM      3  O   UNL     1       5.599   1.142  -1.629  0.00  0.00    -0.273 OA
ATOM      5  N   UNL     1       4.197   0.495   0.121  0.00  0.00    -0.289 N 
ATOM      9  C   UNL     1       3.413  -0.600   0.703  0.00  0.00    +0.135 C 
ATOM     10  C   UNL     1       2.584  -1.350  -0.373  0.00  0.00    +0.171 C 
ATOM     13  C   UNL     1       4.812   0.347  -1.119  0.00  0.00    +0.242 C 
ATOM     15  C   UNL     1       4.431  -0.935  -1.820  0.00  0.00    +0.256 C 
BRANCH   5  11
ATOM     11  C   UNL     1       4.426   1.681   0.934  0.00  0.00    +0.070 C 
ATOM     16  C   UNL     1       3.943   2.925   0.201  0.00  0.00    +0.028 C 
ATOM     17  C   UNL     1       5.898   1.796   1.308  0.00  0.00    +0.028 C 
ENDBRANCH   5  11
BRANCH   9  12
ATOM     12  C   UNL     1       4.320  -1.565   1.478  0.00  0.00    +0.181 C 
BRANCH  12   2
ATOM      2  O   UNL     1       4.688  -0.945   2.693  0.00  0.00    -0.393 OA
ATOM     28  H   UNL     1       5.260  -1.568   3.172  0.00  0.00    +0.209 HD
ENDBRANCH  12   2
ENDBRANCH   9  12
ENDBRANCH  14  10
BRANCH  22   6
ATOM      4  O   UNL     1      -4.012  -1.869   0.295  0.00  0.00    -0.268 OA
ATOM      6  N   UNL     1      -2.912   0.156  -0.172  0.00  0.00    -0.280 N 
ATOM     23  C   UNL     1      -4.022  -0.663   0.074  0.00  0.00    +0.268 C 
ATOM     29  H   UNL     1      -3.099   1.143  -0.332  0.00  0.00    +0.155 HD
BRANCH  23  24
ATOM      7  N   UNL     1      -5.317   1.363  -0.129  0.00  0.00    -0.247 NA
ATOM      8  N   UNL     1      -7.705  -0.032   0.340  0.00  0.00    -0.259 NA
ATOM     24  C   UNL     1      -5.335   0.033   0.090  0.00  0.00    +0.144 A 
ATOM     25  C   UNL     1      -6.508  -0.652   0.321  0.00  0.00    +0.143 A 
ATOM     26  C   UNL     1      -6.513   1.983  -0.109  0.00  0.00    +0.131 A 
ATOM     27  C   UNL     1      -7.686   1.298   0.121  0.00  0.00    +0.130 A 
ENDBRANCH  23  24
ENDBRANCH  22   6
TORSDOF 6
