REMARK  Name = 11913177
REMARK  8 active torsions:
REMARK  status: ('A' for Active; 'I' for Inactive)
REMARK    1  A    between atoms: N_7  and  C_19
REMARK    2  A    between atoms: N_8  and  C_20
REMARK    3  A    between atoms: C_9  and  C_15
REMARK    4  A    between atoms: C_10  and  C_14
REMARK    5  A    between atoms: C_14  and  C_16
REMARK    6  A    between atoms: C_15  and  C_17
REMARK    7  A    between atoms: C_19  and  C_21
REMARK    8  A    between atoms: C_27  and  C_34
REMARK                            x       y       z     vdW  Elec       q    Type
REMARK                         _______ _______ _______ _____ _____    ______ ____
ROOT
ATOM      5  O   UNL     1      -3.302  -3.618  -0.226  0.00  0.00    -0.252 OA
ATOM      6  N   UNL     1      -1.218  -3.118   0.639  0.00  0.00    -0.285 N 
ATOM      8  N   UNL     1      -2.952  -1.520   0.700  0.00  0.00    -0.269 N 
ATOM      9  C   UNL     1       1.598  -3.346   0.013  0.00  0.00    +0.004 C 
ATOM     10  C   UNL     1       0.982  -1.990   0.448  0.00  0.00    +0.010 C 
ATOM     11  C   UNL     1       0.547  -4.276  -0.621  0.00  0.00    +0.023 C 
ATOM     12  C   UNL     1      -0.254  -2.246   1.327  0.00  0.00    +0.113 C 
ATOM     13  C   UNL     1      -0.679  -4.430   0.278  0.00  0.00    +0.109 C 
ATOM     18  C   UNL     1      -2.561  -2.809   0.338  0.00  0.00    +0.306 C 
ATOM     38  H   UNL     1      -2.495  -1.081   1.491  0.00  0.00    +0.156 HD
ENDROOT
BRANCH   8  20
ATOM     20  C   UNL     1      -3.932  -0.711   0.073  0.00  0.00    +0.035 A 
ATOM     23  C   UNL     1      -4.203   0.565   0.567  0.00  0.00    +0.035 A 
ATOM     24  C   UNL     1      -4.625  -1.190  -1.038  0.00  0.00    +0.023 A 
ATOM     27  C   UNL     1      -5.167   1.362  -0.050  0.00  0.00    +0.057 A 
ATOM     28  C   UNL     1      -5.589  -0.394  -1.655  0.00  0.00    +0.002 A 
ATOM     32  C   UNL     1      -5.861   0.882  -1.162  0.00  0.00    +0.012 A 
BRANCH  27  34
ATOM      1  F   UNL     1      -6.423   3.390  -0.224  0.00  0.00    -0.166 F 
ATOM      2  F   UNL     1      -5.893   2.730   1.772  0.00  0.00    -0.166 F 
ATOM      3  F   UNL     1      -4.364   3.541   0.456  0.00  0.00    -0.166 F 
ATOM     34  C   UNL     1      -5.458   2.725   0.477  0.00  0.00    +0.417 C 
ENDBRANCH  27  34
ENDBRANCH   8  20
BRANCH  10  14
ATOM     14  C   UNL     1       0.626  -1.062  -0.719  0.00  0.00    +0.002 C 
ATOM     16  C   UNL     1       0.119   0.275  -0.220  0.00  0.00    +0.004 C 
ENDBRANCH  10  14
BRANCH   9  15
ATOM     15  C   UNL     1       2.805  -3.187  -0.912  0.00  0.00    +0.099 C 
BRANCH  15  17
ATOM      4  O   UNL     1       4.455  -2.640   0.770  0.00  0.00    -0.276 OA
ATOM      7  N   UNL     1       4.179  -1.232  -1.058  0.00  0.00    -0.311 N 
ATOM     17  C   UNL     1       3.900  -2.351  -0.286  0.00  0.00    +0.214 C 
ATOM     37  H   UNL     1       3.670  -1.074  -1.923  0.00  0.00    +0.149 HD
BRANCH   7  19
ATOM     19  C   UNL     1       5.181  -0.255  -0.699  0.00  0.00    +0.140 C 
BRANCH  19  21
ATOM     21  C   UNL     1       4.622   0.824   0.183  0.00  0.00    -0.023 A 
ATOM     22  C   UNL     1       4.064   2.001  -0.342  0.00  0.00    -0.013 A 
ATOM     25  C   UNL     1       4.676   0.616   1.562  0.00  0.00    +0.006 A 
ATOM     26  C   UNL     1       3.554   2.980   0.543  0.00  0.00    -0.018 A 
ATOM     29  C   UNL     1       4.001   2.228  -1.727  0.00  0.00    +0.009 A 
ATOM     30  C   UNL     1       4.174   1.578   2.433  0.00  0.00    +0.001 A 
ATOM     31  C   UNL     1       3.616   2.753   1.928  0.00  0.00    +0.008 A 
ATOM     33  C   UNL     1       2.995   4.157   0.018  0.00  0.00    +0.008 A 
ATOM     35  C   UNL     1       3.443   3.403  -2.231  0.00  0.00    +0.001 A 
ATOM     36  C   UNL     1       2.941   4.366  -1.360  0.00  0.00    +0.001 A 
ENDBRANCH  19  21
ENDBRANCH   7  19
ENDBRANCH  15  17
ENDBRANCH   9  15
TORSDOF 7
