REMARK  Name = 38027325
REMARK  12 active torsions:
REMARK  status: ('A' for Active; 'I' for Inactive)
REMARK    1  A    between atoms: O_3  and  C_26
REMARK    2  A    between atoms: O_3  and  C_31
REMARK    3  A    between atoms: N_4  and  C_15
REMARK    4  A    between atoms: N_5  and  C_14
REMARK    5  A    between atoms: C_6  and  C_10
REMARK    6  A    between atoms: C_7  and  C_14
REMARK    7  A    between atoms: C_9  and  C_13
REMARK    8  A    between atoms: C_10  and  C_16
REMARK    9  A    between atoms: C_10  and  C_17
REMARK   10  A    between atoms: C_11  and  C_20
REMARK   11  A    between atoms: C_13  and  C_21
REMARK   12  A    between atoms: C_24  and  C_25
REMARK                            x       y       z     vdW  Elec       q    Type
REMARK                         _______ _______ _______ _____ _____    ______ ____
ROOT
ATOM      6  C   UNL     1      -0.830  -2.101   0.903  0.00  0.00    +0.000 C 
ATOM      7  C   UNL     1       0.329  -3.067   0.551  0.00  0.00    +0.032 C 
ATOM      8  C   UNL     1      -1.999  -2.288  -0.076  0.00  0.00    +0.012 C 
ATOM      9  C   UNL     1      -1.581  -2.036  -1.537  0.00  0.00    +0.023 C 
ATOM     11  C   UNL     1      -0.288  -2.747  -1.883  0.00  0.00    -0.073 C 
ATOM     12  C   UNL     1       0.546  -3.212  -0.937  0.00  0.00    -0.022 C 
ATOM     20  C   UNL     1       0.002  -2.951  -3.344  0.00  0.00    +0.039 C 
ENDROOT
BRANCH   6  10
ATOM     10  C   UNL     1      -1.321  -2.302   2.340  0.00  0.00    -0.013 C 
ATOM     16  C   UNL     1      -1.985  -1.030   2.858  0.00  0.00    +0.007 C 
ATOM     17  C   UNL     1      -2.283  -3.483   2.414  0.00  0.00    +0.007 C 
ENDBRANCH   6  10
BRANCH   9  13
ATOM     13  C   UNL     1      -1.478  -0.535  -1.832  0.00  0.00    +0.103 C 
BRANCH  13  21
ATOM      1  O   UNL     1      -3.867  -0.301  -1.533  0.00  0.00    -0.276 OA
ATOM      4  N   UNL     1      -2.475   1.506  -1.087  0.00  0.00    -0.312 N 
ATOM     21  C   UNL     1      -2.749   0.203  -1.476  0.00  0.00    +0.214 C 
ATOM     32  H   UNL     1      -1.509   1.814  -1.035  0.00  0.00    +0.149 HD
BRANCH   4  15
ATOM     15  C   UNL     1      -3.500   2.441  -0.694  0.00  0.00    +0.073 C 
ATOM     18  C   UNL     1      -3.078   3.881  -0.959  0.00  0.00    +0.022 C 
ATOM     19  C   UNL     1      -3.733   2.430   0.813  0.00  0.00    +0.022 C 
ATOM     22  C   UNL     1      -2.205   4.251   0.238  0.00  0.00    +0.002 C 
ATOM     23  C   UNL     1      -2.655   3.348   1.386  0.00  0.00    +0.002 C 
ENDBRANCH   4  15
ENDBRANCH  13  21
ENDBRANCH   9  13
BRANCH   7  14
ATOM     14  C   UNL     1       1.637  -2.626   1.217  0.00  0.00    +0.112 C 
BRANCH  14   5
ATOM      2  O   UNL     1       2.045  -0.192   2.684  0.00  0.00    -0.270 OA
ATOM      5  N   UNL     1       2.080  -1.374   0.688  0.00  0.00    -0.311 N 
ATOM     24  C   UNL     1       2.252  -0.236   1.474  0.00  0.00    +0.248 C 
ATOM     33  H   UNL     1       2.288  -1.330  -0.305  0.00  0.00    +0.149 HD
BRANCH  24  25
ATOM     25  C   UNL     1       2.692   0.995   0.768  0.00  0.00    +0.078 A 
ATOM     26  C   UNL     1       3.486   0.919  -0.377  0.00  0.00    +0.132 A 
ATOM     27  C   UNL     1       2.302   2.239   1.264  0.00  0.00    +0.017 A 
ATOM     28  C   UNL     1       3.889   2.086  -1.025  0.00  0.00    +0.046 A 
ATOM     29  C   UNL     1       2.704   3.406   0.616  0.00  0.00    +0.001 A 
ATOM     30  C   UNL     1       3.498   3.330  -0.529  0.00  0.00    +0.004 A 
BRANCH  26   3
ATOM      3  O   UNL     1       3.878  -0.287  -0.877  0.00  0.00    -0.494 OA
ATOM     31  C   UNL     1       4.687  -0.268  -2.051  0.00  0.00    +0.277 C 
ENDBRANCH  26   3
ENDBRANCH  24  25
ENDBRANCH  14   5
ENDBRANCH   7  14
TORSDOF 8
