REMARK  Name = 7051280
REMARK  6 active torsions:
REMARK  status: ('A' for Active; 'I' for Inactive)
REMARK    1  A    between atoms: S_2  and  N_10
REMARK    2  A    between atoms: S_2  and  C_24
REMARK    3  A    between atoms: O_5  and  C_23
REMARK    4  A    between atoms: O_5  and  C_25
REMARK    5  A    between atoms: N_10  and  C_21
REMARK    6  A    between atoms: C_20  and  C_23
REMARK                            x       y       z     vdW  Elec       q    Type
REMARK                         _______ _______ _______ _____ _____    ______ ____
ROOT
ATOM      3  O   UNL     1      -0.987   2.988   1.565  0.00  0.00    -0.266 OA
ATOM      4  O   UNL     1      -3.119  -1.915   1.912  0.00  0.00    -0.272 OA
ATOM      8  N   UNL     1      -3.889  -0.816   0.015  0.00  0.00    -0.298 N 
ATOM      9  N   UNL     1      -2.372   1.996  -0.043  0.00  0.00    -0.310 N 
ATOM     11  C   UNL     1      -4.840   1.466   0.375  0.00  0.00    +0.027 C 
ATOM     12  C   UNL     1      -3.819   0.896  -1.789  0.00  0.00    +0.054 C 
ATOM     13  C   UNL     1      -4.987   1.630  -1.133  0.00  0.00    +0.018 C 
ATOM     14  C   UNL     1      -4.869  -0.023   0.761  0.00  0.00    +0.113 C 
ATOM     15  C   UNL     1      -3.545   2.153   0.825  0.00  0.00    +0.130 C 
ATOM     16  C   UNL     1      -3.890  -0.604  -1.440  0.00  0.00    +0.117 C 
ATOM     17  C   UNL     1      -2.489   1.468  -1.336  0.00  0.00    +0.027 A 
ATOM     18  C   UNL     1      -1.425   1.440  -2.160  0.00  0.00    +0.024 A 
ATOM     19  C   UNL     1      -1.148   2.499   0.448  0.00  0.00    +0.274 A 
ATOM     20  C   UNL     1      -3.105  -1.752   0.689  0.00  0.00    +0.253 C 
ATOM     21  C   UNL     1      -0.007   2.419  -0.498  0.00  0.00    +0.112 A 
ATOM     22  C   UNL     1      -0.142   1.929  -1.730  0.00  0.00    +0.031 A 
ENDROOT
BRANCH  21  10
ATOM     10  N   UNL     1       1.264   2.880  -0.114  0.00  0.00    -0.211 N 
ATOM     36  H   UNL     1       1.892   3.035  -0.916  0.00  0.00    +0.174 HD
BRANCH  10   2
ATOM      2  S   UNL     1       1.991   2.120   1.212  0.00  0.00    +0.072 S 
ATOM      6  O   UNL     1       2.398   3.118   2.184  0.00  0.00    -0.150 OA
ATOM      7  O   UNL     1       1.190   0.983   1.623  0.00  0.00    -0.150 OA
BRANCH   2  24
ATOM      1 CL   UNL     1       7.194  -0.124  -1.441  0.00  0.00    -0.084 Cl
ATOM     24  C   UNL     1       3.462   1.486   0.462  0.00  0.00    +0.109 A 
ATOM     26  C   UNL     1       4.603   2.269   0.446  0.00  0.00    +0.030 A 
ATOM     27  C   UNL     1       3.444   0.219  -0.093  0.00  0.00    +0.030 A 
ATOM     30  C   UNL     1       5.763   1.769  -0.146  0.00  0.00    +0.022 A 
ATOM     31  C   UNL     1       4.604  -0.281  -0.685  0.00  0.00    +0.022 A 
ATOM     32  C   UNL     1       5.763   0.493  -0.711  0.00  0.00    +0.041 A 
ENDBRANCH   2  24
ENDBRANCH  10   2
ENDBRANCH  21  10
BRANCH  20  23
ATOM     23  C   UNL     1      -2.186  -2.598  -0.156  0.00  0.00    +0.324 C 
BRANCH  23   5
ATOM      5  O   UNL     1      -1.478  -3.431   0.729  0.00  0.00    -0.483 OA
BRANCH   5  25
ATOM     25  C   UNL     1      -0.189  -3.771   0.384  0.00  0.00    +0.121 A 
ATOM     28  C   UNL     1       0.156  -3.861  -0.956  0.00  0.00    +0.045 A 
ATOM     29  C   UNL     1       0.741  -4.018   1.383  0.00  0.00    +0.045 A 
ATOM     33  C   UNL     1       1.461  -4.207  -1.306  0.00  0.00    +0.004 A 
ATOM     34  C   UNL     1       2.046  -4.364   1.033  0.00  0.00    +0.004 A 
ATOM     35  C   UNL     1       2.407  -4.458  -0.312  0.00  0.00    +0.000 A 
ENDBRANCH   5  25
ENDBRANCH  23   5
ENDBRANCH  20  23
TORSDOF 6
