REMARK  Name = 75536587
REMARK  10 active torsions:
REMARK  status: ('A' for Active; 'I' for Inactive)
REMARK    1  A    between atoms: O_2  and  C_9
REMARK    2  A    between atoms: O_4  and  C_18
REMARK    3  A    between atoms: O_4  and  C_23
REMARK    4  A    between atoms: N_5  and  C_8
REMARK    5  A    between atoms: N_5  and  C_13
REMARK    6  A    between atoms: N_6  and  C_12
REMARK    7  A    between atoms: C_10  and  C_12
REMARK    8  A    between atoms: C_13  and  C_14
REMARK    9  A    between atoms: C_15  and  C_18
REMARK   10  A    between atoms: C_19  and  C_22
REMARK                            x       y       z     vdW  Elec       q    Type
REMARK                         _______ _______ _______ _____ _____    ______ ____
ROOT
ATOM      1  O   UNL     1       1.802  -0.951  -0.611  0.00  0.00    -0.371 OA
ATOM      8  C   UNL     1      -0.067   0.483  -0.307  0.00  0.00    +0.111 C 
ATOM      9  C   UNL     1       0.903   0.685   0.842  0.00  0.00    +0.164 C 
ATOM     10  C   UNL     1       2.191   0.142   0.237  0.00  0.00    +0.165 C 
ATOM     11  C   UNL     1       0.387  -0.861  -0.852  0.00  0.00    +0.181 C 
ENDROOT
BRANCH   9   2
ATOM      2  O   UNL     1       1.029   2.042   1.219  0.00  0.00    -0.388 OA
ATOM     25  H   UNL     1       1.295   2.554   0.437  0.00  0.00    +0.210 HD
ENDBRANCH   9   2
BRANCH   8   5
ATOM      5  N   UNL     1      -1.462   0.488   0.100  0.00  0.00    -0.305 NA
ATOM     24  H   UNL     1      -1.621   1.269   0.736  0.00  0.00    +0.123 HD
BRANCH   5  13
ATOM     13  C   UNL     1      -2.345   0.630  -1.052  0.00  0.00    +0.116 C 
BRANCH  13  14
ATOM     14  C   UNL     1      -3.796   0.620  -0.652  0.00  0.00    -0.032 A 
ATOM     16  C   UNL     1      -4.420  -0.582  -0.315  0.00  0.00    +0.023 A 
ATOM     17  C   UNL     1      -4.517   1.814  -0.615  0.00  0.00    +0.005 A 
ATOM     19  C   UNL     1      -5.764  -0.590   0.057  0.00  0.00    +0.052 A 
ATOM     20  C   UNL     1      -5.861   1.806  -0.242  0.00  0.00    +0.002 A 
ATOM     21  C   UNL     1      -6.484   0.604   0.093  0.00  0.00    +0.019 A 
BRANCH  19  22
ATOM      7  N   UNL     1      -6.923  -2.819   0.682  0.00  0.00    -0.191 NA
ATOM     22  C   UNL     1      -6.403  -1.820   0.402  0.00  0.00    +0.099 C 
ENDBRANCH  19  22
ENDBRANCH  13  14
ENDBRANCH   5  13
ENDBRANCH   8   5
BRANCH  10  12
ATOM     12  C   UNL     1       3.185  -0.343   1.278  0.00  0.00    +0.138 C 
BRANCH  12   6
ATOM      3  O   UNL     1       5.574   1.148   0.619  0.00  0.00    -0.273 OA
ATOM      6  N   UNL     1       4.379  -0.848   0.663  0.00  0.00    -0.311 N 
ATOM     15  C   UNL     1       5.486  -0.054   0.381  0.00  0.00    +0.239 C 
ATOM     26  H   UNL     1       4.404  -1.833   0.415  0.00  0.00    +0.149 HD
BRANCH  15  18
ATOM     18  C   UNL     1       6.604  -0.845  -0.265  0.00  0.00    +0.255 C 
BRANCH  18   4
ATOM      4  O   UNL     1       7.715  -0.015  -0.526  0.00  0.00    -0.374 OA
ATOM     23  C   UNL     1       8.784  -0.735  -1.136  0.00  0.00    +0.194 C 
ENDBRANCH  18   4
ENDBRANCH  15  18
ENDBRANCH  12   6
ENDBRANCH  10  12
TORSDOF 9
