REMARK  Name = 56774794
REMARK  9 active torsions:
REMARK  status: ('A' for Active; 'I' for Inactive)
REMARK    1  A    between atoms: O_2  and  C_10
REMARK    2  A    between atoms: O_5  and  C_27
REMARK    3  A    between atoms: O_5  and  C_28
REMARK    4  A    between atoms: N_6  and  C_12
REMARK    5  A    between atoms: N_7  and  C_21
REMARK    6  A    between atoms: C_9  and  C_10
REMARK    7  A    between atoms: C_10  and  C_14
REMARK    8  A    between atoms: C_12  and  C_16
REMARK    9  A    between atoms: C_26  and  C_27
REMARK                            x       y       z     vdW  Elec       q    Type
REMARK                         _______ _______ _______ _____ _____    ______ ____
ROOT
ATOM     10  C   UNL     1      -0.515   0.815  -1.018  0.00  0.00    +0.167 C 
ENDROOT
BRANCH  10   9
ATOM      1  O   UNL     1      -1.119   2.375   1.392  0.00  0.00    -0.369 OA
ATOM      3  O   UNL     1      -4.377   2.602  -0.150  0.00  0.00    -0.273 OA
ATOM      6  N   UNL     1      -2.845   0.851  -0.208  0.00  0.00    -0.287 N 
ATOM      9  C   UNL     1      -1.481   0.400   0.095  0.00  0.00    +0.135 C 
ATOM     11  C   UNL     1      -1.036   0.956   1.443  0.00  0.00    +0.185 C 
ATOM     13  C   UNL     1      -3.314   2.094   0.213  0.00  0.00    +0.242 C 
ATOM     15  C   UNL     1      -2.458   2.798   1.258  0.00  0.00    +0.255 C 
BRANCH   6  12
ATOM     12  C   UNL     1      -3.635   0.037  -1.122  0.00  0.00    +0.145 C 
BRANCH  12  16
ATOM      8  N   UNL     1      -6.880  -1.301   0.286  0.00  0.00    -0.263 NA
ATOM     16  C   UNL     1      -4.604  -0.848  -0.391  0.00  0.00    -0.012 A 
ATOM     22  C   UNL     1      -4.171  -1.992   0.269  0.00  0.00    +0.008 A 
ATOM     23  C   UNL     1      -5.956  -0.549  -0.354  0.00  0.00    +0.115 A 
ATOM     24  C   UNL     1      -5.091  -2.792   0.938  0.00  0.00    +0.020 A 
ATOM     25  C   UNL     1      -6.422  -2.406   0.917  0.00  0.00    +0.111 A 
ENDBRANCH  12  16
ENDBRANCH   6  12
ENDBRANCH  10   9
BRANCH  10  14
ATOM     14  C   UNL     1       0.888   0.332  -0.752  0.00  0.00    -0.017 A 
ATOM     17  C   UNL     1       1.140  -1.031  -0.599  0.00  0.00    +0.008 A 
ATOM     18  C   UNL     1       1.935   1.250  -0.658  0.00  0.00    +0.008 A 
ATOM     19  C   UNL     1       2.439  -1.477  -0.353  0.00  0.00    +0.023 A 
ATOM     20  C   UNL     1       3.233   0.804  -0.412  0.00  0.00    +0.023 A 
ATOM     21  C   UNL     1       3.485  -0.560  -0.260  0.00  0.00    +0.033 A 
BRANCH  21   7
ATOM      4  O   UNL     1       6.057   0.977   0.023  0.00  0.00    -0.273 OA
ATOM      7  N   UNL     1       4.784  -1.006  -0.014  0.00  0.00    -0.284 N 
ATOM     26  C   UNL     1       5.952  -0.243   0.112  0.00  0.00    +0.243 C 
ATOM     30  H   UNL     1       4.885  -2.014   0.086  0.00  0.00    +0.155 HD
BRANCH  26  27
ATOM     27  C   UNL     1       7.170  -1.101   0.379  0.00  0.00    +0.255 C 
BRANCH  27   5
ATOM      5  O   UNL     1       8.302  -0.263   0.487  0.00  0.00    -0.374 OA
ATOM     28  C   UNL     1       9.490  -1.007   0.739  0.00  0.00    +0.194 C 
ENDBRANCH  27   5
ENDBRANCH  26  27
ENDBRANCH  21   7
ENDBRANCH  10  14
BRANCH  10   2
ATOM      2  O   UNL     1      -0.972   0.286  -2.259  0.00  0.00    -0.385 OA
ATOM     29  H   UNL     1      -0.820  -0.674  -2.273  0.00  0.00    +0.210 HD
ENDBRANCH  10   2
TORSDOF 8
