REMARK  Name = 7049369
REMARK  11 active torsions:
REMARK  status: ('A' for Active; 'I' for Inactive)
REMARK    1  A    between atoms: O_2  and  C_11
REMARK    2  A    between atoms: O_3  and  C_12
REMARK    3  A    between atoms: N_7  and  C_13
REMARK    4  A    between atoms: N_8  and  C_17
REMARK    5  A    between atoms: N_9  and  C_25
REMARK    6  A    between atoms: C_15  and  C_18
REMARK    7  A    between atoms: C_17  and  C_19
REMARK    8  A    between atoms: C_17  and  C_24
REMARK    9  A    between atoms: C_19  and  C_20
REMARK   10  A    between atoms: C_20  and  C_21
REMARK   11  A    between atoms: C_20  and  C_22
REMARK                            x       y       z     vdW  Elec       q    Type
REMARK                         _______ _______ _______ _____ _____    ______ ____
ROOT
ATOM     11  C   UNL     1      -0.329   2.898   0.605  0.00  0.00    +0.167 C 
ATOM     12  C   UNL     1       0.889   3.788   0.334  0.00  0.00    +0.149 C 
ATOM     13  C   UNL     1      -0.406   1.726  -0.392  0.00  0.00    +0.129 C 
ATOM     14  C   UNL     1       2.204   2.990   0.347  0.00  0.00    +0.074 C 
ATOM     15  C   UNL     1       2.084   1.632  -0.282  0.00  0.00    +0.015 C 
ATOM     16  C   UNL     1       0.921   1.057  -0.627  0.00  0.00    +0.006 C 
ENDROOT
BRANCH  13   7
ATOM      5  O   UNL     1      -3.200   1.661  -1.021  0.00  0.00    -0.252 OA
ATOM      7  N   UNL     1      -1.362   0.731   0.029  0.00  0.00    -0.290 N 
ATOM      9  N   UNL     1      -3.395  -0.318   0.226  0.00  0.00    -0.268 N 
ATOM     23  C   UNL     1      -2.716   0.772  -0.324  0.00  0.00    +0.304 C 
ATOM     31  H   UNL     1      -1.051  -0.008   0.653  0.00  0.00    +0.151 HD
ATOM     35  H   UNL     1      -2.846  -0.969   0.782  0.00  0.00    +0.156 HD
BRANCH   9  25
ATOM      1 BR   UNL     1      -4.252  -2.956   1.745  0.00  0.00    -0.048 Br
ATOM     25  C   UNL     1      -4.768  -0.637   0.104  0.00  0.00    +0.049 A 
ATOM     26  C   UNL     1      -5.313  -1.768   0.712  0.00  0.00    +0.039 A 
ATOM     27  C   UNL     1      -5.581   0.211  -0.647  0.00  0.00    +0.024 A 
ATOM     28  C   UNL     1      -6.671  -2.050   0.570  0.00  0.00    +0.017 A 
ATOM     29  C   UNL     1      -6.940  -0.071  -0.790  0.00  0.00    +0.002 A 
ATOM     30  C   UNL     1      -7.485  -1.202  -0.181  0.00  0.00    +0.001 A 
ENDBRANCH   9  25
ENDBRANCH  13   7
BRANCH  15  18
ATOM      4  O   UNL     1       4.174   1.357  -1.301  0.00  0.00    -0.271 OA
ATOM      8  N   UNL     1       3.363  -0.335   0.085  0.00  0.00    -0.300 N 
ATOM     18  C   UNL     1       3.316   0.888  -0.561  0.00  0.00    +0.241 C 
ATOM     32  H   UNL     1       2.618  -0.585   0.730  0.00  0.00    +0.150 HD
BRANCH   8  17
ATOM     17  C   UNL     1       4.472  -1.244  -0.038  0.00  0.00    +0.159 C 
BRANCH  17  24
ATOM      6  O   UNL     1       5.207  -0.390   2.116  0.00  0.00    -0.274 OA
ATOM     10  N   UNL     1       6.797  -1.074   0.606  0.00  0.00    -0.328 N 
ATOM     24  C   UNL     1       5.500  -0.838   1.010  0.00  0.00    +0.231 C 
ATOM     36  H   UNL     1       7.579  -0.861   1.217  0.00  0.00    +0.145 HD
ATOM     37  H   UNL     1       7.023  -1.466  -0.302  0.00  0.00    +0.145 HD
ENDBRANCH  17  24
BRANCH  17  19
ATOM     19  C   UNL     1       4.053  -2.705   0.167  0.00  0.00    +0.034 C 
BRANCH  19  20
ATOM     20  C   UNL     1       2.958  -3.205  -0.798  0.00  0.00    -0.015 C 
ATOM     21  C   UNL     1       2.589  -4.651  -0.455  0.00  0.00    +0.007 C 
ATOM     22  C   UNL     1       3.389  -3.117  -2.263  0.00  0.00    +0.007 C 
ENDBRANCH  19  20
ENDBRANCH  17  19
ENDBRANCH   8  17
ENDBRANCH  15  18
BRANCH  11   2
ATOM      2  O   UNL     1      -0.238   2.389   1.938  0.00  0.00    -0.387 OA
ATOM     33  H   UNL     1      -0.221   3.151   2.541  0.00  0.00    +0.210 HD
ENDBRANCH  11   2
BRANCH  12   3
ATOM      3  O   UNL     1       0.738   4.460  -0.915  0.00  0.00    -0.389 OA
ATOM     34  H   UNL     1       1.506   5.046  -1.029  0.00  0.00    +0.210 HD
ENDBRANCH  12   3
TORSDOF 9
