REMARK  Name = 51137976
REMARK  5 active torsions:
REMARK  status: ('A' for Active; 'I' for Inactive)
REMARK    1  A    between atoms: C_8  and  C_12
REMARK    2  A    between atoms: C_9  and  C_15
REMARK    3  A    between atoms: C_12  and  C_16
REMARK    4  A    between atoms: C_16  and  C_25
REMARK    5  A    between atoms: C_16  and  C_26
REMARK                            x       y       z     vdW  Elec       q    Type
REMARK                         _______ _______ _______ _____ _____    ______ ____
ROOT
ATOM      2  N   UNL     1       2.089   1.178   0.652  0.00  0.00    -0.299 NA
ATOM      5  N   UNL     1       3.768  -3.585   0.655  0.00  0.00    -0.360 N 
ATOM      8  C   UNL     1       2.940   1.055  -0.539  0.00  0.00    +0.085 C 
ATOM      9  C   UNL     1       0.996   0.218   0.720  0.00  0.00    +0.145 C 
ATOM     10  C   UNL     1       1.360  -0.986   1.587  0.00  0.00    +0.065 C 
ATOM     11  C   UNL     1       3.724  -0.255  -0.669  0.00  0.00    -0.021 A 
ATOM     13  C   UNL     1       3.447  -1.452   0.052  0.00  0.00    +0.008 A 
ATOM     14  C   UNL     1       2.457  -1.827   1.025  0.00  0.00    -0.020 A 
ATOM     17  C   UNL     1       4.233  -2.589  -0.171  0.00  0.00    +0.047 A 
ATOM     20  C   UNL     1       2.698  -3.140   1.373  0.00  0.00    +0.087 A 
ATOM     23  C   UNL     1       4.763  -0.331  -1.632  0.00  0.00    +0.006 A 
ATOM     24  C   UNL     1       5.282  -2.630  -1.090  0.00  0.00    +0.026 A 
ATOM     27  C   UNL     1       5.527  -1.480  -1.830  0.00  0.00    +0.002 A 
ATOM     32  H   UNL     1       2.649   1.160   1.503  0.00  0.00    +0.123 HD
ATOM     33  H   UNL     1       4.154  -4.518   0.707  0.00  0.00    +0.165 HD
ENDROOT
BRANCH   9  15
ATOM      1  O   UNL     1       0.100   1.853   2.174  0.00  0.00    -0.274 OA
ATOM      3  N   UNL     1      -1.422   0.569   0.978  0.00  0.00    -0.297 N 
ATOM      4  N   UNL     1      -4.119  -0.011   0.098  0.00  0.00    -0.297 N 
ATOM      6  N   UNL     1      -5.673  -1.536  -0.731  0.00  0.00    -0.223 NA
ATOM      7  N   UNL     1      -6.262   0.773  -0.372  0.00  0.00    -0.223 NA
ATOM     15  C   UNL     1      -0.138   0.959   1.359  0.00  0.00    +0.233 C 
ATOM     18  C   UNL     1      -2.581   1.247   1.552  0.00  0.00    +0.127 C 
ATOM     19  C   UNL     1      -1.704  -0.494   0.009  0.00  0.00    +0.127 C 
ATOM     21  C   UNL     1      -3.744   1.326   0.565  0.00  0.00    +0.127 C 
ATOM     22  C   UNL     1      -3.111  -1.073   0.158  0.00  0.00    +0.127 C 
ATOM     28  C   UNL     1      -5.410  -0.270  -0.356  0.00  0.00    +0.218 A 
ATOM     29  C   UNL     1      -6.932  -1.752  -1.165  0.00  0.00    +0.116 A 
ATOM     30  C   UNL     1      -7.503   0.486  -0.818  0.00  0.00    +0.116 A 
ATOM     31  C   UNL     1      -7.899  -0.769  -1.231  0.00  0.00    +0.039 A 
ENDBRANCH   9  15
BRANCH   8  12
ATOM     12  C   UNL     1       3.858   2.289  -0.490  0.00  0.00    +0.026 C 
BRANCH  12  16
ATOM     16  C   UNL     1       3.152   3.578  -0.923  0.00  0.00    -0.015 C 
ATOM     25  C   UNL     1       4.153   4.736  -0.897  0.00  0.00    +0.007 C 
ATOM     26  C   UNL     1       1.949   3.915  -0.041  0.00  0.00    +0.007 C 
ENDBRANCH  12  16
ENDBRANCH   8  12
TORSDOF 3
