REMARK  Name = 11886486
REMARK  7 active torsions:
REMARK  status: ('A' for Active; 'I' for Inactive)
REMARK    1  A    between atoms: O_3  and  C_10
REMARK    2  A    between atoms: O_3  and  C_13
REMARK    3  A    between atoms: O_5  and  C_25
REMARK    4  A    between atoms: O_5  and  C_27
REMARK    5  A    between atoms: N_6  and  C_9
REMARK    6  A    between atoms: C_13  and  C_15
REMARK    7  A    between atoms: C_14  and  C_16
REMARK                            x       y       z     vdW  Elec       q    Type
REMARK                         _______ _______ _______ _____ _____    ______ ____
ROOT
ATOM      1  O   UNL     1       1.223   0.724   0.794  0.00  0.00    -0.369 OA
ATOM      2  O   UNL     1       1.043   3.255  -0.927  0.00  0.00    -0.369 OA
ATOM      7  C   UNL     1       0.247   2.052  -0.911  0.00  0.00    +0.172 C 
ATOM      8  C   UNL     1       1.195   0.902  -0.632  0.00  0.00    +0.180 C 
ATOM      9  C   UNL     1      -0.678   2.057   0.284  0.00  0.00    +0.130 C 
ATOM     10  C   UNL     1       2.509   1.429  -1.156  0.00  0.00    +0.175 C 
ATOM     11  C   UNL     1       0.232   1.570   1.398  0.00  0.00    +0.185 C 
ATOM     12  C   UNL     1       2.428   2.897  -0.806  0.00  0.00    +0.194 C 
ENDROOT
BRANCH   9   6
ATOM      4  O   UNL     1      -3.260   2.234   1.527  0.00  0.00    -0.270 OA
ATOM      6  N   UNL     1      -1.792   1.162   0.087  0.00  0.00    -0.304 N 
ATOM     14  C   UNL     1      -3.007   1.330   0.735  0.00  0.00    +0.244 C 
ATOM     28  H   UNL     1      -1.618   0.328  -0.464  0.00  0.00    +0.149 HD
BRANCH  14  16
ATOM     16  C   UNL     1      -4.046   0.308   0.445  0.00  0.00    +0.037 A 
ATOM     19  C   UNL     1      -5.012   0.050   1.396  0.00  0.00    +0.016 A 
ATOM     20  C   UNL     1      -4.011  -0.352  -0.766  0.00  0.00    +0.016 A 
ATOM     21  C   UNL     1      -5.986  -0.909   1.124  0.00  0.00    +0.046 A 
ATOM     22  C   UNL     1      -4.986  -1.312  -1.038  0.00  0.00    +0.046 A 
ATOM     25  C   UNL     1      -5.974  -1.591  -0.094  0.00  0.00    +0.120 A 
BRANCH  25   5
ATOM      5  O   UNL     1      -6.924  -2.528  -0.359  0.00  0.00    -0.495 OA
ATOM     27  C   UNL     1      -6.852  -3.186  -1.623  0.00  0.00    +0.277 C 
ENDBRANCH  25   5
ENDBRANCH  14  16
ENDBRANCH   9   6
BRANCH  10   3
ATOM      3  O   UNL     1       3.635   0.807  -0.578  0.00  0.00    -0.367 OA
BRANCH   3  13
ATOM     13  C   UNL     1       3.709  -0.577  -0.909  0.00  0.00    +0.195 C 
BRANCH  13  15
ATOM     15  C   UNL     1       4.926  -1.171  -0.263  0.00  0.00    -0.022 A 
ATOM     17  C   UNL     1       6.137  -1.173  -0.947  0.00  0.00    +0.006 A 
ATOM     18  C   UNL     1       4.832  -1.714   1.014  0.00  0.00    +0.006 A 
ATOM     23  C   UNL     1       7.268  -1.726  -0.346  0.00  0.00    +0.000 A 
ATOM     24  C   UNL     1       5.963  -2.266   1.615  0.00  0.00    +0.000 A 
ATOM     26  C   UNL     1       7.181  -2.272   0.935  0.00  0.00    +0.000 A 
ENDBRANCH  13  15
ENDBRANCH   3  13
ENDBRANCH  10   3
TORSDOF 6
