REMARK  Name = 51137876
REMARK  4 active torsions:
REMARK  status: ('A' for Active; 'I' for Inactive)
REMARK    1  A    between atoms: N_3  and  C_8
REMARK    2  A    between atoms: C_9  and  C_17
REMARK    3  A    between atoms: C_18  and  C_21
REMARK    4  A    between atoms: C_22  and  C_26
REMARK                            x       y       z     vdW  Elec       q    Type
REMARK                         _______ _______ _______ _____ _____    ______ ____
ROOT
ATOM      5  N   UNL     1      -2.806   2.058  -0.271  0.00  0.00    -0.342 N 
ATOM      6  N   UNL     1      -2.388  -0.037   0.340  0.00  0.00    -0.231 NA
ATOM     17  C   UNL     1      -1.892   1.174   0.231  0.00  0.00    +0.113 A 
ATOM     19  C   UNL     1      -3.970   1.371  -0.501  0.00  0.00    +0.067 A 
ATOM     20  C   UNL     1      -3.684   0.065  -0.112  0.00  0.00    +0.101 A 
ATOM     22  C   UNL     1      -4.683  -0.917  -0.221  0.00  0.00    +0.064 A 
ATOM     23  C   UNL     1      -5.211   1.767  -1.001  0.00  0.00    +0.028 A 
ATOM     24  C   UNL     1      -5.936  -0.542  -0.720  0.00  0.00    +0.015 A 
ATOM     25  C   UNL     1      -6.194   0.776  -1.103  0.00  0.00    +0.003 A 
ATOM     27  H   UNL     1      -2.655   3.043  -0.443  0.00  0.00    +0.167 HD
ENDROOT
BRANCH  22  26
ATOM      2  O   UNL     1      -5.299  -3.171   0.072  0.00  0.00    -0.270 OA
ATOM      7  N   UNL     1      -3.159  -2.599   0.666  0.00  0.00    -0.325 N 
ATOM     26  C   UNL     1      -4.426  -2.289   0.177  0.00  0.00    +0.244 C 
ATOM     28  H   UNL     1      -2.940  -3.549   0.948  0.00  0.00    +0.145 HD
ATOM     29  H   UNL     1      -2.410  -1.923   0.766  0.00  0.00    +0.145 HD
ENDBRANCH  22  26
BRANCH  17   9
ATOM      3  N   UNL     1       1.725   0.863   0.731  0.00  0.00    -0.299 NA
ATOM      9  C   UNL     1      -0.492   1.614   0.596  0.00  0.00    +0.070 C 
ATOM     10  C   UNL     1       0.593   0.875  -0.198  0.00  0.00    +0.096 C 
ATOM     11  C   UNL     1       1.142   0.533   2.032  0.00  0.00    +0.085 C 
ATOM     12  C   UNL     1      -0.111   1.399   2.071  0.00  0.00    +0.028 C 
BRANCH   3   8
ATOM      1  O   UNL     1       7.720  -0.411   0.234  0.00  0.00    -0.276 OA
ATOM      4  N   UNL     1       5.503  -0.637  -0.425  0.00  0.00    -0.302 N 
ATOM      8  C   UNL     1       2.764  -0.083   0.332  0.00  0.00    +0.060 C 
ATOM     13  C   UNL     1       3.303   0.282  -1.057  0.00  0.00    +0.038 C 
ATOM     14  C   UNL     1       3.899  -0.085   1.364  0.00  0.00    +0.038 C 
ATOM     15  C   UNL     1       4.458  -0.637  -1.456  0.00  0.00    +0.109 C 
ATOM     16  C   UNL     1       5.040  -0.997   0.917  0.00  0.00    +0.109 C 
ATOM     18  C   UNL     1       6.854  -0.368  -0.644  0.00  0.00    +0.212 C 
ATOM     21  C   UNL     1       7.250  -0.003  -2.053  0.00  0.00    +0.109 C 
ENDBRANCH   3   8
ENDBRANCH  17   9
TORSDOF 3
