REMARK  Name = 40722264
REMARK  8 active torsions:
REMARK  status: ('A' for Active; 'I' for Inactive)
REMARK    1  A    between atoms: O_2  and  C_23
REMARK    2  A    between atoms: O_2  and  C_32
REMARK    3  A    between atoms: N_4  and  C_16
REMARK    4  A    between atoms: N_5  and  C_19
REMARK    5  A    between atoms: C_10  and  C_16
REMARK    6  A    between atoms: C_11  and  C_17
REMARK    7  A    between atoms: C_19  and  C_21
REMARK    8  A    between atoms: C_20  and  C_22
REMARK                            x       y       z     vdW  Elec       q    Type
REMARK                         _______ _______ _______ _____ _____    ______ ____
ROOT
ATOM      3  N   UNL     1       1.475   3.080  -1.112  0.00  0.00    -0.297 NA
ATOM      9  C   UNL     1       1.314   3.033   1.485  0.00  0.00    +0.005 C 
ATOM     10  C   UNL     1       0.105   2.676  -0.695  0.00  0.00    +0.078 C 
ATOM     11  C   UNL     1       2.513   2.205   0.986  0.00  0.00    +0.092 C 
ATOM     12  C   UNL     1       0.024   2.492   0.836  0.00  0.00    +0.025 C 
ATOM     13  C   UNL     1       1.519   4.468   0.969  0.00  0.00    +0.020 C 
ATOM     14  C   UNL     1       2.480   2.143  -0.552  0.00  0.00    +0.097 C 
ATOM     15  C   UNL     1       1.740   4.430  -0.555  0.00  0.00    +0.085 C 
ENDROOT
BRANCH  11  17
ATOM      1  O   UNL     1       1.653   0.454   2.363  0.00  0.00    -0.275 OA
ATOM      5  N   UNL     1       3.630   0.095   1.186  0.00  0.00    -0.311 N 
ATOM     17  C   UNL     1       2.529   0.832   1.589  0.00  0.00    +0.218 C 
ATOM     33  H   UNL     1       4.298   0.508   0.543  0.00  0.00    +0.149 HD
BRANCH   5  19
ATOM     19  C   UNL     1       3.890  -1.251   1.643  0.00  0.00    +0.143 C 
BRANCH  19  21
ATOM     21  C   UNL     1       3.302  -2.281   0.722  0.00  0.00    +0.011 A 
ATOM     23  C   UNL     1       3.688  -2.341  -0.618  0.00  0.00    +0.125 A 
ATOM     24  C   UNL     1       2.361  -3.182   1.218  0.00  0.00    +0.009 A 
ATOM     26  C   UNL     1       3.131  -3.304  -1.460  0.00  0.00    +0.046 A 
ATOM     27  C   UNL     1       1.805  -4.144   0.376  0.00  0.00    +0.001 A 
ATOM     28  C   UNL     1       2.190  -4.205  -0.964  0.00  0.00    +0.004 A 
BRANCH  23   2
ATOM      2  O   UNL     1       4.605  -1.468  -1.120  0.00  0.00    -0.495 OA
ATOM     32  C   UNL     1       4.940  -1.603  -2.499  0.00  0.00    +0.277 C 
ENDBRANCH  23   2
ENDBRANCH  19  21
ENDBRANCH   5  19
ENDBRANCH  11  17
BRANCH  10  16
ATOM     16  C   UNL     1      -0.391   1.438  -1.445  0.00  0.00    +0.164 C 
BRANCH  16   4
ATOM      4  N   UNL     1      -1.837   1.155  -1.146  0.00  0.00    -0.250 N 
ATOM      6  N   UNL     1      -2.782   2.073  -1.405  0.00  0.00    -0.065 NA
ATOM      7  N   UNL     1      -3.949   1.550  -1.043  0.00  0.00    -0.128 NA
ATOM     18  C   UNL     1      -2.370   0.022  -0.613  0.00  0.00    +0.140 A 
ATOM     20  C   UNL     1      -3.713   0.295  -0.556  0.00  0.00    +0.131 A 
BRANCH  20  22
ATOM      8  N   UNL     1      -4.283  -1.790   0.374  0.00  0.00    -0.253 NA
ATOM     22  C   UNL     1      -4.721  -0.589  -0.065  0.00  0.00    +0.092 A 
ATOM     25  C   UNL     1      -6.051  -0.199  -0.059  0.00  0.00    +0.030 A 
ATOM     29  C   UNL     1      -6.991  -1.099   0.429  0.00  0.00    +0.004 A 
ATOM     30  C   UNL     1      -5.226  -2.639   0.842  0.00  0.00    +0.111 A 
ATOM     31  C   UNL     1      -6.579  -2.345   0.890  0.00  0.00    +0.020 A 
ENDBRANCH  20  22
ENDBRANCH  16   4
ENDBRANCH  10  16
TORSDOF 7
