REMARK  Name = 38029393
REMARK  12 active torsions:
REMARK  status: ('A' for Active; 'I' for Inactive)
REMARK    1  A    between atoms: N_3  and  C_13
REMARK    2  A    between atoms: N_4  and  C_20
REMARK    3  A    between atoms: C_6  and  C_10
REMARK    4  A    between atoms: C_7  and  C_13
REMARK    5  A    between atoms: C_9  and  C_14
REMARK    6  A    between atoms: C_10  and  C_15
REMARK    7  A    between atoms: C_10  and  C_16
REMARK    8  A    between atoms: C_11  and  C_17
REMARK    9  A    between atoms: C_14  and  C_18
REMARK   10  A    between atoms: C_19  and  C_21
REMARK   11  A    between atoms: C_20  and  C_22
REMARK   12  A    between atoms: C_32  and  C_33
REMARK                            x       y       z     vdW  Elec       q    Type
REMARK                         _______ _______ _______ _____ _____    ______ ____
ROOT
ATOM      6  C   UNL     1       0.743   1.757  -1.208  0.00  0.00    +0.000 C 
ATOM      7  C   UNL     1       2.184   2.111  -1.653  0.00  0.00    +0.032 C 
ATOM      8  C   UNL     1       0.231   2.781  -0.184  0.00  0.00    +0.012 C 
ATOM      9  C   UNL     1       1.125   2.849   1.069  0.00  0.00    +0.023 C 
ATOM     11  C   UNL     1       2.595   2.929   0.708  0.00  0.00    -0.073 C 
ATOM     12  C   UNL     1       3.048   2.609  -0.517  0.00  0.00    -0.022 C 
ATOM     17  C   UNL     1       3.528   3.431   1.775  0.00  0.00    +0.039 C 
ENDROOT
BRANCH   6  10
ATOM     10  C   UNL     1      -0.219   1.690  -2.399  0.00  0.00    -0.013 C 
ATOM     15  C   UNL     1      -0.684   3.090  -2.787  0.00  0.00    +0.007 C 
ATOM     16  C   UNL     1      -1.410   0.796  -2.070  0.00  0.00    +0.007 C 
ENDBRANCH   6  10
BRANCH   7  13
ATOM     13  C   UNL     1       2.865   0.914  -2.326  0.00  0.00    +0.112 C 
BRANCH  13   3
ATOM      2  O   UNL     1       1.801  -1.746  -2.509  0.00  0.00    -0.270 OA
ATOM      3  N   UNL     1       3.061  -0.149  -1.392  0.00  0.00    -0.311 N 
ATOM     19  C   UNL     1       2.505  -1.417  -1.558  0.00  0.00    +0.244 C 
ATOM     34  H   UNL     1       3.627   0.053  -0.575  0.00  0.00    +0.149 HD
BRANCH  19  21
ATOM     21  C   UNL     1       2.782  -2.406  -0.484  0.00  0.00    +0.037 A 
ATOM     23  C   UNL     1       1.883  -3.444  -0.242  0.00  0.00    +0.013 A 
ATOM     24  C   UNL     1       3.941  -2.294   0.283  0.00  0.00    +0.013 A 
ATOM     27  C   UNL     1       2.143  -4.372   0.767  0.00  0.00    +0.001 A 
ATOM     28  C   UNL     1       4.202  -3.222   1.292  0.00  0.00    +0.001 A 
ATOM     29  C   UNL     1       3.303  -4.261   1.534  0.00  0.00    +0.000 A 
ENDBRANCH  19  21
ENDBRANCH  13   3
ENDBRANCH   7  13
BRANCH   9  14
ATOM     14  C   UNL     1       0.855   1.666   2.005  0.00  0.00    +0.103 C 
BRANCH  14  18
ATOM      1  O   UNL     1      -1.369   2.512   2.447  0.00  0.00    -0.276 OA
ATOM      4  N   UNL     1      -0.964   0.228   2.589  0.00  0.00    -0.311 N 
ATOM     18  C   UNL     1      -0.609   1.550   2.366  0.00  0.00    +0.214 C 
ATOM     35  H   UNL     1      -0.263  -0.502   2.494  0.00  0.00    +0.149 HD
BRANCH   4  20
ATOM     20  C   UNL     1      -2.301  -0.180   2.952  0.00  0.00    +0.139 C 
BRANCH  20  22
ATOM     22  C   UNL     1      -3.144  -0.480   1.746  0.00  0.00    -0.030 A 
ATOM     25  C   UNL     1      -4.319   0.238   1.521  0.00  0.00    +0.006 A 
ATOM     26  C   UNL     1      -2.752  -1.475   0.851  0.00  0.00    +0.006 A 
ATOM     30  C   UNL     1      -5.102  -0.041   0.401  0.00  0.00    +0.019 A 
ATOM     31  C   UNL     1      -3.535  -1.753  -0.269  0.00  0.00    +0.019 A 
ATOM     32  C   UNL     1      -4.710  -1.036  -0.494  0.00  0.00    +0.052 A 
BRANCH  32  33
ATOM      5  N   UNL     1      -6.164  -1.552  -2.574  0.00  0.00    -0.191 NA
ATOM     33  C   UNL     1      -5.513  -1.321  -1.642  0.00  0.00    +0.099 C 
ENDBRANCH  32  33
ENDBRANCH  20  22
ENDBRANCH   4  20
ENDBRANCH  14  18
ENDBRANCH   9  14
TORSDOF 9
