REMARK  Name = 38029498
REMARK  9 active torsions:
REMARK  status: ('A' for Active; 'I' for Inactive)
REMARK    1  A    between atoms: N_4  and  C_14
REMARK    2  A    between atoms: C_7  and  C_11
REMARK    3  A    between atoms: C_8  and  C_14
REMARK    4  A    between atoms: C_10  and  C_15
REMARK    5  A    between atoms: C_11  and  C_16
REMARK    6  A    between atoms: C_11  and  C_17
REMARK    7  A    between atoms: C_12  and  C_18
REMARK    8  A    between atoms: C_15  and  C_19
REMARK    9  A    between atoms: C_20  and  C_21
REMARK                            x       y       z     vdW  Elec       q    Type
REMARK                         _______ _______ _______ _____ _____    ______ ____
ROOT
ATOM      7  C   UNL     1      -1.179   2.433   0.625  0.00  0.00    +0.000 C 
ATOM      8  C   UNL     1      -2.342   2.734  -0.353  0.00  0.00    +0.032 C 
ATOM      9  C   UNL     1       0.150   2.951   0.053  0.00  0.00    +0.012 C 
ATOM     10  C   UNL     1       0.484   2.318  -1.311  0.00  0.00    +0.023 C 
ATOM     12  C   UNL     1      -0.708   2.337  -2.247  0.00  0.00    -0.073 C 
ATOM     13  C   UNL     1      -1.962   2.537  -1.802  0.00  0.00    -0.022 C 
ATOM     18  C   UNL     1      -0.421   2.164  -3.712  0.00  0.00    +0.039 C 
ENDROOT
BRANCH   7  11
ATOM     11  C   UNL     1      -1.424   3.047   2.006  0.00  0.00    -0.013 C 
ATOM     16  C   UNL     1      -1.041   4.524   2.007  0.00  0.00    +0.007 C 
ATOM     17  C   UNL     1      -0.644   2.286   3.073  0.00  0.00    +0.007 C 
ENDBRANCH   7  11
BRANCH   8  14
ATOM     14  C   UNL     1      -3.573   1.881  -0.028  0.00  0.00    +0.112 C 
BRANCH  14   4
ATOM      3  O   UNL     1      -3.696  -0.228   1.917  0.00  0.00    -0.270 OA
ATOM      4  N   UNL     1      -3.304   0.495  -0.254  0.00  0.00    -0.311 N 
ATOM     20  C   UNL     1      -3.388  -0.467   0.752  0.00  0.00    +0.244 C 
ATOM     32  H   UNL     1      -3.133   0.207  -1.211  0.00  0.00    +0.149 HD
BRANCH  20  21
ATOM      1  F   UNL     1      -2.119  -5.734  -0.723  0.00  0.00    -0.205 F 
ATOM     21  C   UNL     1      -3.052  -1.861   0.362  0.00  0.00    +0.037 A 
ATOM     23  C   UNL     1      -3.612  -2.933   1.055  0.00  0.00    +0.016 A 
ATOM     24  C   UNL     1      -2.176  -2.097  -0.698  0.00  0.00    +0.016 A 
ATOM     26  C   UNL     1      -3.297  -4.242   0.689  0.00  0.00    +0.039 A 
ATOM     27  C   UNL     1      -1.861  -3.405  -1.064  0.00  0.00    +0.039 A 
ATOM     29  C   UNL     1      -2.421  -4.478  -0.370  0.00  0.00    +0.123 A 
ENDBRANCH  20  21
ENDBRANCH  14   4
ENDBRANCH   8  14
BRANCH  10  15
ATOM     15  C   UNL     1       1.027   0.895  -1.142  0.00  0.00    +0.104 C 
BRANCH  15  19
ATOM      2  O   UNL     1       3.072   1.910  -0.375  0.00  0.00    -0.275 OA
ATOM      5  N   UNL     1       2.890  -0.430  -0.467  0.00  0.00    -0.270 N 
ATOM      6  N   UNL     1       4.388  -2.197   0.069  0.00  0.00    -0.240 NA
ATOM     19  C   UNL     1       2.448   0.882  -0.616  0.00  0.00    +0.219 C 
ATOM     22  C   UNL     1       4.153  -0.867  -0.004  0.00  0.00    +0.125 A 
ATOM     25  C   UNL     1       5.076   0.104   0.348  0.00  0.00    +0.044 A 
ATOM     28  C   UNL     1       6.321  -0.316   0.803  0.00  0.00    +0.005 A 
ATOM     30  C   UNL     1       5.609  -2.567   0.516  0.00  0.00    +0.113 A 
ATOM     31  C   UNL     1       6.601  -1.675   0.892  0.00  0.00    +0.020 A 
ATOM     33  H   UNL     1       2.252  -1.184  -0.711  0.00  0.00    +0.156 HD
ENDBRANCH  15  19
ENDBRANCH  10  15
TORSDOF 6
