REMARK  Name = 51137713
REMARK  3 active torsions:
REMARK  status: ('A' for Active; 'I' for Inactive)
REMARK    1  A    between atoms: C_6  and  C_10
REMARK    2  A    between atoms: C_11  and  C_12
REMARK    3  A    between atoms: C_13  and  C_16
REMARK                            x       y       z     vdW  Elec       q    Type
REMARK                         _______ _______ _______ _____ _____    ______ ____
ROOT
ATOM      2  O   UNL     1      -2.037  -1.844   1.703  0.00  0.00    -0.270 OA
ATOM      3  N   UNL     1      -0.491  -1.318   0.051  0.00  0.00    -0.297 N 
ATOM      6  C   UNL     1       1.509  -0.806  -1.132  0.00  0.00    +0.095 C 
ATOM      7  C   UNL     1       1.559  -2.261  -0.639  0.00  0.00    +0.033 C 
ATOM      8  C   UNL     1       0.008  -0.494  -1.051  0.00  0.00    +0.121 C 
ATOM      9  C   UNL     1       0.491  -2.316   0.445  0.00  0.00    +0.109 C 
ATOM     11  C   UNL     1      -1.689  -1.173   0.733  0.00  0.00    +0.247 C 
ENDROOT
BRANCH   6  10
ATOM      1  O   UNL     1       3.713   0.214  -0.772  0.00  0.00    -0.425 OA
ATOM      4  N   UNL     1       2.187   0.783   0.762  0.00  0.00    -0.112 NA
ATOM      5  N   UNL     1       3.372   1.422   1.080  0.00  0.00    -0.113 NA
ATOM     10  C   UNL     1       2.433   0.090  -0.325  0.00  0.00    +0.222 A 
ATOM     13  C   UNL     1       4.233   1.061   0.158  0.00  0.00    +0.214 A 
ATOM     16  C   UNL     1       5.643   1.438  -0.004  0.00  0.00    +0.111 C 
ENDBRANCH   6  10
BRANCH  11  12
ATOM     12  C   UNL     1      -2.612  -0.126   0.270  0.00  0.00    +0.037 A 
ATOM     14  C   UNL     1      -3.111  -0.161  -1.032  0.00  0.00    +0.013 A 
ATOM     15  C   UNL     1      -2.990   0.902   1.134  0.00  0.00    +0.013 A 
ATOM     17  C   UNL     1      -3.987   0.832  -1.470  0.00  0.00    +0.001 A 
ATOM     18  C   UNL     1      -3.866   1.895   0.696  0.00  0.00    +0.001 A 
ATOM     19  C   UNL     1      -4.365   1.860  -0.606  0.00  0.00    +0.000 A 
ENDBRANCH  11  12
TORSDOF 2
