REMARK  Name = 71693712
REMARK  8 active torsions:
REMARK  status: ('A' for Active; 'I' for Inactive)
REMARK    1  A    between atoms: O_3  and  C_17
REMARK    2  A    between atoms: N_6  and  C_9
REMARK    3  A    between atoms: N_7  and  C_24
REMARK    4  A    between atoms: N_8  and  C_26
REMARK    5  A    between atoms: C_10  and  C_17
REMARK    6  A    between atoms: C_11  and  C_19
REMARK    7  A    between atoms: C_26  and  C_27
REMARK    8  A    between atoms: C_26  and  C_28
REMARK                            x       y       z     vdW  Elec       q    Type
REMARK                         _______ _______ _______ _____ _____    ______ ____
ROOT
ATOM      1  O   UNL     1      -1.608   2.226  -1.317  0.00  0.00    -0.361 OA
ATOM      4  O   UNL     1      -4.555   0.596  -1.918  0.00  0.00    -0.273 OA
ATOM      6  N   UNL     1      -3.151   0.387  -0.066  0.00  0.00    -0.288 N 
ATOM     10  C   UNL     1      -2.204   1.075   0.820  0.00  0.00    +0.135 C 
ATOM     11  C   UNL     1      -1.194   1.941   0.023  0.00  0.00    +0.171 C 
ATOM     14  C   UNL     1      -3.659   1.026  -1.194  0.00  0.00    +0.242 C 
ATOM     18  C   UNL     1      -3.006   2.360  -1.465  0.00  0.00    +0.256 C 
ENDROOT
BRANCH   6   9
ATOM      2  O   UNL     1      -5.396  -3.139  -0.128  0.00  0.00    -0.380 OA
ATOM      9  C   UNL     1      -3.637  -0.908   0.337  0.00  0.00    +0.081 C 
ATOM     12  C   UNL     1      -5.130  -0.860   0.667  0.00  0.00    +0.050 C 
ATOM     13  C   UNL     1      -3.368  -1.954  -0.746  0.00  0.00    +0.050 C 
ATOM     15  C   UNL     1      -5.660  -2.257   0.963  0.00  0.00    +0.161 C 
ATOM     16  C   UNL     1      -3.998  -3.289  -0.373  0.00  0.00    +0.161 C 
ENDBRANCH   6   9
BRANCH  11  19
ATOM     19  C   UNL     1       0.161   1.264  -0.063  0.00  0.00    -0.017 A 
ATOM     20  C   UNL     1       0.281   0.018  -0.680  0.00  0.00    +0.008 A 
ATOM     21  C   UNL     1       1.288   1.887   0.475  0.00  0.00    +0.008 A 
ATOM     22  C   UNL     1       1.527  -0.603  -0.759  0.00  0.00    +0.024 A 
ATOM     23  C   UNL     1       2.534   1.266   0.395  0.00  0.00    +0.024 A 
ATOM     24  C   UNL     1       2.653   0.020  -0.222  0.00  0.00    +0.035 A 
BRANCH  24   7
ATOM      5  O   UNL     1       5.341   0.921   0.762  0.00  0.00    -0.253 OA
ATOM      7  N   UNL     1       3.900  -0.602  -0.302  0.00  0.00    -0.269 N 
ATOM      8  N   UNL     1       6.157  -1.062  -0.102  0.00  0.00    -0.297 N 
ATOM     25  C   UNL     1       5.143  -0.140   0.176  0.00  0.00    +0.304 C 
ATOM     30  H   UNL     1       3.910  -1.508  -0.765  0.00  0.00    +0.156 HD
ATOM     31  H   UNL     1       5.926  -1.881  -0.656  0.00  0.00    +0.151 HD
BRANCH   8  26
ATOM     26  C   UNL     1       7.537  -0.852   0.272  0.00  0.00    +0.068 C 
ATOM     27  C   UNL     1       8.217  -2.181   0.576  0.00  0.00    +0.027 C 
ATOM     28  C   UNL     1       8.274  -0.093  -0.824  0.00  0.00    +0.027 C 
ENDBRANCH   8  26
ENDBRANCH  24   7
ENDBRANCH  11  19
BRANCH  10  17
ATOM     17  C   UNL     1      -2.952   1.915   1.864  0.00  0.00    +0.181 C 
BRANCH  17   3
ATOM      3  O   UNL     1      -3.494   1.039   2.830  0.00  0.00    -0.393 OA
ATOM     29  H   UNL     1      -3.963   1.584   3.484  0.00  0.00    +0.209 HD
ENDBRANCH  17   3
ENDBRANCH  10  17
TORSDOF 6
