REMARK  Name = 7113963
REMARK  6 active torsions:
REMARK  status: ('A' for Active; 'I' for Inactive)
REMARK    1  A    between atoms: S_1  and  N_12
REMARK    2  A    between atoms: S_1  and  C_31
REMARK    3  A    between atoms: N_9  and  C_18
REMARK    4  A    between atoms: N_12  and  C_27
REMARK    5  A    between atoms: C_29  and  C_30
REMARK    6  A    between atoms: C_34  and  C_37
REMARK                            x       y       z     vdW  Elec       q    Type
REMARK                         _______ _______ _______ _____ _____    ______ ____
ROOT
ATOM      5  O   UNL     1      -0.203  -3.076   1.937  0.00  0.00    -0.266 OA
ATOM      9  N   UNL     1       3.509  -0.711  -0.475  0.00  0.00    -0.298 NA
ATOM     10  N   UNL     1       1.201  -2.842   0.075  0.00  0.00    -0.310 N 
ATOM     13  C   UNL     1       3.745  -3.116   0.192  0.00  0.00    +0.024 C 
ATOM     14  C   UNL     1       2.681  -2.556  -1.942  0.00  0.00    +0.050 C 
ATOM     15  C   UNL     1       3.616  -3.553  -1.262  0.00  0.00    +0.017 C 
ATOM     16  C   UNL     1       4.320  -1.686   0.266  0.00  0.00    +0.090 C 
ATOM     17  C   UNL     1       3.293  -1.139  -1.865  0.00  0.00    +0.094 C 
ATOM     19  C   UNL     1       2.373  -3.236   0.869  0.00  0.00    +0.130 C 
ATOM     20  C   UNL     1       1.308  -2.578  -1.297  0.00  0.00    +0.026 A 
ATOM     25  C   UNL     1       0.208  -2.327  -2.031  0.00  0.00    +0.024 A 
ATOM     26  C   UNL     1      -0.043  -2.839   0.740  0.00  0.00    +0.274 A 
ATOM     27  C   UNL     1      -1.216  -2.533  -0.118  0.00  0.00    +0.112 A 
ATOM     28  C   UNL     1      -1.096  -2.302  -1.425  0.00  0.00    +0.031 A 
ENDROOT
BRANCH   9  18
ATOM      6  O   UNL     1       3.789   4.767   2.273  0.00  0.00    -0.276 OA
ATOM     11  N   UNL     1       4.030   3.386   0.420  0.00  0.00    -0.302 N 
ATOM     18  C   UNL     1       4.112   0.618  -0.424  0.00  0.00    +0.060 C 
ATOM     21  C   UNL     1       4.374   1.023   1.032  0.00  0.00    +0.038 C 
ATOM     22  C   UNL     1       3.194   1.640  -1.107  0.00  0.00    +0.038 C 
ATOM     23  C   UNL     1       4.916   2.449   1.113  0.00  0.00    +0.109 C 
ATOM     24  C   UNL     1       3.760   3.054  -0.984  0.00  0.00    +0.109 C 
ATOM     29  C   UNL     1       3.548   4.510   1.091  0.00  0.00    +0.212 C 
ATOM     30  C   UNL     1       2.678   5.450   0.295  0.00  0.00    +0.109 C 
ENDBRANCH   9  18
BRANCH  27  12
ATOM     12  N   UNL     1      -2.508  -2.495   0.437  0.00  0.00    -0.211 N 
ATOM     38  H   UNL     1      -3.250  -2.557  -0.275  0.00  0.00    +0.174 HD
BRANCH  12   1
ATOM      1  S   UNL     1      -2.792  -1.353   1.653  0.00  0.00    +0.073 S 
ATOM      7  O   UNL     1      -3.356  -2.008   2.817  0.00  0.00    -0.150 OA
ATOM      8  O   UNL     1      -1.635  -0.488   1.790  0.00  0.00    -0.150 OA
BRANCH   1  31
ATOM     31  C   UNL     1      -4.081  -0.396   0.910  0.00  0.00    +0.109 A 
ATOM     32  C   UNL     1      -3.746   0.700   0.135  0.00  0.00    +0.041 A 
ATOM     33  C   UNL     1      -5.399  -0.761   1.120  0.00  0.00    +0.029 A 
ATOM     34  C   UNL     1      -4.762   1.455  -0.450  0.00  0.00    +0.057 A 
ATOM     35  C   UNL     1      -6.415  -0.005   0.535  0.00  0.00    +0.002 A 
ATOM     36  C   UNL     1      -6.097   1.103  -0.250  0.00  0.00    +0.012 A 
BRANCH  34  37
ATOM      2  F   UNL     1      -5.513   3.286  -1.795  0.00  0.00    -0.166 F 
ATOM      3  F   UNL     1      -3.720   3.602  -0.616  0.00  0.00    -0.166 F 
ATOM      4  F   UNL     1      -3.653   2.316  -2.369  0.00  0.00    -0.166 F 
ATOM     37  C   UNL     1      -4.421   2.641  -1.288  0.00  0.00    +0.417 C 
ENDBRANCH  34  37
ENDBRANCH   1  31
ENDBRANCH  12   1
ENDBRANCH  27  12
TORSDOF 5
