REMARK  Name = 51137477
REMARK  8 active torsions:
REMARK  status: ('A' for Active; 'I' for Inactive)
REMARK    1  A    between atoms: O_2  and  C_22
REMARK    2  A    between atoms: O_2  and  C_29
REMARK    3  A    between atoms: N_4  and  C_12
REMARK    4  A    between atoms: N_7  and  C_21
REMARK    5  A    between atoms: C_8  and  C_13
REMARK    6  A    between atoms: C_12  and  C_14
REMARK    7  A    between atoms: C_17  and  C_20
REMARK    8  A    between atoms: C_27  and  C_28
REMARK                            x       y       z     vdW  Elec       q    Type
REMARK                         _______ _______ _______ _____ _____    ______ ____
ROOT
ATOM      4  N   UNL     1      -0.981  -2.874   0.584  0.00  0.00    -0.297 NA
ATOM      8  C   UNL     1       1.032  -3.183  -0.640  0.00  0.00    +0.092 C 
ATOM      9  C   UNL     1       1.110  -3.857   0.739  0.00  0.00    +0.029 C 
ATOM     10  C   UNL     1      -0.427  -2.708  -0.763  0.00  0.00    +0.097 C 
ATOM     11  C   UNL     1      -0.343  -4.070   1.130  0.00  0.00    +0.085 C 
ENDROOT
BRANCH   8  13
ATOM      1  O   UNL     1       2.004  -1.038   0.033  0.00  0.00    -0.420 OA
ATOM      5  N   UNL     1       3.048  -2.011  -1.689  0.00  0.00    -0.112 NA
ATOM      6  N   UNL     1       3.694  -0.820  -1.417  0.00  0.00    -0.107 NA
ATOM     13  C   UNL     1       2.069  -2.097  -0.819  0.00  0.00    +0.222 A 
ATOM     17  C   UNL     1       3.050  -0.286  -0.405  0.00  0.00    +0.252 A 
BRANCH  17  20
ATOM     20  C   UNL     1       3.276   0.944   0.297  0.00  0.00    +0.080 A 
ATOM     22  C   UNL     1       4.322   1.793  -0.064  0.00  0.00    +0.132 A 
ATOM     23  C   UNL     1       2.434   1.287   1.355  0.00  0.00    +0.017 A 
ATOM     24  C   UNL     1       4.527   2.984   0.632  0.00  0.00    +0.046 A 
ATOM     25  C   UNL     1       2.639   2.478   2.052  0.00  0.00    +0.001 A 
ATOM     26  C   UNL     1       3.685   3.327   1.690  0.00  0.00    +0.004 A 
BRANCH  22   2
ATOM      2  O   UNL     1       5.161   1.483  -1.094  0.00  0.00    -0.494 OA
ATOM     29  C   UNL     1       6.199   2.416  -1.385  0.00  0.00    +0.277 C 
ENDBRANCH  22   2
ENDBRANCH  17  20
ENDBRANCH   8  13
BRANCH   4  12
ATOM     12  C   UNL     1      -2.433  -2.966   0.584  0.00  0.00    +0.119 C 
BRANCH  12  14
ATOM     14  C   UNL     1      -3.081  -1.610   0.490  0.00  0.00    -0.033 A 
ATOM     15  C   UNL     1      -3.128  -0.781   1.611  0.00  0.00    +0.007 A 
ATOM     16  C   UNL     1      -3.633  -1.183  -0.718  0.00  0.00    +0.007 A 
ATOM     18  C   UNL     1      -3.728   0.475   1.524  0.00  0.00    +0.023 A 
ATOM     19  C   UNL     1      -4.233   0.073  -0.804  0.00  0.00    +0.023 A 
ATOM     21  C   UNL     1      -4.280   0.902   0.316  0.00  0.00    +0.033 A 
BRANCH  21   7
ATOM      3  O   UNL     1      -5.603   2.280  -2.012  0.00  0.00    -0.276 OA
ATOM      7  N   UNL     1      -4.880   2.159   0.229  0.00  0.00    -0.286 N 
ATOM     27  C   UNL     1      -5.483   2.754  -0.888  0.00  0.00    +0.214 C 
ATOM     28  C   UNL     1      -6.016   4.128  -0.569  0.00  0.00    +0.109 C 
ATOM     30  H   UNL     1      -4.875   2.703   1.089  0.00  0.00    +0.155 HD
ENDBRANCH  21   7
ENDBRANCH  12  14
ENDBRANCH   4  12
TORSDOF 6
