REMARK  Name = 28963135
REMARK  11 active torsions:
REMARK  status: ('A' for Active; 'I' for Inactive)
REMARK    1  A    between atoms: O_1  and  C_10
REMARK    2  A    between atoms: N_4  and  C_14
REMARK    3  A    between atoms: N_5  and  C_23
REMARK    4  A    between atoms: N_6  and  C_24
REMARK    5  A    between atoms: C_7  and  C_17
REMARK    6  A    between atoms: C_9  and  C_19
REMARK    7  A    between atoms: C_13  and  C_18
REMARK    8  A    between atoms: C_18  and  C_20
REMARK    9  A    between atoms: C_18  and  C_21
REMARK   10  A    between atoms: C_23  and  C_25
REMARK   11  A    between atoms: C_24  and  C_26
REMARK                            x       y       z     vdW  Elec       q    Type
REMARK                         _______ _______ _______ _____ _____    ______ ____
ROOT
ATOM      7  C   UNL     1       0.781  -0.332   1.316  0.00  0.00    -0.027 C 
ATOM      8  C   UNL     1       1.146   0.537   0.066  0.00  0.00    +0.028 C 
ATOM      9  C   UNL     1       2.667   0.928   0.082  0.00  0.00    +0.012 C 
ATOM     10  C   UNL     1       0.153   1.722  -0.106  0.00  0.00    +0.122 C 
ATOM     11  C   UNL     1      -0.691  -0.794   1.211  0.00  0.00    +0.007 C 
ATOM     12  C   UNL     1       1.671  -1.597   1.328  0.00  0.00    +0.009 C 
ATOM     13  C   UNL     1      -1.325   1.264  -0.106  0.00  0.00    +0.029 C 
ATOM     14  C   UNL     1       3.551  -0.348   0.170  0.00  0.00    +0.078 C 
ATOM     15  C   UNL     1      -1.670   0.365   1.082  0.00  0.00    +0.007 C 
ATOM     16  C   UNL     1       3.160  -1.280   1.317  0.00  0.00    +0.023 C 
ATOM     17  C   UNL     1       0.969   0.436   2.648  0.00  0.00    +0.011 C 
ATOM     19  C   UNL     1       3.102   1.761  -1.136  0.00  0.00    +0.010 C 
ENDROOT
BRANCH  14   4
ATOM      3  O   UNL     1       5.794  -1.859  -0.836  0.00  0.00    -0.253 OA
ATOM      4  N   UNL     1       4.955  -0.020   0.304  0.00  0.00    -0.296 N 
ATOM      6  N   UNL     1       7.224  -0.265   0.056  0.00  0.00    -0.300 N 
ATOM     22  C   UNL     1       5.972  -0.812  -0.216  0.00  0.00    +0.300 C 
ATOM     32  H   UNL     1       5.211   0.783   0.871  0.00  0.00    +0.151 HD
ATOM     35  H   UNL     1       7.273   0.613   0.565  0.00  0.00    +0.150 HD
BRANCH   6  24
ATOM     24  C   UNL     1       8.457  -0.883  -0.370  0.00  0.00    +0.102 C 
ATOM     26  C   UNL     1       8.751  -0.589  -1.826  0.00  0.00    +0.024 C 
ENDBRANCH   6  24
ENDBRANCH  14   4
BRANCH  10   1
ATOM      1  O   UNL     1       0.383   2.358  -1.364  0.00  0.00    -0.391 OA
ATOM     33  H   UNL     1       0.248   1.698  -2.066  0.00  0.00    +0.210 HD
ENDBRANCH  10   1
BRANCH  13  18
ATOM     18  C   UNL     1      -2.289   2.455  -0.144  0.00  0.00    +0.077 C 
ATOM     20  C   UNL     1      -2.062   3.354   1.066  0.00  0.00    +0.017 C 
BRANCH  18  21
ATOM      2  O   UNL     1      -4.570   2.248   0.644  0.00  0.00    -0.276 OA
ATOM      5  N   UNL     1      -3.967   1.149  -1.307  0.00  0.00    -0.311 N 
ATOM     21  C   UNL     1      -3.730   1.956  -0.204  0.00  0.00    +0.216 C 
ATOM     34  H   UNL     1      -3.234   0.997  -1.992  0.00  0.00    +0.149 HD
BRANCH   5  23
ATOM     23  C   UNL     1      -5.256   0.556  -1.578  0.00  0.00    +0.139 C 
BRANCH  23  25
ATOM     25  C   UNL     1      -5.398  -0.796  -0.941  0.00  0.00    -0.030 A 
ATOM     27  C   UNL     1      -5.016  -1.940  -1.642  0.00  0.00    +0.005 A 
ATOM     28  C   UNL     1      -5.911  -0.908   0.351  0.00  0.00    +0.005 A 
ATOM     29  C   UNL     1      -5.148  -3.196  -1.050  0.00  0.00    +0.000 A 
ATOM     30  C   UNL     1      -6.042  -2.164   0.943  0.00  0.00    +0.000 A 
ATOM     31  C   UNL     1      -5.660  -3.308   0.242  0.00  0.00    +0.000 A 
ENDBRANCH  23  25
ENDBRANCH   5  23
ENDBRANCH  18  21
ENDBRANCH  13  18
TORSDOF 7
