REMARK  Name = 45784152
REMARK  10 active torsions:
REMARK  status: ('A' for Active; 'I' for Inactive)
REMARK    1  A    between atoms: N_3  and  C_15
REMARK    2  A    between atoms: N_5  and  C_24
REMARK    3  A    between atoms: C_8  and  C_12
REMARK    4  A    between atoms: C_9  and  C_15
REMARK    5  A    between atoms: C_11  and  C_16
REMARK    6  A    between atoms: C_12  and  C_17
REMARK    7  A    between atoms: C_12  and  C_18
REMARK    8  A    between atoms: C_13  and  C_19
REMARK    9  A    between atoms: C_16  and  C_20
REMARK   10  A    between atoms: C_22  and  C_23
REMARK                            x       y       z     vdW  Elec       q    Type
REMARK                         _______ _______ _______ _____ _____    ______ ____
ROOT
ATOM      8  C   UNL     1      -0.106  -2.240  -1.165  0.00  0.00    +0.000 C 
ATOM      9  C   UNL     1      -1.246  -3.283  -1.057  0.00  0.00    +0.032 C 
ATOM     10  C   UNL     1       1.151  -2.743  -0.439  0.00  0.00    +0.012 C 
ATOM     11  C   UNL     1       0.888  -3.026   1.053  0.00  0.00    +0.024 C 
ATOM     13  C   UNL     1      -0.380  -3.831   1.258  0.00  0.00    -0.073 C 
ATOM     14  C   UNL     1      -1.315  -3.945   0.299  0.00  0.00    -0.022 C 
ATOM     19  C   UNL     1      -0.526  -4.539   2.576  0.00  0.00    +0.039 C 
ENDROOT
BRANCH   8  12
ATOM     12  C   UNL     1       0.233  -1.917  -2.623  0.00  0.00    -0.013 C 
ATOM     17  C   UNL     1       1.155  -2.983  -3.205  0.00  0.00    +0.007 C 
ATOM     18  C   UNL     1       0.871  -0.535  -2.728  0.00  0.00    +0.007 C 
ENDBRANCH   8  12
BRANCH   9  15
ATOM     15  C   UNL     1      -2.604  -2.654  -1.389  0.00  0.00    +0.113 C 
BRANCH  15   3
ATOM      2  O   UNL     1      -3.099   0.128  -1.855  0.00  0.00    -0.253 OA
ATOM      3  N   UNL     1      -2.961  -1.674  -0.411  0.00  0.00    -0.299 N 
ATOM      5  N   UNL     1      -3.522   0.398   0.438  0.00  0.00    -0.269 N 
ATOM     21  C   UNL     1      -3.190  -0.320  -0.715  0.00  0.00    +0.304 C 
ATOM     34  H   UNL     1      -3.124  -1.980   0.543  0.00  0.00    +0.150 HD
ATOM     35  H   UNL     1      -3.552  -0.126   1.309  0.00  0.00    +0.156 HD
BRANCH   5  24
ATOM     24  C   UNL     1      -3.822   1.776   0.546  0.00  0.00    +0.035 A 
ATOM     27  C   UNL     1      -4.132   2.327   1.789  0.00  0.00    +0.023 A 
ATOM     28  C   UNL     1      -3.807   2.585  -0.591  0.00  0.00    +0.023 A 
ATOM     31  C   UNL     1      -4.428   3.686   1.896  0.00  0.00    +0.002 A 
ATOM     32  C   UNL     1      -4.102   3.944  -0.484  0.00  0.00    +0.002 A 
ATOM     33  C   UNL     1      -4.413   4.494   0.760  0.00  0.00    +0.000 A 
ENDBRANCH   5  24
ENDBRANCH  15   3
ENDBRANCH   9  15
BRANCH  11  16
ATOM     16  C   UNL     1       0.850  -1.726   1.863  0.00  0.00    +0.105 C 
BRANCH  16  20
ATOM      1  O   UNL     1       2.061   0.150   0.878  0.00  0.00    -0.420 OA
ATOM      4  N   UNL     1       3.302  -1.135   2.224  0.00  0.00    -0.112 NA
ATOM      6  N   UNL     1       4.107  -0.121   1.740  0.00  0.00    -0.107 NA
ATOM     20  C   UNL     1       2.117  -0.937   1.695  0.00  0.00    +0.218 A 
ATOM     22  C   UNL     1       3.341   0.604   0.959  0.00  0.00    +0.248 A 
BRANCH  22  23
ATOM      7  N   UNL     1       4.222   4.068  -1.302  0.00  0.00    -0.263 NA
ATOM     23  C   UNL     1       3.639   1.779   0.193  0.00  0.00    +0.041 A 
ATOM     25  C   UNL     1       4.921   2.319   0.213  0.00  0.00    +0.033 A 
ATOM     26  C   UNL     1       2.649   2.383  -0.574  0.00  0.00    +0.033 A 
ATOM     29  C   UNL     1       5.159   3.454  -0.545  0.00  0.00    +0.111 A 
ATOM     30  C   UNL     1       2.988   3.515  -1.297  0.00  0.00    +0.111 A 
ENDBRANCH  22  23
ENDBRANCH  16  20
ENDBRANCH  11  16
TORSDOF 7
