REMARK  Name = 26742542
REMARK  11 active torsions:
REMARK  status: ('A' for Active; 'I' for Inactive)
REMARK    1  A    between atoms: O_3  and  C_23
REMARK    2  A    between atoms: O_3  and  C_33
REMARK    3  A    between atoms: O_4  and  C_27
REMARK    4  A    between atoms: O_4  and  C_34
REMARK    5  A    between atoms: O_5  and  C_32
REMARK    6  A    between atoms: O_5  and  C_35
REMARK    7  A    between atoms: N_7  and  C_18
REMARK    8  A    between atoms: C_17  and  C_20
REMARK    9  A    between atoms: C_18  and  C_19
REMARK   10  A    between atoms: C_19  and  C_21
REMARK   11  A    between atoms: C_20  and  C_22
REMARK                            x       y       z     vdW  Elec       q    Type
REMARK                         _______ _______ _______ _____ _____    ______ ____
ROOT
ATOM      1  O   UNL     1       3.562  -3.450  -1.113  0.00  0.00    -0.276 OA
ATOM      2  O   UNL     1      -2.967  -0.969  -1.585  0.00  0.00    -0.275 OA
ATOM      6  N   UNL     1      -2.023  -2.720  -0.384  0.00  0.00    -0.301 N 
ATOM      7  N   UNL     1       2.703  -2.402   0.770  0.00  0.00    -0.301 N 
ATOM      8  C   UNL     1      -0.279  -3.642   1.133  0.00  0.00    +0.011 C 
ATOM      9  C   UNL     1       0.374  -4.316  -0.097  0.00  0.00    +0.004 C 
ATOM     10  C   UNL     1       0.066  -3.548  -1.395  0.00  0.00    +0.023 C 
ATOM     11  C   UNL     1      -1.786  -3.442   0.872  0.00  0.00    +0.111 C 
ATOM     12  C   UNL     1       0.360  -2.310   1.567  0.00  0.00    +0.024 C 
ATOM     13  C   UNL     1       1.867  -4.622   0.076  0.00  0.00    +0.100 C 
ATOM     14  C   UNL     1      -1.438  -3.346  -1.570  0.00  0.00    +0.108 C 
ATOM     15  C   UNL     1       1.832  -2.438   1.943  0.00  0.00    +0.108 C 
ATOM     16  C   UNL     1       2.793  -3.442  -0.148  0.00  0.00    +0.216 C 
ATOM     17  C   UNL     1      -2.761  -1.544  -0.513  0.00  0.00    +0.220 C 
ENDROOT
BRANCH   7  18
ATOM     18  C   UNL     1       3.495  -1.193   0.583  0.00  0.00    +0.112 C 
BRANCH  18  19
ATOM     19  C   UNL     1       2.759  -0.129  -0.228  0.00  0.00    +0.058 C 
BRANCH  19  21
ATOM     21  C   UNL     1       3.581   1.116  -0.449  0.00  0.00    -0.001 A 
ATOM     23  C   UNL     1       3.332   2.276   0.284  0.00  0.00    +0.165 A 
ATOM     24  C   UNL     1       4.601   1.098  -1.401  0.00  0.00    +0.007 A 
ATOM     27  C   UNL     1       4.103   3.418   0.066  0.00  0.00    +0.162 A 
ATOM     28  C   UNL     1       5.372   2.240  -1.619  0.00  0.00    +0.004 A 
ATOM     31  C   UNL     1       5.123   3.400  -0.885  0.00  0.00    +0.049 A 
BRANCH  23   3
ATOM      3  O   UNL     1       2.336   2.298   1.216  0.00  0.00    -0.491 OA
ATOM     33  C   UNL     1       1.042   2.694   0.768  0.00  0.00    +0.277 C 
ENDBRANCH  23   3
BRANCH  27   4
ATOM      4  O   UNL     1       3.872   4.557   0.776  0.00  0.00    -0.491 OA
ATOM     34  C   UNL     1       4.705   5.679   0.491  0.00  0.00    +0.277 C 
ENDBRANCH  27   4
ENDBRANCH  19  21
ENDBRANCH  18  19
ENDBRANCH   7  18
BRANCH  17  20
ATOM     20  C   UNL     1      -3.328  -0.960   0.756  0.00  0.00    +0.131 C 
BRANCH  20  22
ATOM     22  C   UNL     1      -4.127   0.271   0.460  0.00  0.00    -0.038 A 
ATOM     25  C   UNL     1      -3.506   1.520   0.452  0.00  0.00    +0.007 A 
ATOM     26  C   UNL     1      -5.492   0.169   0.190  0.00  0.00    +0.007 A 
ATOM     29  C   UNL     1      -4.250   2.667   0.174  0.00  0.00    +0.046 A 
ATOM     30  C   UNL     1      -6.235   1.315  -0.089  0.00  0.00    +0.046 A 
ATOM     32  C   UNL     1      -5.615   2.564  -0.097  0.00  0.00    +0.120 A 
BRANCH  32   5
ATOM      5  O   UNL     1      -6.340   3.683  -0.370  0.00  0.00    -0.495 OA
ATOM     35  C   UNL     1      -7.731   3.506  -0.637  0.00  0.00    +0.277 C 
ENDBRANCH  32   5
ENDBRANCH  20  22
ENDBRANCH  17  20
TORSDOF 8
