REMARK  Name = 11941514
REMARK  9 active torsions:
REMARK  status: ('A' for Active; 'I' for Inactive)
REMARK    1  A    between atoms: O_4  and  C_26
REMARK    2  A    between atoms: O_6  and  C_33
REMARK    3  A    between atoms: O_6  and  C_34
REMARK    4  A    between atoms: N_8  and  C_10
REMARK    5  A    between atoms: C_18  and  C_20
REMARK    6  A    between atoms: C_20  and  C_24
REMARK    7  A    between atoms: C_22  and  C_25
REMARK    8  A    between atoms: C_24  and  C_26
REMARK    9  A    between atoms: C_27  and  C_28
REMARK                            x       y       z     vdW  Elec       q    Type
REMARK                         _______ _______ _______ _____ _____    ______ ____
ROOT
ATOM      1  O   UNL     1      -3.674  -3.738   0.752  0.00  0.00    -0.273 OA
ATOM      2  O   UNL     1      -0.137  -1.570  -2.496  0.00  0.00    -0.270 OA
ATOM      7  N   UNL     1      -2.053  -1.661  -1.228  0.00  0.00    -0.284 N 
ATOM      9  N   UNL     1      -1.425  -3.478   1.000  0.00  0.00    -0.283 N 
ATOM     10  C   UNL     1      -4.166  -1.165  -0.289  0.00  0.00    +0.104 C 
ATOM     11  C   UNL     1      -2.742  -1.628   0.049  0.00  0.00    +0.183 C 
ATOM     12  C   UNL     1      -4.354  -1.619  -1.738  0.00  0.00    +0.043 C 
ATOM     13  C   UNL     1      -2.968  -1.453  -2.341  0.00  0.00    +0.111 C 
ATOM     14  C   UNL     1      -2.668  -3.044   0.589  0.00  0.00    +0.240 C 
ATOM     15  C   UNL     1      -0.687  -1.708  -1.404  0.00  0.00    +0.249 C 
ATOM     16  C   UNL     1       0.164  -1.963  -0.212  0.00  0.00    +0.059 A 
ATOM     17  C   UNL     1      -0.172  -2.849   0.826  0.00  0.00    +0.046 A 
ATOM     19  C   UNL     1       1.450  -1.392  -0.244  0.00  0.00    +0.022 A 
ATOM     21  C   UNL     1       0.812  -3.193   1.769  0.00  0.00    +0.024 A 
ATOM     22  C   UNL     1       2.397  -1.709   0.728  0.00  0.00    -0.024 A 
ATOM     23  C   UNL     1       2.083  -2.619   1.728  0.00  0.00    +0.010 A 
ATOM     36  H   UNL     1      -1.423  -4.319   1.571  0.00  0.00    +0.155 HD
ENDROOT
BRANCH  10   8
ATOM      3  O   UNL     1      -6.562   0.353   0.281  0.00  0.00    -0.276 OA
ATOM      8  N   UNL     1      -4.284   0.270  -0.171  0.00  0.00    -0.310 N 
ATOM     18  C   UNL     1      -5.483   0.911   0.106  0.00  0.00    +0.214 C 
ATOM     35  H   UNL     1      -3.459   0.834  -0.354  0.00  0.00    +0.149 HD
BRANCH  18  20
ATOM     20  C   UNL     1      -5.308   2.418   0.169  0.00  0.00    +0.107 C 
BRANCH  20  24
ATOM     24  C   UNL     1      -6.614   3.145   0.473  0.00  0.00    +0.129 C 
BRANCH  24  26
ATOM      5  O   UNL     1      -5.367   5.233   0.369  0.00  0.00    -0.251 OA
ATOM     26  C   UNL     1      -6.428   4.643   0.525  0.00  0.00    +0.305 C 
BRANCH  26   4
ATOM      4  O   UNL     1      -7.602   5.281   0.771  0.00  0.00    -0.481 OA
ATOM     37  H   UNL     1      -7.489   6.255   0.805  0.00  0.00    +0.295 HD
ENDBRANCH  26   4
ENDBRANCH  24  26
ENDBRANCH  20  24
ENDBRANCH  18  20
ENDBRANCH  10   8
BRANCH  22  25
ATOM     25  C   UNL     1       3.721  -1.107   0.680  0.00  0.00    +0.008 C 
ATOM     27  C   UNL     1       4.035   0.037   0.029  0.00  0.00    +0.008 C 
BRANCH  27  28
ATOM     28  C   UNL     1       5.371   0.657  -0.003  0.00  0.00    -0.025 A 
ATOM     29  C   UNL     1       6.484  -0.113   0.294  0.00  0.00    +0.011 A 
ATOM     30  C   UNL     1       5.489   1.999  -0.330  0.00  0.00    +0.011 A 
ATOM     31  C   UNL     1       7.749   0.474   0.264  0.00  0.00    +0.046 A 
ATOM     32  C   UNL     1       6.754   2.586  -0.359  0.00  0.00    +0.046 A 
ATOM     33  C   UNL     1       7.884   1.824  -0.063  0.00  0.00    +0.120 A 
BRANCH  33   6
ATOM      6  O   UNL     1       9.118   2.397  -0.091  0.00  0.00    -0.495 OA
ATOM     34  C   UNL     1       9.184   3.780  -0.433  0.00  0.00    +0.277 C 
ENDBRANCH  33   6
ENDBRANCH  27  28
ENDBRANCH  22  25
TORSDOF 8
