REMARK  Name = 45783470
REMARK  9 active torsions:
REMARK  status: ('A' for Active; 'I' for Inactive)
REMARK    1  A    between atoms: O_2  and  C_27
REMARK    2  A    between atoms: O_2  and  C_28
REMARK    3  A    between atoms: N_3  and  C_12
REMARK    4  A    between atoms: N_7  and  C_25
REMARK    5  A    between atoms: N_7  and  C_26
REMARK    6  A    between atoms: C_8  and  C_13
REMARK    7  A    between atoms: C_12  and  C_14
REMARK    8  A    between atoms: C_17  and  C_20
REMARK    9  A    between atoms: C_26  and  C_27
REMARK                            x       y       z     vdW  Elec       q    Type
REMARK                         _______ _______ _______ _____ _____    ______ ____
ROOT
ATOM      1  O   UNL     1      -1.421  -3.067   1.131  0.00  0.00    -0.336 OA
ATOM      4  N   UNL     1      -0.857  -1.303  -0.128  0.00  0.00    -0.190 NA
ATOM      5  N   UNL     1      -0.031  -2.940   1.239  0.00  0.00    -0.056 NA
ATOM     13  C   UNL     1      -1.828  -2.065   0.309  0.00  0.00    +0.245 A 
ATOM     17  C   UNL     1       0.226  -1.879   0.469  0.00  0.00    +0.204 A 
ENDROOT
BRANCH  17  20
ATOM      6  N   UNL     1       3.918  -1.534   0.747  0.00  0.00    -0.240 NA
ATOM     20  C   UNL     1       1.553  -1.369   0.275  0.00  0.00    +0.041 A 
ATOM     22  C   UNL     1       1.784  -0.263  -0.535  0.00  0.00    +0.016 A 
ATOM     23  C   UNL     1       2.644  -1.963   0.888  0.00  0.00    +0.124 A 
ATOM     24  C   UNL     1       3.081   0.209  -0.705  0.00  0.00    +0.044 A 
ATOM     25  C   UNL     1       4.104  -0.456  -0.048  0.00  0.00    +0.119 A 
BRANCH  25   7
ATOM      7  N   UNL     1       5.420   0.036  -0.231  0.00  0.00    -0.327 N 
ATOM     29  H   UNL     1       6.159  -0.457   0.257  0.00  0.00    +0.148 HD
BRANCH   7  26
ATOM     26  C   UNL     1       5.713   1.166  -1.052  0.00  0.00    +0.131 C 
BRANCH  26  27
ATOM     27  C   UNL     1       7.210   1.420  -1.071  0.00  0.00    +0.178 C 
BRANCH  27   2
ATOM      2  O   UNL     1       7.660   1.707   0.247  0.00  0.00    -0.381 OA
ATOM     28  C   UNL     1       9.058   1.958   0.278  0.00  0.00    +0.194 C 
ENDBRANCH  27   2
ENDBRANCH  26  27
ENDBRANCH   7  26
ENDBRANCH  25   7
ENDBRANCH  17  20
BRANCH  13   8
ATOM      3  N   UNL     1      -3.757  -0.610  -0.288  0.00  0.00    -0.287 NA
ATOM      8  C   UNL     1      -3.314  -1.982   0.029  0.00  0.00    +0.146 C 
ATOM      9  C   UNL     1      -3.736  -2.822  -1.191  0.00  0.00    +0.030 C 
ATOM     10  C   UNL     1      -4.461  -1.849  -2.111  0.00  0.00    +0.017 C 
ATOM     11  C   UNL     1      -4.911  -0.743  -1.178  0.00  0.00    +0.085 C 
BRANCH   3  12
ATOM     12  C   UNL     1      -4.065   0.182   0.895  0.00  0.00    +0.120 C 
BRANCH  12  14
ATOM     14  C   UNL     1      -4.030   1.659   0.606  0.00  0.00    -0.033 A 
ATOM     15  C   UNL     1      -2.841   2.372   0.759  0.00  0.00    +0.005 A 
ATOM     16  C   UNL     1      -5.187   2.315   0.186  0.00  0.00    +0.005 A 
ATOM     18  C   UNL     1      -2.809   3.741   0.491  0.00  0.00    +0.000 A 
ATOM     19  C   UNL     1      -5.155   3.683  -0.082  0.00  0.00    +0.000 A 
ATOM     21  C   UNL     1      -3.966   4.396   0.071  0.00  0.00    +0.000 A 
ENDBRANCH  12  14
ENDBRANCH   3  12
ENDBRANCH  13   8
TORSDOF 8
