REMARK  Name = 45360615
REMARK  10 active torsions:
REMARK  status: ('A' for Active; 'I' for Inactive)
REMARK    1  A    between atoms: S_2  and  N_7
REMARK    2  A    between atoms: S_2  and  C_16
REMARK    3  A    between atoms: O_5  and  C_17
REMARK    4  A    between atoms: O_5  and  C_32
REMARK    5  A    between atoms: N_8  and  C_18
REMARK    6  A    between atoms: N_10  and  C_25
REMARK    7  A    between atoms: N_10  and  C_35
REMARK    8  A    between atoms: N_10  and  C_36
REMARK    9  A    between atoms: C_11  and  C_17
REMARK   10  A    between atoms: C_18  and  C_23
REMARK                            x       y       z     vdW  Elec       q    Type
REMARK                         _______ _______ _______ _____ _____    ______ ____
ROOT
ATOM      7  N   UNL     1       2.044   0.896   0.036  0.00  0.00    -0.157 NA
ATOM      8  N   UNL     1       1.459  -2.797  -0.077  0.00  0.00    -0.328 N 
ATOM      9  N   UNL     1       2.644  -2.814   1.817  0.00  0.00    -0.240 NA
ATOM     11  C   UNL     1       3.311   0.796   0.847  0.00  0.00    +0.194 C 
ATOM     12  C   UNL     1       1.643  -0.340  -0.732  0.00  0.00    +0.165 C 
ATOM     13  C   UNL     1       3.247  -0.355   1.874  0.00  0.00    +0.089 C 
ATOM     14  C   UNL     1       1.883  -1.518   0.123  0.00  0.00    +0.057 A 
ATOM     15  C   UNL     1       2.611  -1.555   1.287  0.00  0.00    +0.066 A 
ATOM     19  C   UNL     1       1.942  -3.541   0.970  0.00  0.00    +0.200 A 
ENDROOT
BRANCH   7   2
ATOM      2  S   UNL     1       1.764   2.382  -0.769  0.00  0.00    +0.062 S 
ATOM      3  O   UNL     1       2.380   2.332  -2.078  0.00  0.00    -0.153 OA
ATOM      4  O   UNL     1       2.040   3.470   0.144  0.00  0.00    -0.153 OA
BRANCH   2  16
ATOM     16  C   UNL     1       0.016   2.288  -0.990  0.00  0.00    +0.113 A 
ATOM     20  C   UNL     1      -0.893   2.390   0.076  0.00  0.00    +0.010 A 
ATOM     21  C   UNL     1      -0.438   2.105  -2.297  0.00  0.00    +0.029 A 
ATOM     22  C   UNL     1      -2.281   2.305  -0.187  0.00  0.00    +0.005 A 
ATOM     24  C   UNL     1      -0.454   2.575   1.397  0.00  0.00    +0.010 A 
ATOM     25  C   UNL     1      -3.189   2.408   0.879  0.00  0.00    +0.037 A 
ATOM     26  C   UNL     1      -1.803   2.021  -2.555  0.00  0.00    +0.003 A 
ATOM     27  C   UNL     1      -2.720   2.121  -1.508  0.00  0.00    +0.010 A 
ATOM     28  C   UNL     1      -1.371   2.675   2.445  0.00  0.00    +0.002 A 
ATOM     29  C   UNL     1      -2.736   2.591   2.186  0.00  0.00    +0.024 A 
BRANCH  25  10
ATOM     10  N   UNL     1      -4.588   2.330   0.672  0.00  0.00    -0.336 N 
ATOM     35  C   UNL     1      -5.353   3.529   0.407  0.00  0.00    +0.129 C 
ATOM     36  C   UNL     1      -5.261   1.050   0.716  0.00  0.00    +0.129 C 
ENDBRANCH  25  10
ENDBRANCH   2  16
ENDBRANCH   7   2
BRANCH  11  17
ATOM      6  O   UNL     1       4.368   0.580  -1.302  0.00  0.00    -0.249 OA
ATOM     17  C   UNL     1       4.471   0.653  -0.085  0.00  0.00    +0.326 C 
BRANCH  17   5
ATOM      5  O   UNL     1       5.631   0.619   0.632  0.00  0.00    -0.467 OA
ATOM     32  C   UNL     1       6.828   0.485  -0.140  0.00  0.00    +0.280 C 
ENDBRANCH  17   5
ENDBRANCH  11  17
BRANCH   8  18
ATOM     18  C   UNL     1       0.664  -3.292  -1.175  0.00  0.00    +0.158 C 
BRANCH  18  23
ATOM      1 CL   UNL     1      -5.116  -4.150   0.268  0.00  0.00    -0.084 Cl
ATOM     23  C   UNL     1      -0.785  -3.507  -0.814  0.00  0.00    -0.028 A 
ATOM     30  C   UNL     1      -1.162  -4.637  -0.089  0.00  0.00    +0.007 A 
ATOM     31  C   UNL     1      -1.747  -2.576  -1.205  0.00  0.00    +0.007 A 
ATOM     33  C   UNL     1      -2.502  -4.837   0.245  0.00  0.00    +0.020 A 
ATOM     34  C   UNL     1      -3.086  -2.775  -0.872  0.00  0.00    +0.020 A 
ATOM     37  C   UNL     1      -3.464  -3.905  -0.147  0.00  0.00    +0.041 A 
ENDBRANCH  18  23
ENDBRANCH   8  18
TORSDOF 7
