REMARK  Name = 26743820
REMARK  7 active torsions:
REMARK  status: ('A' for Active; 'I' for Inactive)
REMARK    1  A    between atoms: O_2  and  C_11
REMARK    2  A    between atoms: N_4  and  C_13
REMARK    3  A    between atoms: N_5  and  C_19
REMARK    4  A    between atoms: C_9  and  C_14
REMARK    5  A    between atoms: C_13  and  C_15
REMARK    6  A    between atoms: C_18  and  C_22
REMARK    7  A    between atoms: C_29  and  C_30
REMARK                            x       y       z     vdW  Elec       q    Type
REMARK                         _______ _______ _______ _____ _____    ______ ____
ROOT
ATOM      4  N   UNL     1       3.192  -0.231   0.744  0.00  0.00    -0.282 NA
ATOM      9  C   UNL     1       2.998  -0.906  -0.555  0.00  0.00    +0.149 C 
ATOM     10  C   UNL     1       3.735  -2.251  -0.414  0.00  0.00    +0.061 C 
ATOM     11  C   UNL     1       4.349  -2.220   0.980  0.00  0.00    +0.130 C 
ATOM     12  C   UNL     1       4.449  -0.739   1.290  0.00  0.00    +0.117 C 
ENDROOT
BRANCH   9  14
ATOM      3  O   UNL     1       1.237  -1.130  -2.235  0.00  0.00    -0.336 OA
ATOM      6  N   UNL     1       0.495  -1.175  -0.122  0.00  0.00    -0.190 NA
ATOM      8  N   UNL     1      -0.153  -1.285  -2.314  0.00  0.00    -0.056 NA
ATOM     14  C   UNL     1       1.535  -1.075  -0.911  0.00  0.00    +0.245 A 
ATOM     18  C   UNL     1      -0.517  -1.303  -1.028  0.00  0.00    +0.202 A 
BRANCH  18  22
ATOM      1  F   UNL     1      -3.832  -1.612   2.449  0.00  0.00    -0.205 F 
ATOM     22  C   UNL     1      -1.883  -1.448  -0.616  0.00  0.00    +0.025 A 
ATOM     25  C   UNL     1      -2.205  -1.460   0.742  0.00  0.00    +0.050 A 
ATOM     26  C   UNL     1      -2.891  -1.575  -1.572  0.00  0.00    +0.012 A 
ATOM     27  C   UNL     1      -3.533  -1.600   1.143  0.00  0.00    +0.127 A 
ATOM     28  C   UNL     1      -4.220  -1.715  -1.171  0.00  0.00    +0.007 A 
ATOM     29  C   UNL     1      -4.541  -1.728   0.186  0.00  0.00    -0.015 A 
ATOM     30  C   UNL     1      -5.962  -1.878   0.612  0.00  0.00    +0.047 C 
ENDBRANCH  18  22
ENDBRANCH   9  14
BRANCH  11   2
ATOM      2  O   UNL     1       5.619  -2.844   0.983  0.00  0.00    -0.390 OA
ATOM     31  H   UNL     1       5.491  -3.767   0.703  0.00  0.00    +0.210 HD
ENDBRANCH  11   2
BRANCH   4  13
ATOM     13  C   UNL     1       3.186   1.222   0.643  0.00  0.00    +0.159 C 
BRANCH  13  15
ATOM      5  N   UNL     1       1.368   2.527  -0.506  0.00  0.00    -0.330 N 
ATOM      7  N   UNL     1       0.834   1.602   1.443  0.00  0.00    -0.231 NA
ATOM     15  C   UNL     1       1.786   1.772   0.553  0.00  0.00    +0.125 A 
ATOM     16  C   UNL     1       0.058   2.868  -0.286  0.00  0.00    +0.069 A 
ATOM     17  C   UNL     1      -0.252   2.278   0.936  0.00  0.00    +0.089 A 
ATOM     19  C   UNL     1       2.161   2.903  -1.655  0.00  0.00    +0.150 C 
ATOM     20  C   UNL     1      -0.855   3.618  -1.029  0.00  0.00    +0.028 A 
ATOM     21  C   UNL     1      -1.545   2.436   1.464  0.00  0.00    +0.030 A 
ATOM     23  C   UNL     1      -2.136   3.764  -0.489  0.00  0.00    +0.002 A 
ATOM     24  C   UNL     1      -2.478   3.185   0.736  0.00  0.00    +0.002 A 
ENDBRANCH  13  15
ENDBRANCH   4  13
TORSDOF 5
