REMARK  Name = 7143032
REMARK  9 active torsions:
REMARK  status: ('A' for Active; 'I' for Inactive)
REMARK    1  A    between atoms: O_4  and  C_29
REMARK    2  A    between atoms: O_4  and  C_33
REMARK    3  A    between atoms: O_5  and  C_34
REMARK    4  A    between atoms: O_5  and  C_37
REMARK    5  A    between atoms: O_6  and  C_35
REMARK    6  A    between atoms: O_6  and  C_38
REMARK    7  A    between atoms: N_9  and  C_21
REMARK    8  A    between atoms: N_10  and  C_30
REMARK    9  A    between atoms: C_20  and  C_23
REMARK                            x       y       z     vdW  Elec       q    Type
REMARK                         _______ _______ _______ _____ _____    ______ ____
ROOT
ATOM      1  O   UNL     1      -0.827  -3.255  -1.077  0.00  0.00    -0.266 OA
ATOM      2  O   UNL     1      -4.277   0.240  -2.698  0.00  0.00    -0.270 OA
ATOM      7  N   UNL     1      -4.844  -0.353  -0.507  0.00  0.00    -0.297 N 
ATOM      8  N   UNL     1      -2.496  -2.336   0.275  0.00  0.00    -0.310 N 
ATOM     11  C   UNL     1      -4.989  -2.802  -0.092  0.00  0.00    +0.027 C 
ATOM     12  C   UNL     1      -4.278  -1.294   1.720  0.00  0.00    +0.054 C 
ATOM     13  C   UNL     1      -5.113  -2.534   1.404  0.00  0.00    +0.018 C 
ATOM     14  C   UNL     1      -5.505  -1.597  -0.898  0.00  0.00    +0.113 C 
ATOM     15  C   UNL     1      -3.525  -3.128  -0.415  0.00  0.00    +0.130 C 
ATOM     16  C   UNL     1      -4.832  -0.085   0.940  0.00  0.00    +0.117 C 
ATOM     17  C   UNL     1      -2.821  -1.512   1.357  0.00  0.00    +0.027 A 
ATOM     18  C   UNL     1      -1.851  -0.887   2.047  0.00  0.00    +0.024 A 
ATOM     19  C   UNL     1      -1.164  -2.528  -0.142  0.00  0.00    +0.273 A 
ATOM     20  C   UNL     1      -4.269   0.459  -1.488  0.00  0.00    +0.247 C 
ATOM     21  C   UNL     1      -0.115  -1.793   0.635  0.00  0.00    +0.100 A 
ATOM     22  C   UNL     1      -0.472  -1.032   1.675  0.00  0.00    +0.030 A 
ENDROOT
BRANCH  21   9
ATOM      3  O   UNL     1       1.948   0.140   0.942  0.00  0.00    -0.252 OA
ATOM      9  N   UNL     1       1.185  -1.938   0.251  0.00  0.00    -0.265 N 
ATOM     10  N   UNL     1       3.394  -1.405  -0.072  0.00  0.00    -0.269 N 
ATOM     26  C   UNL     1       2.167  -0.953   0.424  0.00  0.00    +0.308 C 
ATOM     39  H   UNL     1       1.391  -2.687  -0.405  0.00  0.00    +0.157 HD
ATOM     40  H   UNL     1       3.407  -2.342  -0.468  0.00  0.00    +0.156 HD
BRANCH  10  30
ATOM     30  C   UNL     1       4.631  -0.719  -0.088  0.00  0.00    +0.042 A 
ATOM     31  C   UNL     1       5.762  -1.332  -0.628  0.00  0.00    +0.069 A 
ATOM     32  C   UNL     1       4.720   0.570   0.437  0.00  0.00    +0.069 A 
ATOM     34  C   UNL     1       5.940   1.246   0.422  0.00  0.00    +0.125 A 
ATOM     35  C   UNL     1       6.981  -0.656  -0.643  0.00  0.00    +0.125 A 
ATOM     36  C   UNL     1       7.071   0.633  -0.118  0.00  0.00    +0.091 A 
BRANCH  34   5
ATOM      5  O   UNL     1       6.027   2.503   0.936  0.00  0.00    -0.495 OA
ATOM     37  C   UNL     1       4.833   3.070   1.474  0.00  0.00    +0.277 C 
ENDBRANCH  34   5
BRANCH  35   6
ATOM      6  O   UNL     1       8.085  -1.254  -1.169  0.00  0.00    -0.495 OA
ATOM     38  C   UNL     1       7.924  -2.573  -1.687  0.00  0.00    +0.277 C 
ENDBRANCH  35   6
ENDBRANCH  10  30
ENDBRANCH  21   9
BRANCH  20  23
ATOM     23  C   UNL     1      -3.574   1.675  -1.054  0.00  0.00    +0.037 A 
ATOM     24  C   UNL     1      -4.275   2.875  -0.938  0.00  0.00    +0.016 A 
ATOM     25  C   UNL     1      -2.212   1.631  -0.757  0.00  0.00    +0.016 A 
ATOM     27  C   UNL     1      -3.613   4.032  -0.525  0.00  0.00    +0.046 A 
ATOM     28  C   UNL     1      -1.550   2.787  -0.344  0.00  0.00    +0.046 A 
ATOM     29  C   UNL     1      -2.251   3.987  -0.228  0.00  0.00    +0.120 A 
BRANCH  29   4
ATOM      4  O   UNL     1      -1.605   5.117   0.173  0.00  0.00    -0.495 OA
ATOM     33  C   UNL     1      -0.211   5.001   0.458  0.00  0.00    +0.277 C 
ENDBRANCH  29   4
ENDBRANCH  20  23
TORSDOF 6
