REMARK  Name = 45361600
REMARK  11 active torsions:
REMARK  status: ('A' for Active; 'I' for Inactive)
REMARK    1  A    between atoms: O_1  and  C_12
REMARK    2  A    between atoms: N_5  and  C_16
REMARK    3  A    between atoms: N_6  and  C_26
REMARK    4  A    between atoms: N_8  and  C_27
REMARK    5  A    between atoms: C_9  and  C_19
REMARK    6  A    between atoms: C_11  and  C_21
REMARK    7  A    between atoms: C_15  and  C_20
REMARK    8  A    between atoms: C_20  and  C_22
REMARK    9  A    between atoms: C_20  and  C_23
REMARK   10  A    between atoms: C_24  and  C_25
REMARK   11  A    between atoms: C_26  and  C_27
REMARK                            x       y       z     vdW  Elec       q    Type
REMARK                         _______ _______ _______ _____ _____    ______ ____
ROOT
ATOM      9  C   UNL     1       0.835  -0.327  -1.639  0.00  0.00    -0.027 C 
ATOM     10  C   UNL     1       1.004  -0.445  -0.087  0.00  0.00    +0.028 C 
ATOM     11  C   UNL     1       2.515  -0.636   0.297  0.00  0.00    +0.012 C 
ATOM     12  C   UNL     1       0.025  -1.498   0.508  0.00  0.00    +0.122 C 
ATOM     13  C   UNL     1      -0.645  -0.027  -1.975  0.00  0.00    +0.007 C 
ATOM     14  C   UNL     1       1.684   0.860  -2.149  0.00  0.00    +0.009 C 
ATOM     15  C   UNL     1      -1.442  -1.252   0.082  0.00  0.00    +0.029 C 
ATOM     16  C   UNL     1       3.370   0.524  -0.285  0.00  0.00    +0.076 C 
ATOM     17  C   UNL     1      -1.603  -1.076  -1.427  0.00  0.00    +0.007 C 
ATOM     18  C   UNL     1       3.156   0.744  -1.782  0.00  0.00    +0.023 C 
ATOM     19  C   UNL     1       1.263  -1.617  -2.383  0.00  0.00    +0.011 C 
ATOM     21  C   UNL     1       2.758  -0.732   1.813  0.00  0.00    +0.010 C 
ENDROOT
BRANCH  16   5
ATOM      3  O   UNL     1       5.350   2.560   0.139  0.00  0.00    -0.269 OA
ATOM      5  N   UNL     1       4.784   0.319  -0.049  0.00  0.00    -0.307 N 
ATOM     24  C   UNL     1       5.662   1.372   0.145  0.00  0.00    +0.263 C 
ATOM     36  H   UNL     1       5.147  -0.629  -0.085  0.00  0.00    +0.149 HD
BRANCH  24  25
ATOM      7  N   UNL     1       7.351  -0.329   0.319  0.00  0.00    -0.250 NA
ATOM     25  C   UNL     1       7.085   0.996   0.348  0.00  0.00    +0.125 A 
ATOM     28  C   UNL     1       8.043   1.976   0.551  0.00  0.00    +0.033 A 
ATOM     29  C   UNL     1       9.360   1.570   0.735  0.00  0.00    +0.004 A 
ATOM     32  C   UNL     1       8.643  -0.685   0.501  0.00  0.00    +0.111 A 
ATOM     33  C   UNL     1       9.674   0.216   0.711  0.00  0.00    +0.020 A 
ENDBRANCH  24  25
ENDBRANCH  16   5
BRANCH  12   1
ATOM      1  O   UNL     1       0.054  -1.423   1.934  0.00  0.00    -0.391 OA
ATOM     37  H   UNL     1      -0.216  -0.526   2.195  0.00  0.00    +0.210 HD
ENDBRANCH  12   1
BRANCH  15  20
ATOM     20  C   UNL     1      -2.370  -2.371   0.570  0.00  0.00    +0.077 C 
ATOM     22  C   UNL     1      -1.920  -3.712   0.001  0.00  0.00    +0.017 C 
BRANCH  20  23
ATOM      2  O   UNL     1      -4.314  -2.443  -0.872  0.00  0.00    -0.276 OA
ATOM      6  N   UNL     1      -4.468  -1.299   1.139  0.00  0.00    -0.314 N 
ATOM     23  C   UNL     1      -3.812  -2.057   0.181  0.00  0.00    +0.216 C 
ATOM     38  H   UNL     1      -3.968  -1.006   1.973  0.00  0.00    +0.149 HD
BRANCH   6  26
ATOM     26  C   UNL     1      -5.841  -0.875   0.995  0.00  0.00    +0.119 C 
BRANCH  26  27
ATOM     27  C   UNL     1      -5.930   0.474   0.297  0.00  0.00    +0.103 C 
BRANCH  27   8
ATOM      4  O   UNL     1      -9.403   2.831   0.293  0.00  0.00    -0.377 OA
ATOM      8  N   UNL     1      -7.326   0.889   0.170  0.00  0.00    -0.297 NA
ATOM     30  C   UNL     1      -7.471   1.926  -0.861  0.00  0.00    +0.112 C 
ATOM     31  C   UNL     1      -7.844   1.380   1.454  0.00  0.00    +0.112 C 
ATOM     34  C   UNL     1      -8.932   2.351  -0.967  0.00  0.00    +0.175 C 
ATOM     35  C   UNL     1      -9.297   1.817   1.294  0.00  0.00    +0.175 C 
ENDBRANCH  27   8
ENDBRANCH  26  27
ENDBRANCH   6  26
ENDBRANCH  20  23
ENDBRANCH  15  20
TORSDOF 8
