REMARK  Name = 26743976
REMARK  7 active torsions:
REMARK  status: ('A' for Active; 'I' for Inactive)
REMARK    1  A    between atoms: O_1  and  C_10
REMARK    2  A    between atoms: O_3  and  C_15
REMARK    3  A    between atoms: O_3  and  C_24
REMARK    4  A    between atoms: N_4  and  C_12
REMARK    5  A    between atoms: C_8  and  C_13
REMARK    6  A    between atoms: C_12  and  C_14
REMARK    7  A    between atoms: C_17  and  C_20
REMARK                            x       y       z     vdW  Elec       q    Type
REMARK                         _______ _______ _______ _____ _____    ______ ____
ROOT
ATOM      4  N   UNL     1       2.632  -0.360   0.166  0.00  0.00    -0.284 NA
ATOM      8  C   UNL     1       2.022  -1.185  -0.896  0.00  0.00    +0.149 C 
ATOM      9  C   UNL     1       2.413  -2.633  -0.545  0.00  0.00    +0.061 C 
ATOM     10  C   UNL     1       3.280  -2.515   0.703  0.00  0.00    +0.130 C 
ATOM     11  C   UNL     1       3.806  -1.093   0.636  0.00  0.00    +0.116 C 
ENDROOT
BRANCH   8  13
ATOM      2  O   UNL     1       0.044  -0.586  -2.201  0.00  0.00    -0.336 OA
ATOM      5  N   UNL     1      -0.398  -1.158  -0.081  0.00  0.00    -0.190 NA
ATOM      6  N   UNL     1      -1.344  -0.477  -2.049  0.00  0.00    -0.056 NA
ATOM     13  C   UNL     1       0.523  -0.992  -0.996  0.00  0.00    +0.245 A 
ATOM     17  C   UNL     1      -1.527  -0.830  -0.774  0.00  0.00    +0.204 A 
BRANCH  17  20
ATOM      7  N   UNL     1      -5.211  -0.546  -0.362  0.00  0.00    -0.263 NA
ATOM     20  C   UNL     1      -2.824  -0.867  -0.161  0.00  0.00    +0.041 A 
ATOM     22  C   UNL     1      -2.978  -1.241   1.169  0.00  0.00    +0.014 A 
ATOM     23  C   UNL     1      -3.962  -0.532  -0.877  0.00  0.00    +0.122 A 
ATOM     25  C   UNL     1      -4.248  -1.268   1.735  0.00  0.00    +0.020 A 
ATOM     26  C   UNL     1      -5.322  -0.915   0.934  0.00  0.00    +0.111 A 
ENDBRANCH  17  20
ENDBRANCH   8  13
BRANCH  10   1
ATOM      1  O   UNL     1       4.328  -3.464   0.677  0.00  0.00    -0.390 OA
ATOM     27  H   UNL     1       3.921  -4.347   0.645  0.00  0.00    +0.210 HD
ENDBRANCH  10   1
BRANCH   4  12
ATOM     12  C   UNL     1       2.968   0.987  -0.276  0.00  0.00    +0.124 C 
BRANCH  12  14
ATOM     14  C   UNL     1       1.762   1.887  -0.298  0.00  0.00    +0.008 A 
ATOM     15  C   UNL     1       1.019   2.113   0.861  0.00  0.00    +0.124 A 
ATOM     16  C   UNL     1       1.389   2.498  -1.495  0.00  0.00    +0.008 A 
ATOM     18  C   UNL     1      -0.097   2.949   0.823  0.00  0.00    +0.046 A 
ATOM     19  C   UNL     1       0.273   3.334  -1.533  0.00  0.00    +0.001 A 
ATOM     21  C   UNL     1      -0.470   3.560  -0.374  0.00  0.00    +0.004 A 
BRANCH  15   3
ATOM      3  O   UNL     1       1.369   1.524   2.039  0.00  0.00    -0.495 OA
ATOM     24  C   UNL     1       0.553   1.810   3.174  0.00  0.00    +0.277 C 
ENDBRANCH  15   3
ENDBRANCH  12  14
ENDBRANCH   4  12
TORSDOF 6
