REMARK  Name = 40587791
REMARK  7 active torsions:
REMARK  status: ('A' for Active; 'I' for Inactive)
REMARK    1  A    between atoms: N_2  and  C_11
REMARK    2  A    between atoms: N_4  and  C_26
REMARK    3  A    between atoms: N_4  and  C_30
REMARK    4  A    between atoms: N_4  and  C_31
REMARK    5  A    between atoms: C_11  and  C_12
REMARK    6  A    between atoms: C_21  and  C_23
REMARK    7  A    between atoms: C_24  and  C_26
REMARK                            x       y       z     vdW  Elec       q    Type
REMARK                         _______ _______ _______ _____ _____    ______ ____
ROOT
ATOM      1  O   UNL     1      -1.303   0.314  -2.252  0.00  0.00    -0.267 OA
ATOM      2  N   UNL     1       3.216   1.234  -0.280  0.00  0.00    -0.301 NA
ATOM      3  N   UNL     1       0.060   1.407  -0.706  0.00  0.00    -0.311 N 
ATOM      5  C   UNL     1       1.900   3.049  -1.402  0.00  0.00    +0.024 C 
ATOM      6  C   UNL     1       1.524   2.580   0.972  0.00  0.00    +0.050 C 
ATOM      7  C   UNL     1       1.619   3.704  -0.056  0.00  0.00    +0.017 C 
ATOM      8  C   UNL     1       3.221   2.253  -1.337  0.00  0.00    +0.089 C 
ATOM      9  C   UNL     1       2.866   1.814   1.025  0.00  0.00    +0.094 C 
ATOM     10  C   UNL     1       0.701   2.172  -1.785  0.00  0.00    +0.130 C 
ATOM     13  C   UNL     1       0.387   1.634   0.632  0.00  0.00    +0.026 A 
ATOM     19  C   UNL     1      -0.289   1.006   1.607  0.00  0.00    +0.022 A 
ATOM     20  C   UNL     1      -0.964   0.515  -1.084  0.00  0.00    +0.259 A 
ATOM     21  C   UNL     1      -1.680  -0.201   0.029  0.00  0.00    +0.047 A 
ATOM     22  C   UNL     1      -1.333   0.071   1.296  0.00  0.00    +0.015 A 
ENDROOT
BRANCH  21  23
ATOM     23  C   UNL     1      -2.737  -1.188  -0.253  0.00  0.00    -0.008 A 
ATOM     24  C   UNL     1      -4.076  -0.809  -0.352  0.00  0.00    -0.026 A 
ATOM     25  C   UNL     1      -2.376  -2.525  -0.421  0.00  0.00    +0.009 A 
ATOM     27  C   UNL     1      -5.054  -1.767  -0.620  0.00  0.00    +0.005 A 
ATOM     28  C   UNL     1      -3.354  -3.483  -0.689  0.00  0.00    +0.001 A 
ATOM     29  C   UNL     1      -4.693  -3.104  -0.788  0.00  0.00    +0.000 A 
BRANCH  24  26
ATOM     26  C   UNL     1      -4.499   0.614  -0.178  0.00  0.00    +0.119 C 
BRANCH  26   4
ATOM      4  N   UNL     1      -4.505   1.022   1.227  0.00  0.00    -0.304 NA
ATOM     30  C   UNL     1      -5.720   0.551   1.891  0.00  0.00    +0.104 C 
ATOM     31  C   UNL     1      -4.392   2.476   1.338  0.00  0.00    +0.104 C 
ENDBRANCH  26   4
ENDBRANCH  24  26
ENDBRANCH  21  23
BRANCH   2  11
ATOM     11  C   UNL     1       4.500   0.540  -0.216  0.00  0.00    +0.088 C 
BRANCH  11  12
ATOM     12  C   UNL     1       4.351  -0.837   0.430  0.00  0.00    +0.003 C 
ATOM     14  C   UNL     1       3.399  -1.720  -0.388  0.00  0.00    +0.005 C 
ATOM     15  C   UNL     1       5.721  -1.511   0.589  0.00  0.00    +0.005 C 
ATOM     16  C   UNL     1       3.276  -3.120   0.209  0.00  0.00    +0.000 C 
ATOM     17  C   UNL     1       5.594  -2.912   1.185  0.00  0.00    +0.000 C 
ATOM     18  C   UNL     1       4.640  -3.783   0.374  0.00  0.00    +0.000 C 
ENDBRANCH  11  12
ENDBRANCH   2  11
TORSDOF 5
