REMARK  Name = 7165080
REMARK  5 active torsions:
REMARK  status: ('A' for Active; 'I' for Inactive)
REMARK    1  A    between atoms: S_2  and  N_8
REMARK    2  A    between atoms: S_2  and  C_17
REMARK    3  A    between atoms: O_7  and  C_28
REMARK    4  A    between atoms: O_7  and  C_29
REMARK    5  A    between atoms: N_10  and  C_18
REMARK                            x       y       z     vdW  Elec       q    Type
REMARK                         _______ _______ _______ _____ _____    ______ ____
ROOT
ATOM      3  O   UNL     1       0.156  -1.061   0.147  0.00  0.00    -0.273 OA
ATOM      6  O   UNL     1       0.310   3.633  -0.131  0.00  0.00    -0.252 OA
ATOM      8  N   UNL     1      -2.415  -0.948   0.845  0.00  0.00    -0.163 NA
ATOM      9  N   UNL     1      -1.613   2.582   0.417  0.00  0.00    -0.294 N 
ATOM     10  N   UNL     1       0.337   1.283   0.032  0.00  0.00    -0.193 N 
ATOM     11  C   UNL     1      -2.403   1.421   0.703  0.00  0.00    +0.103 C 
ATOM     12  C   UNL     1      -1.880   0.178   0.016  0.00  0.00    +0.186 C 
ATOM     13  C   UNL     1      -2.434   1.031   2.172  0.00  0.00    +0.041 C 
ATOM     14  C   UNL     1      -2.985  -0.385   2.106  0.00  0.00    +0.112 C 
ATOM     15  C   UNL     1      -0.368   0.053   0.071  0.00  0.00    +0.248 C 
ATOM     16  C   UNL     1      -0.268   2.567   0.108  0.00  0.00    +0.313 C 
ATOM     35  H   UNL     1      -2.068   3.488   0.476  0.00  0.00    +0.151 HD
ENDROOT
BRANCH  10  18
ATOM     18  C   UNL     1       1.778   1.229  -0.104  0.00  0.00    +0.046 A 
ATOM     21  C   UNL     1       2.363   0.172  -0.788  0.00  0.00    +0.027 A 
ATOM     22  C   UNL     1       2.555   2.236   0.453  0.00  0.00    +0.027 A 
ATOM     25  C   UNL     1       3.751   0.121  -0.917  0.00  0.00    +0.048 A 
ATOM     26  C   UNL     1       3.943   2.184   0.324  0.00  0.00    +0.048 A 
ATOM     28  C   UNL     1       4.541   1.127  -0.361  0.00  0.00    +0.129 A 
BRANCH  28   7
ATOM      7  O   UNL     1       5.895   1.078  -0.489  0.00  0.00    -0.456 OA
BRANCH   7  29
ATOM     29  C   UNL     1       6.520  -0.136  -0.257  0.00  0.00    +0.128 A 
ATOM     30  C   UNL     1       6.152  -0.883   0.848  0.00  0.00    +0.046 A 
ATOM     31  C   UNL     1       7.497  -0.570  -1.135  0.00  0.00    +0.046 A 
ATOM     32  C   UNL     1       6.782  -2.105   1.082  0.00  0.00    +0.004 A 
ATOM     33  C   UNL     1       8.127  -1.792  -0.901  0.00  0.00    +0.004 A 
ATOM     34  C   UNL     1       7.769  -2.560   0.208  0.00  0.00    +0.000 A 
ENDBRANCH   7  29
ENDBRANCH  28   7
ENDBRANCH  10  18
BRANCH   8   2
ATOM      2  S   UNL     1      -3.312  -2.158   0.054  0.00  0.00    +0.062 S 
ATOM      4  O   UNL     1      -3.624  -3.220   0.992  0.00  0.00    -0.153 OA
ATOM      5  O   UNL     1      -2.691  -2.460  -1.222  0.00  0.00    -0.153 OA
BRANCH   2  17
ATOM      1 CL   UNL     1      -8.615   0.954  -1.103  0.00  0.00    -0.084 Cl
ATOM     17  C   UNL     1      -4.811  -1.280  -0.274  0.00  0.00    +0.106 A 
ATOM     19  C   UNL     1      -4.939  -0.580  -1.461  0.00  0.00    +0.030 A 
ATOM     20  C   UNL     1      -5.829  -1.308   0.664  0.00  0.00    +0.030 A 
ATOM     23  C   UNL     1      -6.121   0.114  -1.719  0.00  0.00    +0.022 A 
ATOM     24  C   UNL     1      -7.011  -0.614   0.406  0.00  0.00    +0.022 A 
ATOM     27  C   UNL     1      -7.157   0.097  -0.785  0.00  0.00    +0.041 A 
ENDBRANCH   2  17
ENDBRANCH   8   2
TORSDOF 5
