REMARK  Name = 38028891
REMARK  11 active torsions:
REMARK  status: ('A' for Active; 'I' for Inactive)
REMARK    1  A    between atoms: S_1  and  N_5
REMARK    2  A    between atoms: S_1  and  C_26
REMARK    3  A    between atoms: N_5  and  C_16
REMARK    4  A    between atoms: C_9  and  C_13
REMARK    5  A    between atoms: C_10  and  C_16
REMARK    6  A    between atoms: C_12  and  C_17
REMARK    7  A    between atoms: C_13  and  C_18
REMARK    8  A    between atoms: C_13  and  C_19
REMARK    9  A    between atoms: C_14  and  C_20
REMARK   10  A    between atoms: C_17  and  C_21
REMARK   11  A    between atoms: C_26  and  C_28
REMARK                            x       y       z     vdW  Elec       q    Type
REMARK                         _______ _______ _______ _____ _____    ______ ____
ROOT
ATOM      9  C   UNL     1      -1.538  -2.610  -0.897  0.00  0.00    +0.000 C 
ATOM     10  C   UNL     1      -2.672  -2.909   0.115  0.00  0.00    +0.030 C 
ATOM     11  C   UNL     1      -0.350  -3.557  -0.667  0.00  0.00    +0.012 C 
ATOM     12  C   UNL     1       0.222  -3.438   0.758  0.00  0.00    +0.023 C 
ATOM     14  C   UNL     1      -0.871  -3.456   1.808  0.00  0.00    -0.073 C 
ATOM     15  C   UNL     1      -2.160  -3.230   1.499  0.00  0.00    -0.023 C 
ATOM     20  C   UNL     1      -0.453  -3.784   3.214  0.00  0.00    +0.039 C 
ENDROOT
BRANCH   9  13
ATOM     13  C   UNL     1      -2.022  -2.727  -2.345  0.00  0.00    -0.013 C 
ATOM     18  C   UNL     1      -1.146  -1.887  -3.269  0.00  0.00    +0.007 C 
ATOM     19  C   UNL     1      -2.029  -4.187  -2.787  0.00  0.00    +0.007 C 
ENDBRANCH   9  13
BRANCH  10  16
ATOM     16  C   UNL     1      -3.664  -1.743   0.195  0.00  0.00    +0.113 C 
BRANCH  16   5
ATOM      5  N   UNL     1      -2.979  -0.567   0.756  0.00  0.00    -0.194 NA
ATOM     38  H   UNL     1      -2.720  -0.671   1.746  0.00  0.00    +0.148 HD
BRANCH   5   1
ATOM      1  S   UNL     1      -3.485   0.996   0.287  0.00  0.00    +0.033 S 
ATOM      3  O   UNL     1      -3.341   1.149  -1.147  0.00  0.00    -0.158 OA
ATOM      4  O   UNL     1      -2.902   1.962   1.198  0.00  0.00    -0.158 OA
BRANCH   1  26
ATOM     26  C   UNL     1      -5.222   0.900   0.655  0.00  0.00    +0.220 C 
BRANCH  26  28
ATOM     28  C   UNL     1      -5.838   2.217   0.297  0.00  0.00    -0.025 A 
ATOM     30  C   UNL     1      -6.030   2.556  -1.042  0.00  0.00    +0.005 A 
ATOM     31  C   UNL     1      -6.219   3.105   1.303  0.00  0.00    +0.005 A 
ATOM     34  C   UNL     1      -6.604   3.783  -1.376  0.00  0.00    +0.000 A 
ATOM     35  C   UNL     1      -6.793   4.332   0.969  0.00  0.00    +0.000 A 
ATOM     37  C   UNL     1      -6.985   4.671  -0.371  0.00  0.00    +0.000 A 
ENDBRANCH  26  28
ENDBRANCH   1  26
ENDBRANCH   5   1
ENDBRANCH  16   5
ENDBRANCH  10  16
BRANCH  12  17
ATOM     17  C   UNL     1       1.098  -2.188   0.899  0.00  0.00    +0.103 C 
BRANCH  17  21
ATOM      2  O   UNL     1       2.650  -3.487  -0.343  0.00  0.00    -0.276 OA
ATOM      6  N   UNL     1       3.321  -1.342   0.246  0.00  0.00    -0.298 N 
ATOM      7  N   UNL     1       5.176   0.874   0.078  0.00  0.00    -0.312 N 
ATOM      8  N   UNL     1       6.535   2.512   1.101  0.00  0.00    -0.240 NA
ATOM     21  C   UNL     1       2.421  -2.408   0.208  0.00  0.00    +0.216 C 
ATOM     22  C   UNL     1       4.626  -1.479  -0.396  0.00  0.00    +0.126 C 
ATOM     23  C   UNL     1       3.044  -0.057   0.891  0.00  0.00    +0.126 C 
ATOM     24  C   UNL     1       5.123  -0.152  -0.967  0.00  0.00    +0.125 C 
ATOM     25  C   UNL     1       4.316   0.710   1.253  0.00  0.00    +0.125 C 
ATOM     27  C   UNL     1       6.048   1.954  -0.030  0.00  0.00    +0.121 A 
ATOM     29  C   UNL     1       6.361   2.391  -1.308  0.00  0.00    +0.043 A 
ATOM     32  C   UNL     1       7.231   3.469  -1.432  0.00  0.00    +0.005 A 
ATOM     33  C   UNL     1       7.377   3.558   0.940  0.00  0.00    +0.113 A 
ATOM     36  C   UNL     1       7.752   4.069  -0.292  0.00  0.00    +0.020 A 
ENDBRANCH  17  21
ENDBRANCH  12  17
TORSDOF 8
