REMARK  Name = 7165077
REMARK  5 active torsions:
REMARK  status: ('A' for Active; 'I' for Inactive)
REMARK    1  A    between atoms: O_7  and  C_29
REMARK    2  A    between atoms: O_7  and  C_31
REMARK    3  A    between atoms: N_10  and  C_18
REMARK    4  A    between atoms: C_17  and  C_19
REMARK    5  A    between atoms: C_28  and  C_30
REMARK                            x       y       z     vdW  Elec       q    Type
REMARK                         _______ _______ _______ _____ _____    ______ ____
ROOT
ATOM      4  O   UNL     1      -0.031  -0.062  -0.933  0.00  0.00    -0.273 OA
ATOM      5  O   UNL     1      -2.524  -3.639   0.834  0.00  0.00    -0.252 OA
ATOM      6  O   UNL     1       2.732  -0.726  -2.255  0.00  0.00    -0.270 OA
ATOM      8  N   UNL     1       2.238  -1.228  -0.036  0.00  0.00    -0.284 N 
ATOM      9  N   UNL     1      -0.285  -3.542   1.120  0.00  0.00    -0.293 N 
ATOM     10  N   UNL     1      -1.367  -1.799  -0.075  0.00  0.00    -0.193 N 
ATOM     11  C   UNL     1       1.005  -2.944   0.943  0.00  0.00    +0.105 C 
ATOM     12  C   UNL     1       1.085  -2.089  -0.302  0.00  0.00    +0.183 C 
ATOM     13  C   UNL     1       1.418  -1.982   2.056  0.00  0.00    +0.043 C 
ATOM     14  C   UNL     1       2.537  -1.183   1.398  0.00  0.00    +0.111 C 
ATOM     15  C   UNL     1      -0.143  -1.200  -0.471  0.00  0.00    +0.250 C 
ATOM     16  C   UNL     1      -1.472  -3.017   0.649  0.00  0.00    +0.313 C 
ATOM     17  C   UNL     1       3.000  -0.677  -1.057  0.00  0.00    +0.247 C 
ATOM     37  H   UNL     1      -0.335  -4.410   1.646  0.00  0.00    +0.151 HD
ENDROOT
BRANCH  10  18
ATOM     18  C   UNL     1      -2.595  -1.112  -0.420  0.00  0.00    +0.046 A 
ATOM     20  C   UNL     1      -2.644  -0.331  -1.567  0.00  0.00    +0.027 A 
ATOM     21  C   UNL     1      -3.707  -1.245   0.401  0.00  0.00    +0.027 A 
ATOM     24  C   UNL     1      -3.827   0.330  -1.898  0.00  0.00    +0.048 A 
ATOM     25  C   UNL     1      -4.889  -0.584   0.070  0.00  0.00    +0.048 A 
ATOM     29  C   UNL     1      -4.950   0.204  -1.080  0.00  0.00    +0.129 A 
BRANCH  29   7
ATOM      7  O   UNL     1      -6.104   0.848  -1.405  0.00  0.00    -0.456 OA
BRANCH   7  31
ATOM     31  C   UNL     1      -6.774   1.515  -0.393  0.00  0.00    +0.128 A 
ATOM     32  C   UNL     1      -6.056   2.308   0.484  0.00  0.00    +0.046 A 
ATOM     33  C   UNL     1      -8.146   1.372  -0.286  0.00  0.00    +0.046 A 
ATOM     34  C   UNL     1      -6.731   2.980   1.502  0.00  0.00    +0.004 A 
ATOM     35  C   UNL     1      -8.822   2.044   0.733  0.00  0.00    +0.004 A 
ATOM     36  C   UNL     1      -8.114   2.848   1.627  0.00  0.00    +0.000 A 
ENDBRANCH   7  31
ENDBRANCH  29   7
ENDBRANCH  10  18
BRANCH  17  19
ATOM     19  C   UNL     1       4.237   0.015  -0.671  0.00  0.00    +0.037 A 
ATOM     22  C   UNL     1       5.432  -0.696  -0.592  0.00  0.00    +0.013 A 
ATOM     23  C   UNL     1       4.209   1.378  -0.390  0.00  0.00    +0.013 A 
ATOM     26  C   UNL     1       6.607  -0.038  -0.228  0.00  0.00    +0.013 A 
ATOM     27  C   UNL     1       5.384   2.035  -0.025  0.00  0.00    +0.013 A 
ATOM     28  C   UNL     1       6.583   1.327   0.056  0.00  0.00    +0.055 A 
BRANCH  28  30
ATOM      1  F   UNL     1       8.182   3.047  -0.401  0.00  0.00    -0.166 F 
ATOM      2  F   UNL     1       8.934   1.214   0.483  0.00  0.00    -0.166 F 
ATOM      3  F   UNL     1       7.761   2.596   1.685  0.00  0.00    -0.166 F 
ATOM     30  C   UNL     1       7.839   2.030   0.445  0.00  0.00    +0.417 C 
ENDBRANCH  28  30
ENDBRANCH  17  19
TORSDOF 5
