REMARK  Name = 26742418
REMARK  10 active torsions:
REMARK  status: ('A' for Active; 'I' for Inactive)
REMARK    1  A    between atoms: N_4  and  C_14
REMARK    2  A    between atoms: C_8  and  C_15
REMARK    3  A    between atoms: C_9  and  C_14
REMARK    4  A    between atoms: C_17  and  C_19
REMARK    5  A    between atoms: C_18  and  C_23
REMARK    6  A    between atoms: C_19  and  C_21
REMARK    7  A    between atoms: C_19  and  C_22
REMARK    8  A    between atoms: C_20  and  C_24
REMARK    9  A    between atoms: C_21  and  C_25
REMARK   10  A    between atoms: C_22  and  C_26
REMARK                            x       y       z     vdW  Elec       q    Type
REMARK                         _______ _______ _______ _____ _____    ______ ____
ROOT
ATOM      3  N   UNL     1      -1.120  -2.290   1.370  0.00  0.00    -0.297 NA
ATOM      7  C   UNL     1      -0.399  -2.246  -1.132  0.00  0.00    +0.002 C 
ATOM      8  C   UNL     1       0.827  -2.004  -0.208  0.00  0.00    +0.055 C 
ATOM      9  C   UNL     1      -2.012  -1.384   0.600  0.00  0.00    +0.074 C 
ATOM     10  C   UNL     1      -1.478  -1.184  -0.835  0.00  0.00    +0.024 C 
ATOM     11  C   UNL     1      -0.990  -3.616  -0.738  0.00  0.00    +0.019 C 
ATOM     12  C   UNL     1       0.290  -1.843   1.242  0.00  0.00    +0.094 C 
ATOM     13  C   UNL     1      -1.231  -3.646   0.781  0.00  0.00    +0.085 C 
ENDROOT
BRANCH   8  15
ATOM      5  N   UNL     1       1.526  -0.199  -1.704  0.00  0.00    -0.237 NA
ATOM      6  N   UNL     1       3.527   1.087  -1.316  0.00  0.00    -0.229 NA
ATOM     15  C   UNL     1       1.806  -0.902  -0.587  0.00  0.00    +0.050 A 
ATOM     16  C   UNL     1       2.912  -0.673   0.206  0.00  0.00    +0.055 A 
ATOM     18  C   UNL     1       3.746   0.344  -0.211  0.00  0.00    +0.110 A 
ATOM     20  C   UNL     1       2.416   0.766  -2.006  0.00  0.00    +0.127 A 
ATOM     24  C   UNL     1       2.139   1.567  -3.233  0.00  0.00    +0.088 C 
BRANCH  18  23
ATOM      2  O   UNL     1       5.666   1.709  -0.000  0.00  0.00    -0.461 OA
ATOM     23  C   UNL     1       4.936   0.688   0.521  0.00  0.00    +0.153 A 
ATOM     27  C   UNL     1       5.526   0.208   1.667  0.00  0.00    +0.051 A 
ATOM     28  C   UNL     1       6.694   0.983   1.862  0.00  0.00    +0.042 A 
ATOM     29  C   UNL     1       6.734   1.882   0.822  0.00  0.00    +0.196 A 
ENDBRANCH  18  23
ENDBRANCH   8  15
BRANCH   9  14
ATOM     14  C   UNL     1      -2.246  -0.050   1.312  0.00  0.00    +0.123 C 
BRANCH  14   4
ATOM      1  O   UNL     1      -5.096  -0.041   1.679  0.00  0.00    -0.276 OA
ATOM      4  N   UNL     1      -3.197   0.748   0.603  0.00  0.00    -0.314 N 
ATOM     17  C   UNL     1      -4.570   0.692   0.844  0.00  0.00    +0.216 C 
ATOM     30  H   UNL     1      -2.840   1.378  -0.107  0.00  0.00    +0.149 HD
BRANCH  17  19
ATOM     19  C   UNL     1      -5.375   1.633  -0.059  0.00  0.00    +0.074 C 
BRANCH  19  21
ATOM     21  C   UNL     1      -5.206   1.293  -1.550  0.00  0.00    +0.009 C 
ATOM     25  C   UNL     1      -5.621  -0.138  -1.871  0.00  0.00    +0.004 C 
ENDBRANCH  19  21
BRANCH  19  22
ATOM     22  C   UNL     1      -5.009   3.100   0.243  0.00  0.00    +0.009 C 
ATOM     26  C   UNL     1      -5.197   3.518   1.697  0.00  0.00    +0.004 C 
ENDBRANCH  19  22
ENDBRANCH  17  19
ENDBRANCH  14   4
ENDBRANCH   9  14
TORSDOF 7
