REMARK  Name = 11886261
REMARK  6 active torsions:
REMARK  status: ('A' for Active; 'I' for Inactive)
REMARK    1  A    between atoms: O_3  and  C_20
REMARK    2  A    between atoms: O_3  and  C_22
REMARK    3  A    between atoms: N_5  and  C_16
REMARK    4  A    between atoms: N_6  and  C_17
REMARK    5  A    between atoms: N_10  and  C_23
REMARK    6  A    between atoms: N_11  and  C_30
REMARK                            x       y       z     vdW  Elec       q    Type
REMARK                         _______ _______ _______ _____ _____    ______ ____
ROOT
ATOM      1  O   UNL     1      -1.984  -2.787   0.738  0.00  0.00    -0.370 OA
ATOM      2  O   UNL     1      -1.524  -1.408  -2.051  0.00  0.00    -0.370 OA
ATOM     14  C   UNL     1      -1.283  -1.010  -0.689  0.00  0.00    +0.176 C 
ATOM     15  C   UNL     1      -2.426  -1.555   0.146  0.00  0.00    +0.172 C 
ATOM     16  C   UNL     1      -0.049  -1.713  -0.157  0.00  0.00    +0.171 C 
ATOM     17  C   UNL     1      -3.527  -1.821  -0.856  0.00  0.00    +0.131 C 
ATOM     18  C   UNL     1      -0.609  -3.016   0.401  0.00  0.00    +0.190 C 
ATOM     19  C   UNL     1      -2.747  -2.156  -2.113  0.00  0.00    +0.185 C 
ENDROOT
BRANCH  17   6
ATOM      4  O   UNL     1      -5.988  -1.221   0.482  0.00  0.00    -0.252 OA
ATOM      6  N   UNL     1      -4.351  -0.652  -1.048  0.00  0.00    -0.292 N 
ATOM     10  N   UNL     1      -6.124   0.776  -0.744  0.00  0.00    -0.269 N 
ATOM     21  C   UNL     1      -5.545  -0.434  -0.351  0.00  0.00    +0.304 C 
ATOM     36  H   UNL     1      -4.017   0.077  -1.671  0.00  0.00    +0.151 HD
ATOM     37  H   UNL     1      -5.626   1.311  -1.451  0.00  0.00    +0.156 HD
BRANCH  10  23
ATOM     23  C   UNL     1      -7.328   1.354  -0.278  0.00  0.00    +0.035 A 
ATOM     26  C   UNL     1      -7.740   2.572  -0.794  0.00  0.00    +0.023 A 
ATOM     27  C   UNL     1      -8.071   0.691   0.685  0.00  0.00    +0.023 A 
ATOM     31  C   UNL     1      -8.928   3.141  -0.335  0.00  0.00    +0.002 A 
ATOM     32  C   UNL     1      -9.258   1.260   1.144  0.00  0.00    +0.002 A 
ATOM     33  C   UNL     1      -9.687   2.486   0.634  0.00  0.00    +0.000 A 
ENDBRANCH  10  23
ENDBRANCH  17   6
BRANCH  16   5
ATOM      5  N   UNL     1       0.693  -0.894   0.805  0.00  0.00    -0.187 N 
ATOM      7  N   UNL     1       0.105  -0.440   1.916  0.00  0.00    -0.041 NA
ATOM      8  N   UNL     1       2.230   0.231   1.827  0.00  0.00    -0.071 NA
ATOM      9  N   UNL     1       1.052   0.250   2.540  0.00  0.00    -0.020 NA
ATOM     20  C   UNL     1       1.983  -0.486   0.754  0.00  0.00    +0.342 A 
BRANCH  20   3
ATOM      3  O   UNL     1       2.830  -0.769  -0.217  0.00  0.00    -0.423 OA
BRANCH   3  22
ATOM     22  C   UNL     1       4.143  -0.320  -0.219  0.00  0.00    +0.132 A 
ATOM     24  C   UNL     1       4.437   0.895  -0.807  0.00  0.00    +0.048 A 
ATOM     25  C   UNL     1       5.119  -1.103   0.368  0.00  0.00    +0.048 A 
ATOM     28  C   UNL     1       5.757   1.345  -0.809  0.00  0.00    +0.031 A 
ATOM     29  C   UNL     1       6.440  -0.652   0.366  0.00  0.00    +0.031 A 
ATOM     30  C   UNL     1       6.758   0.572  -0.222  0.00  0.00    +0.067 A 
BRANCH  30  11
ATOM     11  N   UNL     1       8.067   1.018  -0.224  0.00  0.00    -0.220 N 
ATOM     12  N   UNL     1       9.065   0.305   0.329  0.00  0.00    -0.154 NA
ATOM     13  N   UNL     1       9.839   2.263  -0.566  0.00  0.00    -0.222 NA
ATOM     34  C   UNL     1       8.542   2.182  -0.753  0.00  0.00    +0.225 A 
ATOM     35  C   UNL     1      10.111   1.100   0.096  0.00  0.00    +0.245 A 
ENDBRANCH  30  11
ENDBRANCH   3  22
ENDBRANCH  20   3
ENDBRANCH  16   5
TORSDOF 6
