REMARK  Name = 7051829
REMARK  4 active torsions:
REMARK  status: ('A' for Active; 'I' for Inactive)
REMARK    1  A    between atoms: N_2  and  C_13
REMARK    2  A    between atoms: C_13  and  C_18
REMARK    3  A    between atoms: C_14  and  C_19
REMARK    4  A    between atoms: C_24  and  C_29
REMARK                            x       y       z     vdW  Elec       q    Type
REMARK                         _______ _______ _______ _____ _____    ______ ____
ROOT
ATOM      1  O   UNL     1      -2.739   2.330  -2.760  0.00  0.00    -0.268 OA
ATOM      2  N   UNL     1       0.402   2.075   1.103  0.00  0.00    -0.297 NA
ATOM      3  N   UNL     1      -2.130   1.397  -0.701  0.00  0.00    -0.311 N 
ATOM      6  C   UNL     1      -1.964   2.819   1.428  0.00  0.00    +0.024 C 
ATOM      7  C   UNL     1      -1.439   0.430   1.513  0.00  0.00    +0.051 C 
ATOM      8  C   UNL     1      -2.305   1.520   2.139  0.00  0.00    +0.017 C 
ATOM      9  C   UNL     1      -0.467   3.147   1.600  0.00  0.00    +0.090 C 
ATOM     10  C   UNL     1       0.054   0.783   1.713  0.00  0.00    +0.094 C 
ATOM     11  C   UNL     1      -2.369   2.689  -0.042  0.00  0.00    +0.130 C 
ATOM     12  C   UNL     1      -1.761   0.248   0.027  0.00  0.00    +0.034 A 
ATOM     14  C   UNL     1      -1.688  -0.955  -0.599  0.00  0.00    +0.003 A 
ATOM     15  C   UNL     1      -2.400   1.361  -2.080  0.00  0.00    +0.252 A 
ATOM     16  C   UNL     1      -1.955  -1.030  -2.023  0.00  0.00    +0.015 A 
ATOM     17  C   UNL     1      -2.279   0.044  -2.744  0.00  0.00    +0.071 A 
ENDROOT
BRANCH  14  19
ATOM      4  N   UNL     1      -2.038  -4.123   1.380  0.00  0.00    -0.263 NA
ATOM     19  C   UNL     1      -1.325  -2.191   0.129  0.00  0.00    +0.002 A 
ATOM     22  C   UNL     1      -0.000  -2.578   0.250  0.00  0.00    +0.011 A 
ATOM     23  C   UNL     1      -2.300  -2.983   0.702  0.00  0.00    +0.119 A 
ATOM     26  C   UNL     1       0.309  -3.745   0.940  0.00  0.00    +0.020 A 
ATOM     28  C   UNL     1      -0.736  -4.475   1.481  0.00  0.00    +0.111 A 
ENDBRANCH  14  19
BRANCH   2  13
ATOM     13  C   UNL     1       1.809   2.396   1.325  0.00  0.00    +0.119 C 
BRANCH  13  18
ATOM     18  C   UNL     1       2.722   1.356   0.731  0.00  0.00    -0.032 A 
ATOM     20  C   UNL     1       2.475   0.879  -0.548  0.00  0.00    +0.023 A 
ATOM     21  C   UNL     1       3.799   0.890   1.472  0.00  0.00    +0.005 A 
ATOM     24  C   UNL     1       3.321  -0.084  -1.098  0.00  0.00    +0.052 A 
ATOM     25  C   UNL     1       4.645  -0.073   0.923  0.00  0.00    +0.002 A 
ATOM     27  C   UNL     1       4.406  -0.560  -0.362  0.00  0.00    +0.019 A 
BRANCH  24  29
ATOM      5  N   UNL     1       2.878  -0.988  -3.485  0.00  0.00    -0.191 NA
ATOM     29  C   UNL     1       3.076  -0.583  -2.415  0.00  0.00    +0.099 C 
ENDBRANCH  24  29
ENDBRANCH  13  18
ENDBRANCH   2  13
TORSDOF 4
