REMARK  Name = 11911961
REMARK  2 active torsions:
REMARK  status: ('A' for Active; 'I' for Inactive)
REMARK    1  A    between atoms: C_16  and  C_19
REMARK    2  A    between atoms: C_17  and  C_20
REMARK                            x       y       z     vdW  Elec       q    Type
REMARK                         _______ _______ _______ _____ _____    ______ ____
ROOT
ATOM      2  O   UNL     1      -1.070   1.629  -1.556  0.00  0.00    -0.267 OA
ATOM      3  O   UNL     1       2.621  -0.903  -2.206  0.00  0.00    -0.267 OA
ATOM      5  N   UNL     1       3.597   0.347  -0.515  0.00  0.00    -0.294 N 
ATOM      6  N   UNL     1       0.794   1.749  -0.157  0.00  0.00    -0.311 N 
ATOM      7  C   UNL     1       3.031   2.734  -0.926  0.00  0.00    +0.027 C 
ATOM      8  C   UNL     1       2.817   1.799   1.341  0.00  0.00    +0.054 C 
ATOM      9  C   UNL     1       3.246   3.036   0.553  0.00  0.00    +0.018 C 
ATOM     10  C   UNL     1       1.532   2.515  -1.172  0.00  0.00    +0.130 C 
ATOM     11  C   UNL     1       3.872   1.516  -1.352  0.00  0.00    +0.113 C 
ATOM     12  C   UNL     1       3.694   0.596   0.934  0.00  0.00    +0.117 C 
ATOM     13  C   UNL     1       1.358   1.470   1.091  0.00  0.00    +0.027 A 
ATOM     14  C   UNL     1       0.627   0.870   2.045  0.00  0.00    +0.022 A 
ATOM     15  C   UNL     1      -0.534   1.396  -0.471  0.00  0.00    +0.260 A 
ATOM     16  C   UNL     1       3.192  -0.860  -1.115  0.00  0.00    +0.282 C 
ATOM     17  C   UNL     1      -1.312   0.696   0.609  0.00  0.00    +0.053 A 
ATOM     18  C   UNL     1      -0.731   0.478   1.797  0.00  0.00    +0.016 A 
ENDROOT
BRANCH  17  20
ATOM      1  S   UNL     1      -2.964  -1.287  -0.236  0.00  0.00    -0.088 S 
ATOM     20  C   UNL     1      -2.658   0.277   0.381  0.00  0.00    +0.026 A 
ATOM     21  C   UNL     1      -3.827   0.977   0.592  0.00  0.00    +0.024 A 
ATOM     23  C   UNL     1      -5.003   0.229   0.246  0.00  0.00    -0.010 A 
ATOM     24  C   UNL     1      -4.672  -1.044  -0.227  0.00  0.00    +0.020 A 
ATOM     27  C   UNL     1      -6.372   0.582   0.315  0.00  0.00    +0.009 A 
ATOM     28  C   UNL     1      -5.662  -1.962  -0.629  0.00  0.00    +0.015 A 
ATOM     29  C   UNL     1      -7.358  -0.325  -0.083  0.00  0.00    +0.001 A 
ATOM     30  C   UNL     1      -7.004  -1.583  -0.549  0.00  0.00    +0.001 A 
ENDBRANCH  17  20
BRANCH  16  19
ATOM      4  O   UNL     1       4.524  -2.110   0.447  0.00  0.00    -0.458 OA
ATOM     19  C   UNL     1       3.448  -2.088  -0.375  0.00  0.00    +0.189 A 
ATOM     22  C   UNL     1       2.778  -3.282  -0.349  0.00  0.00    +0.054 A 
ATOM     25  C   UNL     1       3.492  -4.104   0.556  0.00  0.00    +0.042 A 
ATOM     26  C   UNL     1       4.544  -3.346   1.013  0.00  0.00    +0.196 A 
ENDBRANCH  16  19
TORSDOF 2
