REMARK  Name = 26744194
REMARK  7 active torsions:
REMARK  status: ('A' for Active; 'I' for Inactive)
REMARK    1  A    between atoms: O_1  and  C_12
REMARK    2  A    between atoms: N_4  and  C_8
REMARK    3  A    between atoms: C_9  and  C_17
REMARK    4  A    between atoms: C_18  and  C_20
REMARK    5  A    between atoms: C_19  and  C_21
REMARK    6  A    between atoms: C_21  and  C_22
REMARK    7  A    between atoms: C_21  and  C_23
REMARK                            x       y       z     vdW  Elec       q    Type
REMARK                         _______ _______ _______ _____ _____    ______ ____
ROOT
ATOM      4  N   UNL     1      -0.345  -1.663   0.211  0.00  0.00    -0.286 NA
ATOM      9  C   UNL     1      -1.461  -1.357  -0.707  0.00  0.00    +0.149 C 
ATOM     10  C   UNL     1      -0.489  -3.070   0.582  0.00  0.00    +0.116 C 
ATOM     11  C   UNL     1      -2.580  -2.337  -0.308  0.00  0.00    +0.061 C 
ATOM     12  C   UNL     1      -1.984  -3.182   0.811  0.00  0.00    +0.130 C 
ENDROOT
BRANCH   4   8
ATOM      3  O   UNL     1       5.320   0.592   1.002  0.00  0.00    -0.276 OA
ATOM      5  N   UNL     1       3.471   0.077  -0.307  0.00  0.00    -0.302 N 
ATOM      8  C   UNL     1       0.967  -1.377  -0.361  0.00  0.00    +0.060 C 
ATOM     13  C   UNL     1       2.069  -1.708   0.654  0.00  0.00    +0.038 C 
ATOM     14  C   UNL     1       1.050   0.098  -0.778  0.00  0.00    +0.038 C 
ATOM     15  C   UNL     1       3.444  -1.326   0.111  0.00  0.00    +0.109 C 
ATOM     16  C   UNL     1       2.446   0.445  -1.293  0.00  0.00    +0.109 C 
ATOM     18  C   UNL     1       4.447   0.934   0.200  0.00  0.00    +0.212 C 
ATOM     20  C   UNL     1       4.404   2.364  -0.277  0.00  0.00    +0.109 C 
ENDBRANCH   4   8
BRANCH   9  17
ATOM      2  O   UNL     1      -2.457   0.613  -1.755  0.00  0.00    -0.336 OA
ATOM      6  N   UNL     1      -1.812   0.933   0.366  0.00  0.00    -0.194 NA
ATOM      7  N   UNL     1      -2.771   1.943  -1.449  0.00  0.00    -0.061 NA
ATOM     17  C   UNL     1      -1.897   0.091  -0.633  0.00  0.00    +0.245 A 
ATOM     19  C   UNL     1      -2.361   2.055  -0.182  0.00  0.00    +0.174 A 
BRANCH  19  21
ATOM     21  C   UNL     1      -2.492   3.308   0.570  0.00  0.00    +0.054 C 
ATOM     22  C   UNL     1      -1.131   3.905   1.009  0.00  0.00    +0.015 C 
ATOM     23  C   UNL     1      -3.409   3.185   1.813  0.00  0.00    +0.015 C 
ENDBRANCH  19  21
ENDBRANCH   9  17
BRANCH  12   1
ATOM      1  O   UNL     1      -2.430  -4.521   0.721  0.00  0.00    -0.390 OA
ATOM     24  H   UNL     1      -3.399  -4.512   0.800  0.00  0.00    +0.210 HD
ENDBRANCH  12   1
TORSDOF 4
