REMARK  Name = 11882508
REMARK  5 active torsions:
REMARK  status: ('A' for Active; 'I' for Inactive)
REMARK    1  A    between atoms: N_6  and  C_13
REMARK    2  A    between atoms: CA_17  and  CB_20
REMARK    3  A    between atoms: CB_20  and  CG_22
REMARK    4  A    between atoms: C_21  and  C_24
REMARK    5  A    between atoms: C_23  and  C_27
REMARK                            x       y       z     vdW  Elec       q    Type
REMARK                         _______ _______ _______ _____ _____    ______ ____
ROOT
ATOM      1  O   PHE A   2       2.629  -2.934   1.134  0.00  0.00    -0.274 OA
ATOM      2  O   UNK A   1       0.718   1.906   0.001  0.00  0.00    -0.274 OA
ATOM      5  N   UNK A   1       0.969  -1.594   0.200  0.00  0.00    -0.288 N 
ATOM      7  N   PHE A   2       2.432   0.565   0.737  0.00  0.00    -0.302 N 
ATOM     12  C   UNK A   1       0.711  -0.431  -0.653  0.00  0.00    +0.164 C 
ATOM     13  C   UNK A   1      -1.708  -0.597   0.130  0.00  0.00    +0.113 C 
ATOM     14  C   UNK A   1      -0.765  -0.305  -1.054  0.00  0.00    +0.059 C 
ATOM     15  C   UNK A   1      -1.373  -1.921   0.853  0.00  0.00    +0.046 C 
ATOM     16  C   UNK A   1      -0.099  -2.579   0.330  0.00  0.00    +0.110 C 
ATOM     17  CA  PHE A   2       3.197  -0.665   0.610  0.00  0.00    +0.163 C 
ATOM     18  C   PHE A   2       2.244  -1.847   0.706  0.00  0.00    +0.237 C 
ATOM     19  C   UNK A   1       1.236   0.794   0.080  0.00  0.00    +0.234 C 
ATOM     31  H   PHE A   2       2.865   1.348   1.218  0.00  0.00    +0.150 HD
ENDROOT
BRANCH  13   6
ATOM      6  N   UNK A   1      -3.121  -0.511  -0.263  0.00  0.00    -0.236 N 
ATOM      8  N   UNK A   1      -3.618  -1.373  -1.159  0.00  0.00    -0.064 NA
ATOM      9  N   UNK A   1      -4.901  -1.067  -1.320  0.00  0.00    -0.124 NA
ATOM     21  C   UNK A   1      -4.055   0.367   0.177  0.00  0.00    +0.156 A 
ATOM     23  C   UNK A   1      -5.184  -0.004  -0.509  0.00  0.00    +0.179 A 
BRANCH  21  24
ATOM      3  O   UNK A   1      -3.988   1.257   2.366  0.00  0.00    -0.269 OA
ATOM     10  N   UNK A   1      -3.462   2.667   0.654  0.00  0.00    -0.324 N 
ATOM     24  C   UNK A   1      -3.853   1.410   1.130  0.00  0.00    +0.262 C 
ATOM     32  H   UNK A   1      -3.326   2.849  -0.335  0.00  0.00    +0.145 HD
ATOM     33  H   UNK A   1      -3.298   3.438   1.292  0.00  0.00    +0.145 HD
ENDBRANCH  21  24
BRANCH  23  27
ATOM      4  O   UNK A   1      -6.753   1.574   0.290  0.00  0.00    -0.269 OA
ATOM     11  N   UNK A   1      -7.497   0.044  -1.226  0.00  0.00    -0.324 N 
ATOM     27  C   UNK A   1      -6.484   0.588  -0.431  0.00  0.00    +0.264 C 
ATOM     34  H   UNK A   1      -7.334  -0.750  -1.838  0.00  0.00    +0.145 HD
ATOM     35  H   UNK A   1      -8.434   0.432  -1.214  0.00  0.00    +0.145 HD
ENDBRANCH  23  27
ENDBRANCH  13   6
BRANCH  17  20
ATOM     20  CB  PHE A   2       4.058  -0.709  -0.642  0.00  0.00    +0.067 C 
BRANCH  20  22
ATOM     22  CG  PHE A   2       5.303   0.127  -0.494  0.00  0.00    -0.045 A 
ATOM     25  CD1 PHE A   2       5.275   1.464  -0.865  0.00  0.00    +0.004 A 
ATOM     26  CD2 PHE A   2       6.457  -0.452   0.013  0.00  0.00    +0.004 A 
ATOM     28  CE1 PHE A   2       6.428   2.237  -0.728  0.00  0.00    +0.000 A 
ATOM     29  CE2 PHE A   2       7.609   0.322   0.151  0.00  0.00    +0.000 A 
ATOM     30  CZ  PHE A   2       7.594   1.667  -0.219  0.00  0.00    +0.000 A 
ENDBRANCH  20  22
ENDBRANCH  17  20
TORSDOF 5
