REMARK  Name = 75536498
REMARK  7 active torsions:
REMARK  status: ('A' for Active; 'I' for Inactive)
REMARK    1  A    between atoms: O_2  and  C_10
REMARK    2  A    between atoms: N_5  and  C_8
REMARK    3  A    between atoms: N_5  and  C_9
REMARK    4  A    between atoms: N_7  and  C_17
REMARK    5  A    between atoms: C_11  and  C_17
REMARK    6  A    between atoms: C_18  and  C_19
REMARK    7  A    between atoms: C_20  and  C_21
REMARK                            x       y       z     vdW  Elec       q    Type
REMARK                         _______ _______ _______ _____ _____    ______ ____
ROOT
ATOM      1  O   UNL     1       2.535   1.166   0.671  0.00  0.00    -0.371 OA
ATOM      8  C   UNL     1       0.545   0.218  -0.214  0.00  0.00    +0.111 C 
ATOM     10  C   UNL     1       1.707  -0.131  -1.125  0.00  0.00    +0.164 C 
ATOM     11  C   UNL     1       2.887   0.065  -0.184  0.00  0.00    +0.165 C 
ATOM     14  C   UNL     1       1.118   1.388   0.569  0.00  0.00    +0.181 C 
ENDROOT
BRANCH  10   2
ATOM      2  O   UNL     1       1.638  -1.456  -1.615  0.00  0.00    -0.388 OA
ATOM     23  H   UNL     1       1.587  -2.061  -0.856  0.00  0.00    +0.210 HD
ENDBRANCH  10   2
BRANCH   8   5
ATOM      5  N   UNL     1      -0.675   0.557  -0.928  0.00  0.00    -0.306 NA
ATOM     22  H   UNL     1      -0.827  -0.096  -1.695  0.00  0.00    +0.123 HD
BRANCH   5   9
ATOM      3  O   UNL     1      -6.203  -1.752   0.455  0.00  0.00    -0.276 OA
ATOM      6  N   UNL     1      -4.608  -0.064   0.490  0.00  0.00    -0.302 N 
ATOM      9  C   UNL     1      -1.825   0.543  -0.026  0.00  0.00    +0.057 C 
ATOM     12  C   UNL     1      -2.307  -0.897   0.190  0.00  0.00    +0.037 C 
ATOM     13  C   UNL     1      -2.955   1.407  -0.600  0.00  0.00    +0.037 C 
ATOM     15  C   UNL     1      -3.567  -0.926   1.053  0.00  0.00    +0.109 C 
ATOM     16  C   UNL     1      -4.203   1.332   0.279  0.00  0.00    +0.109 C 
ATOM     18  C   UNL     1      -5.877  -0.583   0.236  0.00  0.00    +0.212 C 
ATOM     19  C   UNL     1      -6.892   0.368  -0.347  0.00  0.00    +0.109 C 
ENDBRANCH   5   9
ENDBRANCH   8   5
BRANCH  11  17
ATOM     17  C   UNL     1       4.187   0.372  -0.907  0.00  0.00    +0.138 C 
BRANCH  17   7
ATOM      4  O   UNL     1       5.988  -1.661   0.121  0.00  0.00    -0.276 OA
ATOM      7  N   UNL     1       5.268   0.553   0.019  0.00  0.00    -0.313 N 
ATOM     20  C   UNL     1       6.084  -0.484   0.458  0.00  0.00    +0.210 C 
ATOM     21  C   UNL     1       7.156  -0.014   1.406  0.00  0.00    +0.109 C 
ATOM     24  H   UNL     1       5.438   1.492   0.368  0.00  0.00    +0.149 HD
ENDBRANCH  17   7
ENDBRANCH  11  17
TORSDOF 5
