REMARK  Name = 71693895
REMARK  9 active torsions:
REMARK  status: ('A' for Active; 'I' for Inactive)
REMARK    1  A    between atoms: O_1  and  C_10
REMARK    2  A    between atoms: O_2  and  C_12
REMARK    3  A    between atoms: O_4  and  C_20
REMARK    4  A    between atoms: O_4  and  C_25
REMARK    5  A    between atoms: N_6  and  C_9
REMARK    6  A    between atoms: C_8  and  C_13
REMARK    7  A    between atoms: C_16  and  C_19
REMARK    8  A    between atoms: C_21  and  C_23
REMARK    9  A    between atoms: C_22  and  C_24
REMARK                            x       y       z     vdW  Elec       q    Type
REMARK                         _______ _______ _______ _____ _____    ______ ____
ROOT
ATOM      8  C   UNL     1       1.207   1.558   0.286  0.00  0.00    +0.044 C 
ATOM      9  C   UNL     1       0.459   1.306  -1.043  0.00  0.00    +0.112 C 
ATOM     10  C   UNL     1       0.100   2.713  -1.520  0.00  0.00    +0.164 C 
ATOM     11  C   UNL     1       1.744   3.009   0.200  0.00  0.00    +0.044 C 
ATOM     12  C   UNL     1       1.346   3.522  -1.183  0.00  0.00    +0.145 C 
ENDROOT
BRANCH   8  13
ATOM     13  C   UNL     1       2.267   0.516   0.575  0.00  0.00    -0.042 A 
ATOM     14  C   UNL     1       3.321   0.327  -0.320  0.00  0.00    +0.007 A 
ATOM     15  C   UNL     1       2.189  -0.257   1.734  0.00  0.00    +0.007 A 
ATOM     17  C   UNL     1       4.296  -0.635  -0.055  0.00  0.00    +0.046 A 
ATOM     18  C   UNL     1       3.164  -1.218   1.998  0.00  0.00    +0.046 A 
ATOM     20  C   UNL     1       4.218  -1.407   1.104  0.00  0.00    +0.120 A 
BRANCH  20   4
ATOM      4  O   UNL     1       5.169  -2.346   1.362  0.00  0.00    -0.495 OA
ATOM     25  C   UNL     1       6.218  -2.486   0.405  0.00  0.00    +0.277 C 
ENDBRANCH  20   4
ENDBRANCH   8  13
BRANCH   9   6
ATOM      3  O   UNL     1       0.305  -1.548  -1.314  0.00  0.00    -0.270 OA
ATOM      6  N   UNL     1      -0.711   0.486  -0.858  0.00  0.00    -0.305 N 
ATOM     16  C   UNL     1      -0.689  -0.894  -1.011  0.00  0.00    +0.250 C 
ATOM     31  H   UNL     1      -1.582   0.959  -0.645  0.00  0.00    +0.149 HD
BRANCH  16  19
ATOM      5  O   UNL     1      -3.619  -3.097  -0.999  0.00  0.00    -0.359 OA
ATOM      7  N   UNL     1      -4.071  -2.150  -0.088  0.00  0.00    -0.077 NA
ATOM     19  C   UNL     1      -1.984  -1.593  -0.811  0.00  0.00    +0.106 A 
ATOM     21  C   UNL     1      -3.078  -1.262   0.008  0.00  0.00    +0.126 A 
ATOM     22  C   UNL     1      -2.376  -2.754  -1.423  0.00  0.00    +0.147 A 
ATOM     24  C   UNL     1      -1.749  -3.658  -2.397  0.00  0.00    +0.090 C 
BRANCH  21  23
ATOM     23  C   UNL     1      -3.204  -0.123   0.880  0.00  0.00    +0.004 A 
ATOM     26  C   UNL     1      -2.294   0.060   1.921  0.00  0.00    +0.010 A 
ATOM     27  C   UNL     1      -4.234   0.796   0.684  0.00  0.00    +0.010 A 
ATOM     28  C   UNL     1      -2.416   1.163   2.767  0.00  0.00    +0.001 A 
ATOM     29  C   UNL     1      -4.356   1.898   1.530  0.00  0.00    +0.001 A 
ATOM     30  C   UNL     1      -3.446   2.082   2.571  0.00  0.00    +0.000 A 
ENDBRANCH  21  23
ENDBRANCH  16  19
ENDBRANCH   9   6
BRANCH  10   1
ATOM      1  O   UNL     1      -0.176   2.754  -2.908  0.00  0.00    -0.387 OA
ATOM     32  H   UNL     1      -0.302   3.687  -3.152  0.00  0.00    +0.210 HD
ENDBRANCH  10   1
BRANCH  12   2
ATOM      2  O   UNL     1       2.402   3.237  -2.096  0.00  0.00    -0.389 OA
ATOM     33  H   UNL     1       3.179   3.747  -1.811  0.00  0.00    +0.210 HD
ENDBRANCH  12   2
TORSDOF 7
