REMARK  Name = 28960185
REMARK  11 active torsions:
REMARK  status: ('A' for Active; 'I' for Inactive)
REMARK    1  A    between atoms: O_2  and  C_22
REMARK    2  A    between atoms: N_6  and  C_19
REMARK    3  A    between atoms: N_6  and  C_23
REMARK    4  A    between atoms: N_6  and  C_25
REMARK    5  A    between atoms: N_7  and  C_24
REMARK    6  A    between atoms: C_8  and  C_13
REMARK    7  A    between atoms: C_9  and  C_15
REMARK    8  A    between atoms: C_13  and  C_19
REMARK    9  A    between atoms: C_14  and  C_16
REMARK   10  A    between atoms: C_15  and  C_22
REMARK   11  A    between atoms: C_23  and  C_24
REMARK                            x       y       z     vdW  Elec       q    Type
REMARK                         _______ _______ _______ _____ _____    ______ ____
ROOT
ATOM      1  O   UNL     1      -2.026  -3.493  -1.202  0.00  0.00    -0.275 OA
ATOM      5  N   UNL     1       0.103  -3.240  -0.293  0.00  0.00    -0.301 N 
ATOM      8  C   UNL     1       2.058  -1.837   0.320  0.00  0.00    +0.012 C 
ATOM      9  C   UNL     1       2.817  -2.432  -0.894  0.00  0.00    +0.006 C 
ATOM     10  C   UNL     1       0.988  -2.832   0.804  0.00  0.00    +0.111 C 
ATOM     11  C   UNL     1       1.848  -2.891  -1.998  0.00  0.00    +0.023 C 
ATOM     12  C   UNL     1       0.783  -3.833  -1.444  0.00  0.00    +0.108 C 
ATOM     16  C   UNL     1      -1.290  -3.126  -0.289  0.00  0.00    +0.219 C 
ENDROOT
BRANCH  16  14
ATOM     14  C   UNL     1      -1.926  -2.508   0.918  0.00  0.00    +0.075 C 
ATOM     17  C   UNL     1      -2.293  -3.591   1.939  0.00  0.00    +0.013 C 
ATOM     18  C   UNL     1      -3.235  -1.812   0.542  0.00  0.00    +0.013 C 
ATOM     20  C   UNL     1      -3.786  -3.426   2.201  0.00  0.00    +0.001 C 
ATOM     21  C   UNL     1      -4.322  -2.808   0.923  0.00  0.00    +0.001 C 
ENDBRANCH  16  14
BRANCH   8  13
ATOM     13  C   UNL     1       1.427  -0.465   0.050  0.00  0.00    +0.024 C 
BRANCH  13  19
ATOM     19  C   UNL     1       1.204   0.332   1.325  0.00  0.00    +0.105 C 
BRANCH  19   6
ATOM      6  N   UNL     1       0.656   1.634   1.029  0.00  0.00    -0.329 N 
BRANCH   6  25
ATOM     25  C   UNL     1       1.484   2.726   0.735  0.00  0.00    +0.030 A 
ATOM     28  C   UNL     1       2.870   2.568   0.724  0.00  0.00    +0.023 A 
ATOM     29  C   UNL     1       0.922   3.971   0.453  0.00  0.00    +0.023 A 
ATOM     32  C   UNL     1       3.694   3.655   0.431  0.00  0.00    +0.002 A 
ATOM     33  C   UNL     1       1.745   5.058   0.160  0.00  0.00    +0.002 A 
ATOM     34  C   UNL     1       3.131   4.900   0.149  0.00  0.00    +0.000 A 
ENDBRANCH   6  25
BRANCH   6  23
ATOM     23  C   UNL     1      -0.798   1.802   1.048  0.00  0.00    +0.120 C 
BRANCH  23  24
ATOM     24  C   UNL     1      -1.339   1.740  -0.375  0.00  0.00    +0.103 C 
BRANCH  24   7
ATOM      4  O   UNL     1      -5.214   2.971  -1.415  0.00  0.00    -0.377 OA
ATOM      7  N   UNL     1      -2.792   1.898  -0.374  0.00  0.00    -0.297 NA
ATOM     26  C   UNL     1      -3.371   1.408  -1.633  0.00  0.00    +0.112 C 
ATOM     27  C   UNL     1      -3.163   3.304  -0.163  0.00  0.00    +0.112 C 
ATOM     30  C   UNL     1      -4.885   1.596  -1.614  0.00  0.00    +0.175 C 
ATOM     31  C   UNL     1      -4.682   3.446  -0.177  0.00  0.00    +0.175 C 
ENDBRANCH  24   7
ENDBRANCH  23  24
ENDBRANCH   6  23
ENDBRANCH  19   6
ENDBRANCH  13  19
ENDBRANCH   8  13
BRANCH   9  15
ATOM     15  C   UNL     1       3.873  -1.485  -1.465  0.00  0.00    +0.124 C 
BRANCH  15  22
ATOM      3  O   UNL     1       5.119   0.047  -0.035  0.00  0.00    -0.251 OA
ATOM     22  C   UNL     1       4.882  -1.087  -0.424  0.00  0.00    +0.305 C 
BRANCH  22   2
ATOM      2  O   UNL     1       5.517  -2.193   0.044  0.00  0.00    -0.481 OA
ATOM     35  H   UNL     1       6.183  -1.970   0.729  0.00  0.00    +0.295 HD
ENDBRANCH  22   2
ENDBRANCH  15  22
ENDBRANCH   9  15
TORSDOF 11
