REMARK  Name = 28963020
REMARK  12 active torsions:
REMARK  status: ('A' for Active; 'I' for Inactive)
REMARK    1  A    between atoms: O_1  and  C_10
REMARK    2  A    between atoms: O_4  and  C_29
REMARK    3  A    between atoms: O_4  and  C_30
REMARK    4  A    between atoms: N_5  and  C_14
REMARK    5  A    between atoms: N_6  and  C_23
REMARK    6  A    between atoms: C_7  and  C_17
REMARK    7  A    between atoms: C_9  and  C_19
REMARK    8  A    between atoms: C_12  and  C_18
REMARK    9  A    between atoms: C_18  and  C_20
REMARK   10  A    between atoms: C_18  and  C_21
REMARK   11  A    between atoms: C_22  and  C_24
REMARK   12  A    between atoms: C_24  and  C_29
REMARK                            x       y       z     vdW  Elec       q    Type
REMARK                         _______ _______ _______ _____ _____    ______ ____
ROOT
ATOM      7  C   UNL     1       0.182  -0.959  -1.435  0.00  0.00    -0.027 C 
ATOM      8  C   UNL     1       0.375  -0.537   0.060  0.00  0.00    +0.028 C 
ATOM      9  C   UNL     1       1.824  -0.885   0.556  0.00  0.00    +0.012 C 
ATOM     10  C   UNL     1      -0.783  -1.072   0.951  0.00  0.00    +0.122 C 
ATOM     11  C   UNL     1      -1.212  -0.501  -1.924  0.00  0.00    +0.007 C 
ATOM     12  C   UNL     1      -2.178  -0.699   0.399  0.00  0.00    +0.029 C 
ATOM     13  C   UNL     1       1.243  -0.243  -2.302  0.00  0.00    +0.009 C 
ATOM     14  C   UNL     1       2.884  -0.222  -0.369  0.00  0.00    +0.076 C 
ATOM     15  C   UNL     1      -2.351  -1.055  -1.078  0.00  0.00    +0.007 C 
ATOM     16  C   UNL     1       2.670  -0.522  -1.852  0.00  0.00    +0.023 C 
ATOM     17  C   UNL     1       0.303  -2.490  -1.641  0.00  0.00    +0.011 C 
ATOM     19  C   UNL     1       2.093  -0.471   2.012  0.00  0.00    +0.010 C 
ENDROOT
BRANCH  14   5
ATOM      3  O   UNL     1       5.283   1.363  -0.617  0.00  0.00    -0.276 OA
ATOM      5  N   UNL     1       4.230  -0.616  -0.010  0.00  0.00    -0.312 N 
ATOM     22  C   UNL     1       5.324   0.221  -0.168  0.00  0.00    +0.215 C 
ATOM     31  H   UNL     1       4.380  -1.569   0.311  0.00  0.00    +0.149 HD
BRANCH  22  24
ATOM     24  C   UNL     1       6.608  -0.452   0.291  0.00  0.00    +0.124 C 
BRANCH  24  29
ATOM     29  C   UNL     1       7.832   0.437   0.134  0.00  0.00    +0.168 C 
BRANCH  29   4
ATOM      4  O   UNL     1       7.678   1.600   0.937  0.00  0.00    -0.382 OA
ATOM     30  C   UNL     1       8.804   2.460   0.830  0.00  0.00    +0.194 C 
ENDBRANCH  29   4
ENDBRANCH  24  29
ENDBRANCH  22  24
ENDBRANCH  14   5
BRANCH  10   1
ATOM      1  O   UNL     1      -0.690  -0.492   2.252  0.00  0.00    -0.391 OA
ATOM     32  H   UNL     1      -0.753   0.474   2.159  0.00  0.00    +0.210 HD
ENDBRANCH  10   1
BRANCH  12  18
ATOM     18  C   UNL     1      -3.304  -1.344   1.216  0.00  0.00    +0.077 C 
ATOM     20  C   UNL     1      -3.166  -2.862   1.193  0.00  0.00    +0.017 C 
BRANCH  18  21
ATOM      2  O   UNL     1      -5.503  -1.695   0.263  0.00  0.00    -0.276 OA
ATOM      6  N   UNL     1      -4.818   0.477   0.702  0.00  0.00    -0.312 N 
ATOM     21  C   UNL     1      -4.660  -0.901   0.675  0.00  0.00    +0.216 C 
ATOM     33  H   UNL     1      -4.079   1.060   1.081  0.00  0.00    +0.149 HD
BRANCH   6  23
ATOM     23  C   UNL     1      -6.016   1.134   0.239  0.00  0.00    +0.073 C 
ATOM     25  C   UNL     1      -6.240   2.468   0.942  0.00  0.00    +0.022 C 
ATOM     26  C   UNL     1      -5.905   1.538  -1.225  0.00  0.00    +0.022 C 
ATOM     27  C   UNL     1      -5.379   3.469   0.173  0.00  0.00    +0.002 C 
ATOM     28  C   UNL     1      -5.129   2.852  -1.204  0.00  0.00    +0.002 C 
ENDBRANCH   6  23
ENDBRANCH  18  21
ENDBRANCH  12  18
TORSDOF 8
