REMARK  Name = 11884543
REMARK  5 active torsions:
REMARK  status: ('A' for Active; 'I' for Inactive)
REMARK    1  A    between atoms: O_4  and  C_29
REMARK    2  A    between atoms: O_4  and  C_34
REMARK    3  A    between atoms: N_7  and  C_19
REMARK    4  A    between atoms: N_8  and  C_28
REMARK    5  A    between atoms: C_18  and  C_21
REMARK                            x       y       z     vdW  Elec       q    Type
REMARK                         _______ _______ _______ _____ _____    ______ ____
ROOT
ATOM      1  O   UNL     1      -0.221   2.599   1.367  0.00  0.00    -0.266 OA
ATOM      2  O   UNL     1      -3.942  -0.795   2.551  0.00  0.00    -0.270 OA
ATOM      5  N   UNL     1      -4.449   0.111   0.454  0.00  0.00    -0.297 N 
ATOM      6  N   UNL     1      -1.949   1.989  -0.082  0.00  0.00    -0.310 N 
ATOM      9  C   UNL     1      -4.399   2.598   0.351  0.00  0.00    +0.027 C 
ATOM     10  C   UNL     1      -3.798   1.278  -1.639  0.00  0.00    +0.054 C 
ATOM     11  C   UNL     1      -4.537   2.530  -1.166  0.00  0.00    +0.018 C 
ATOM     12  C   UNL     1      -5.013   1.345   1.002  0.00  0.00    +0.113 C 
ATOM     13  C   UNL     1      -2.917   2.765   0.706  0.00  0.00    +0.130 C 
ATOM     14  C   UNL     1      -4.449   0.028  -1.015  0.00  0.00    +0.117 C 
ATOM     15  C   UNL     1      -2.331   1.334  -1.258  0.00  0.00    +0.027 A 
ATOM     16  C   UNL     1      -1.409   0.728  -2.025  0.00  0.00    +0.024 A 
ATOM     17  C   UNL     1      -0.608   2.022   0.349  0.00  0.00    +0.273 A 
ATOM     18  C   UNL     1      -3.945  -0.860   1.323  0.00  0.00    +0.247 C 
ATOM     19  C   UNL     1       0.384   1.311  -0.518  0.00  0.00    +0.100 A 
ATOM     20  C   UNL     1      -0.025   0.716  -1.643  0.00  0.00    +0.030 A 
ENDROOT
BRANCH  19   7
ATOM      3  O   UNL     1       2.292  -0.724  -1.073  0.00  0.00    -0.252 OA
ATOM      7  N   UNL     1       1.690   1.304  -0.124  0.00  0.00    -0.265 N 
ATOM      8  N   UNL     1       3.849   0.565   0.120  0.00  0.00    -0.266 N 
ATOM     24  C   UNL     1       2.592   0.275  -0.424  0.00  0.00    +0.308 C 
ATOM     35  H   UNL     1       1.950   1.947   0.619  0.00  0.00    +0.157 HD
ATOM     36  H   UNL     1       3.933   1.438   0.634  0.00  0.00    +0.156 HD
BRANCH   8  28
ATOM     28  C   UNL     1       5.028  -0.213   0.045  0.00  0.00    +0.077 A 
ATOM     29  C   UNL     1       6.193   0.234   0.648  0.00  0.00    +0.141 A 
ATOM     30  C   UNL     1       4.989  -1.418  -0.639  0.00  0.00    +0.027 A 
ATOM     31  C   UNL     1       7.348  -0.544   0.566  0.00  0.00    +0.047 A 
ATOM     32  C   UNL     1       6.144  -2.196  -0.722  0.00  0.00    +0.002 A 
ATOM     33  C   UNL     1       7.323  -1.758  -0.119  0.00  0.00    +0.004 A 
BRANCH  29   4
ATOM      4  O   UNL     1       6.239   1.418   1.323  0.00  0.00    -0.493 OA
ATOM     34  C   UNL     1       6.586   2.578   0.571  0.00  0.00    +0.277 C 
ENDBRANCH  29   4
ENDBRANCH   8  28
ENDBRANCH  19   7
BRANCH  18  21
ATOM     21  C   UNL     1      -3.346  -2.062   0.735  0.00  0.00    +0.037 A 
ATOM     22  C   UNL     1      -1.985  -2.086   0.442  0.00  0.00    +0.013 A 
ATOM     23  C   UNL     1      -4.141  -3.176   0.474  0.00  0.00    +0.013 A 
ATOM     25  C   UNL     1      -1.415  -3.230  -0.116  0.00  0.00    +0.001 A 
ATOM     26  C   UNL     1      -3.571  -4.320  -0.084  0.00  0.00    +0.001 A 
ATOM     27  C   UNL     1      -2.208  -4.347  -0.379  0.00  0.00    +0.000 A 
ENDBRANCH  18  21
TORSDOF 4
