REMARK  Name = 11885930
REMARK  5 active torsions:
REMARK  status: ('A' for Active; 'I' for Inactive)
REMARK    1  A    between atoms: O_5  and  C_31
REMARK    2  A    between atoms: O_5  and  C_36
REMARK    3  A    between atoms: N_8  and  C_23
REMARK    4  A    between atoms: N_9  and  C_21
REMARK    5  A    between atoms: N_10  and  C_30
REMARK                            x       y       z     vdW  Elec       q    Type
REMARK                         _______ _______ _______ _____ _____    ______ ____
ROOT
ATOM      2  O   UNL     1      -0.414   2.445   1.867  0.00  0.00    -0.266 OA
ATOM      3  O   UNL     1      -4.193  -1.162   1.817  0.00  0.00    -0.252 OA
ATOM      6  N   UNL     1      -4.571   0.304   0.068  0.00  0.00    -0.284 N 
ATOM      7  N   UNL     1      -2.086   2.297   0.241  0.00  0.00    -0.310 N 
ATOM      8  N   UNL     1      -3.569  -1.796  -0.324  0.00  0.00    -0.269 N 
ATOM     11  C   UNL     1      -4.559   2.707   0.756  0.00  0.00    +0.027 C 
ATOM     12  C   UNL     1      -3.874   2.090  -1.522  0.00  0.00    +0.054 C 
ATOM     13  C   UNL     1      -4.654   3.119  -0.707  0.00  0.00    +0.018 C 
ATOM     14  C   UNL     1      -5.163   1.307   0.958  0.00  0.00    +0.114 C 
ATOM     15  C   UNL     1      -3.093   2.773   1.199  0.00  0.00    +0.130 C 
ATOM     16  C   UNL     1      -4.514   0.695  -1.353  0.00  0.00    +0.119 C 
ATOM     17  C   UNL     1      -2.420   2.040  -1.092  0.00  0.00    +0.027 A 
ATOM     18  C   UNL     1      -1.462   1.718  -1.978  0.00  0.00    +0.024 A 
ATOM     19  C   UNL     1      -0.758   2.213   0.707  0.00  0.00    +0.273 A 
ATOM     20  C   UNL     1      -4.106  -0.913   0.612  0.00  0.00    +0.306 C 
ATOM     21  C   UNL     1       0.275   1.826  -0.305  0.00  0.00    +0.100 A 
ATOM     22  C   UNL     1      -0.089   1.608  -1.574  0.00  0.00    +0.030 A 
ATOM     37  H   UNL     1      -3.907  -1.749  -1.279  0.00  0.00    +0.156 HD
ENDROOT
BRANCH   8  23
ATOM      1  F   UNL     1       0.156  -5.792   0.597  0.00  0.00    -0.205 F 
ATOM     23  C   UNL     1      -2.615  -2.817  -0.089  0.00  0.00    +0.035 A 
ATOM     25  C   UNL     1      -2.254  -3.678  -1.122  0.00  0.00    +0.026 A 
ATOM     26  C   UNL     1      -2.046  -2.955   1.174  0.00  0.00    +0.026 A 
ATOM     27  C   UNL     1      -1.317  -4.684  -0.890  0.00  0.00    +0.040 A 
ATOM     28  C   UNL     1      -1.108  -3.961   1.406  0.00  0.00    +0.040 A 
ATOM     29  C   UNL     1      -0.744  -4.826   0.374  0.00  0.00    +0.124 A 
ENDBRANCH   8  23
BRANCH  21   9
ATOM      4  O   UNL     1       2.249   0.100  -1.406  0.00  0.00    -0.252 OA
ATOM      9  N   UNL     1       1.569   1.718   0.110  0.00  0.00    -0.265 N 
ATOM     10  N   UNL     1       3.740   0.975   0.182  0.00  0.00    -0.266 N 
ATOM     24  C   UNL     1       2.506   0.850  -0.467  0.00  0.00    +0.308 C 
ATOM     38  H   UNL     1       1.792   2.099   1.025  0.00  0.00    +0.157 HD
ATOM     39  H   UNL     1       3.787   1.643   0.947  0.00  0.00    +0.156 HD
BRANCH  10  30
ATOM     30  C   UNL     1       4.941   0.280  -0.094  0.00  0.00    +0.077 A 
ATOM     31  C   UNL     1       6.077   0.534   0.659  0.00  0.00    +0.141 A 
ATOM     32  C   UNL     1       4.951  -0.650  -1.122  0.00  0.00    +0.027 A 
ATOM     33  C   UNL     1       7.253  -0.160   0.376  0.00  0.00    +0.047 A 
ATOM     34  C   UNL     1       6.128  -1.343  -1.405  0.00  0.00    +0.002 A 
ATOM     35  C   UNL     1       7.279  -1.098  -0.656  0.00  0.00    +0.004 A 
BRANCH  31   5
ATOM      5  O   UNL     1       6.072   1.447   1.671  0.00  0.00    -0.493 OA
ATOM     36  C   UNL     1       6.410   2.790   1.331  0.00  0.00    +0.277 C 
ENDBRANCH  31   5
ENDBRANCH  10  30
ENDBRANCH  21   9
TORSDOF 4
