REMARK  Name = 56775731
REMARK  7 active torsions:
REMARK  status: ('A' for Active; 'I' for Inactive)
REMARK    1  A    between atoms: O_3  and  C_23
REMARK    2  A    between atoms: N_4  and  C_6
REMARK    3  A    between atoms: N_4  and  C_8
REMARK    4  A    between atoms: C_6  and  C_13
REMARK    5  A    between atoms: C_7  and  C_8
REMARK    6  A    between atoms: C_13  and  C_17
REMARK    7  A    between atoms: C_19  and  C_20
REMARK                            x       y       z     vdW  Elec       q    Type
REMARK                         _______ _______ _______ _____ _____    ______ ____
ROOT
ATOM     13  C   UNL     1       0.639  -1.173  -1.475  0.00  0.00    +0.085 C 
ENDROOT
BRANCH  13  17
ATOM      2  O   UNL     1      -1.730   1.385  -0.529  0.00  0.00    -0.354 OA
ATOM      5  N   UNL     1      -0.465   0.965  -0.920  0.00  0.00    -0.083 NA
ATOM     17  C   UNL     1      -0.567  -0.361  -1.052  0.00  0.00    +0.086 A 
ATOM     18  C   UNL     1      -1.860  -0.828  -0.760  0.00  0.00    +0.076 A 
ATOM     19  C   UNL     1      -2.552   0.309  -0.437  0.00  0.00    +0.168 A 
BRANCH  19  20
ATOM     20  C   UNL     1      -3.902   0.588  -0.042  0.00  0.00    +0.023 A 
ATOM     21  C   UNL     1      -4.824  -0.452   0.077  0.00  0.00    +0.057 A 
ATOM     22  C   UNL     1      -4.293   1.901   0.223  0.00  0.00    +0.012 A 
ATOM     23  C   UNL     1      -6.138  -0.179   0.459  0.00  0.00    +0.118 A 
ATOM     24  C   UNL     1      -5.607   2.173   0.605  0.00  0.00    +0.004 A 
ATOM     25  C   UNL     1      -6.529   1.133   0.724  0.00  0.00    +0.045 A 
BRANCH  23   3
ATOM      3  O   UNL     1      -7.037  -1.194   0.573  0.00  0.00    -0.507 OA
ATOM     27  H   UNL     1      -7.895  -0.825   0.846  0.00  0.00    +0.292 HD
ENDBRANCH  23   3
ENDBRANCH  19  20
ENDBRANCH  13  17
BRANCH  13   6
ATOM      1  O   UNL     1       1.626  -3.587   0.524  0.00  0.00    -0.376 OA
ATOM      6  C   UNL     1       1.425  -1.621  -0.281  0.00  0.00    +0.072 C 
ATOM     11  C   UNL     1       0.739  -2.475   0.779  0.00  0.00    +0.184 C 
ATOM     12  C   UNL     1       2.381  -2.800  -0.425  0.00  0.00    +0.184 C 
BRANCH   6   4
ATOM      4  N   UNL     1       2.131  -0.519   0.385  0.00  0.00    -0.306 NA
ATOM     26  H   UNL     1       1.530   0.163   0.846  0.00  0.00    +0.123 HD
BRANCH   4   8
ATOM      8  C   UNL     1       2.995   0.152  -0.574  0.00  0.00    +0.085 C 
BRANCH   8   7
ATOM      7  C   UNL     1       4.146   0.863   0.136  0.00  0.00    +0.003 C 
ATOM      9  C   UNL     1       5.012  -0.143   0.905  0.00  0.00    +0.005 C 
ATOM     10  C   UNL     1       4.992   1.658  -0.867  0.00  0.00    +0.005 C 
ATOM     14  C   UNL     1       6.201   0.537   1.580  0.00  0.00    +0.000 C 
ATOM     15  C   UNL     1       6.182   2.335  -0.189  0.00  0.00    +0.000 C 
ATOM     16  C   UNL     1       7.035   1.333   0.582  0.00  0.00    +0.000 C 
ENDBRANCH   8   7
ENDBRANCH   4   8
ENDBRANCH   6   4
ENDBRANCH  13   6
TORSDOF 7
