REMARK  Name = 26742708
REMARK  6 active torsions:
REMARK  status: ('A' for Active; 'I' for Inactive)
REMARK    1  A    between atoms: O_3  and  C_29
REMARK    2  A    between atoms: O_3  and  C_30
REMARK    3  A    between atoms: N_5  and  C_16
REMARK    4  A    between atoms: C_15  and  C_17
REMARK    5  A    between atoms: C_16  and  C_18
REMARK    6  A    between atoms: C_17  and  C_19
REMARK                            x       y       z     vdW  Elec       q    Type
REMARK                         _______ _______ _______ _____ _____    ______ ____
ROOT
ATOM      1  O   UNL     1      -5.231   0.037   1.003  0.00  0.00    -0.276 OA
ATOM      2  O   UNL     1       1.681  -0.904   1.587  0.00  0.00    -0.275 OA
ATOM      4  N   UNL     1      -0.004  -2.145   0.578  0.00  0.00    -0.301 N 
ATOM      5  N   UNL     1      -3.982   0.231  -0.942  0.00  0.00    -0.297 N 
ATOM      6  C   UNL     1      -1.986  -2.334  -0.916  0.00  0.00    +0.011 C 
ATOM      7  C   UNL     1      -2.878  -2.408   0.345  0.00  0.00    +0.004 C 
ATOM      8  C   UNL     1      -2.226  -1.692   1.543  0.00  0.00    +0.023 C 
ATOM      9  C   UNL     1      -0.571  -2.849  -0.580  0.00  0.00    +0.111 C 
ATOM     10  C   UNL     1      -1.896  -0.945  -1.576  0.00  0.00    +0.024 C 
ATOM     11  C   UNL     1      -4.332  -1.978   0.111  0.00  0.00    +0.100 C 
ATOM     12  C   UNL     1      -0.814  -2.217   1.794  0.00  0.00    +0.108 C 
ATOM     13  C   UNL     1      -3.246  -0.404  -2.034  0.00  0.00    +0.108 C 
ATOM     14  C   UNL     1      -4.562  -0.478   0.103  0.00  0.00    +0.216 C 
ATOM     15  C   UNL     1       1.214  -1.468   0.593  0.00  0.00    +0.220 C 
ENDROOT
BRANCH   5  16
ATOM     16  C   UNL     1      -4.082   1.684  -0.982  0.00  0.00    +0.142 C 
BRANCH  16  18
ATOM     18  C   UNL     1      -2.913   2.347  -0.313  0.00  0.00    -0.030 A 
ATOM     20  C   UNL     1      -2.964   2.642   1.050  0.00  0.00    +0.005 A 
ATOM     21  C   UNL     1      -1.774   2.667  -1.053  0.00  0.00    +0.005 A 
ATOM     24  C   UNL     1      -1.878   3.258   1.672  0.00  0.00    +0.000 A 
ATOM     25  C   UNL     1      -0.688   3.282  -0.431  0.00  0.00    +0.000 A 
ATOM     26  C   UNL     1      -0.740   3.578   0.932  0.00  0.00    +0.000 A 
ENDBRANCH  16  18
ENDBRANCH   5  16
BRANCH  15  17
ATOM     17  C   UNL     1       1.987  -1.436  -0.701  0.00  0.00    +0.131 C 
BRANCH  17  19
ATOM     19  C   UNL     1       3.286  -0.715  -0.523  0.00  0.00    -0.038 A 
ATOM     22  C   UNL     1       3.354   0.662  -0.733  0.00  0.00    +0.007 A 
ATOM     23  C   UNL     1       4.429  -1.420  -0.145  0.00  0.00    +0.007 A 
ATOM     27  C   UNL     1       4.565   1.335  -0.565  0.00  0.00    +0.046 A 
ATOM     28  C   UNL     1       5.639  -0.748   0.023  0.00  0.00    +0.046 A 
ATOM     29  C   UNL     1       5.707   0.630  -0.187  0.00  0.00    +0.120 A 
BRANCH  29   3
ATOM      3  O   UNL     1       6.888   1.286  -0.021  0.00  0.00    -0.495 OA
ATOM     30  C   UNL     1       8.017   0.504   0.367  0.00  0.00    +0.277 C 
ENDBRANCH  29   3
ENDBRANCH  17  19
ENDBRANCH  15  17
TORSDOF 5
