REMARK  Name = 45360649
REMARK  8 active torsions:
REMARK  status: ('A' for Active; 'I' for Inactive)
REMARK    1  A    between atoms: N_6  and  C_10
REMARK    2  A    between atoms: N_6  and  C_18
REMARK    3  A    between atoms: N_7  and  C_22
REMARK    4  A    between atoms: C_11  and  C_16
REMARK    5  A    between atoms: C_16  and  C_17
REMARK    6  A    between atoms: C_17  and  C_19
REMARK    7  A    between atoms: C_18  and  C_20
REMARK    8  A    between atoms: C_22  and  C_25
REMARK                            x       y       z     vdW  Elec       q    Type
REMARK                         _______ _______ _______ _____ _____    ______ ____
ROOT
ATOM      2  O   UNL     1      -0.142  -2.098   2.788  0.00  0.00    -0.274 OA
ATOM      4  N   UNL     1      -0.312   0.886   0.692  0.00  0.00    -0.286 NA
ATOM      5  N   UNL     1      -0.876  -0.005   3.292  0.00  0.00    -0.313 N 
ATOM      9  C   UNL     1      -0.244  -0.558   0.949  0.00  0.00    +0.145 C 
ATOM     10  C   UNL     1       1.774   0.319  -0.080  0.00  0.00    +0.070 C 
ATOM     11  C   UNL     1      -1.317   1.589   1.481  0.00  0.00    +0.075 C 
ATOM     12  C   UNL     1       1.134  -0.980   0.413  0.00  0.00    +0.048 C 
ATOM     13  C   UNL     1       1.057   1.395   0.724  0.00  0.00    +0.104 C 
ATOM     14  C   UNL     1      -1.075   1.388   2.969  0.00  0.00    +0.123 C 
ATOM     15  C   UNL     1      -0.392  -0.947   2.417  0.00  0.00    +0.230 C 
ATOM     32  H   UNL     1      -0.991  -0.283   4.263  0.00  0.00    +0.149 HD
ENDROOT
BRANCH  10   6
ATOM      6  N   UNL     1       3.219   0.340   0.082  0.00  0.00    -0.307 NA
ATOM     33  H   UNL     1       3.541   1.307   0.053  0.00  0.00    +0.123 HD
BRANCH   6  18
ATOM     18  C   UNL     1       3.875  -0.412  -0.980  0.00  0.00    +0.136 C 
BRANCH  18  20
ATOM      8  N   UNL     1       5.928  -1.559  -0.369  0.00  0.00    -0.259 NA
ATOM     20  C   UNL     1       5.369  -0.416  -0.825  0.00  0.00    +0.055 A 
ATOM     21  C   UNL     1       6.087   0.724  -1.149  0.00  0.00    +0.024 A 
ATOM     23  C   UNL     1       7.468   0.688  -0.996  0.00  0.00    +0.003 A 
ATOM     24  C   UNL     1       7.273  -1.556  -0.233  0.00  0.00    +0.111 A 
ATOM     26  C   UNL     1       8.081  -0.470  -0.530  0.00  0.00    +0.020 A 
ENDBRANCH  18  20
ENDBRANCH   6  18
ENDBRANCH  10   6
BRANCH  11  16
ATOM     16  C   UNL     1      -1.409   3.076   1.136  0.00  0.00    +0.029 C 
BRANCH  16  17
ATOM     17  C   UNL     1      -1.609   3.283  -0.359  0.00  0.00    +0.097 C 
BRANCH  17  19
ATOM      3  O   UNL     1      -4.006   2.950  -0.441  0.00  0.00    -0.276 OA
ATOM      7  N   UNL     1      -2.642   1.684  -1.829  0.00  0.00    -0.311 N 
ATOM     19  C   UNL     1      -2.892   2.643  -0.859  0.00  0.00    +0.213 C 
ATOM     34  H   UNL     1      -1.686   1.470  -2.098  0.00  0.00    +0.149 HD
BRANCH   7  22
ATOM     22  C   UNL     1      -3.700   0.932  -2.461  0.00  0.00    +0.139 C 
BRANCH  22  25
ATOM      1  F   UNL     1      -4.861  -3.820   0.327  0.00  0.00    -0.205 F 
ATOM     25  C   UNL     1      -4.010  -0.335  -1.717  0.00  0.00    -0.030 A 
ATOM     27  C   UNL     1      -3.337  -1.514  -2.038  0.00  0.00    +0.008 A 
ATOM     28  C   UNL     1      -4.971  -0.334  -0.706  0.00  0.00    +0.008 A 
ATOM     29  C   UNL     1      -3.624  -2.691  -1.348  0.00  0.00    +0.038 A 
ATOM     30  C   UNL     1      -5.258  -1.511  -0.016  0.00  0.00    +0.038 A 
ATOM     31  C   UNL     1      -4.585  -2.690  -0.337  0.00  0.00    +0.123 A 
ENDBRANCH  22  25
ENDBRANCH   7  22
ENDBRANCH  17  19
ENDBRANCH  16  17
ENDBRANCH  11  16
TORSDOF 8
