REMARK  Name = 7674707
REMARK  6 active torsions:
REMARK  status: ('A' for Active; 'I' for Inactive)
REMARK    1  A    between atoms: O_6  and  C_32
REMARK    2  A    between atoms: O_6  and  C_34
REMARK    3  A    between atoms: O_7  and  C_33
REMARK    4  A    between atoms: O_7  and  C_35
REMARK    5  A    between atoms: C_19  and  C_22
REMARK    6  A    between atoms: C_20  and  C_23
REMARK                            x       y       z     vdW  Elec       q    Type
REMARK                         _______ _______ _______ _____ _____    ______ ____
ROOT
ATOM      4  O   UNL     1       0.775   2.474   0.940  0.00  0.00    -0.267 OA
ATOM      5  O   UNL     1      -3.209  -0.099   2.829  0.00  0.00    -0.270 OA
ATOM      8  N   UNL     1      -3.934   0.888   0.836  0.00  0.00    -0.297 N 
ATOM      9  N   UNL     1      -1.259   2.228  -0.174  0.00  0.00    -0.311 N 
ATOM     10  C   UNL     1      -3.426   3.315   0.657  0.00  0.00    +0.027 C 
ATOM     11  C   UNL     1      -3.453   1.920  -1.371  0.00  0.00    +0.054 C 
ATOM     12  C   UNL     1      -3.837   3.288  -0.811  0.00  0.00    +0.018 C 
ATOM     13  C   UNL     1      -4.150   2.203   1.438  0.00  0.00    +0.113 C 
ATOM     14  C   UNL     1      -1.900   3.182   0.744  0.00  0.00    +0.130 C 
ATOM     15  C   UNL     1      -4.215   0.816  -0.608  0.00  0.00    +0.117 C 
ATOM     16  C   UNL     1      -1.961   1.680  -1.251  0.00  0.00    +0.027 A 
ATOM     17  C   UNL     1      -1.325   0.909  -2.148  0.00  0.00    +0.022 A 
ATOM     18  C   UNL     1       0.114   1.983   0.024  0.00  0.00    +0.259 A 
ATOM     19  C   UNL     1      -3.444  -0.157   1.623  0.00  0.00    +0.247 C 
ATOM     20  C   UNL     1       0.787   1.077  -0.971  0.00  0.00    +0.047 A 
ATOM     21  C   UNL     1       0.069   0.601  -2.000  0.00  0.00    +0.015 A 
ENDROOT
BRANCH  19  22
ATOM     22  C   UNL     1      -3.155  -1.437   0.968  0.00  0.00    +0.037 A 
ATOM     24  C   UNL     1      -1.888  -1.675   0.441  0.00  0.00    +0.016 A 
ATOM     25  C   UNL     1      -4.149  -2.409   0.876  0.00  0.00    +0.016 A 
ATOM     28  C   UNL     1      -1.613  -2.892  -0.181  0.00  0.00    +0.046 A 
ATOM     29  C   UNL     1      -3.873  -3.626   0.253  0.00  0.00    +0.046 A 
ATOM     32  C   UNL     1      -2.605  -3.868  -0.275  0.00  0.00    +0.120 A 
BRANCH  32   6
ATOM      6  O   UNL     1      -2.336  -5.056  -0.881  0.00  0.00    -0.495 OA
ATOM     34  C   UNL     1      -1.018  -5.238  -1.398  0.00  0.00    +0.277 C 
ENDBRANCH  32   6
ENDBRANCH  19  22
BRANCH  20  23
ATOM     23  C   UNL     1       2.202   0.698  -0.822  0.00  0.00    -0.012 A 
ATOM     26  C   UNL     1       3.199   1.471  -1.418  0.00  0.00    +0.012 A 
ATOM     27  C   UNL     1       2.547  -0.434  -0.083  0.00  0.00    +0.012 A 
ATOM     30  C   UNL     1       4.539   1.112  -1.277  0.00  0.00    +0.046 A 
ATOM     31  C   UNL     1       3.888  -0.793   0.059  0.00  0.00    +0.046 A 
ATOM     33  C   UNL     1       4.884  -0.020  -0.538  0.00  0.00    +0.130 A 
BRANCH  33   7
ATOM      7  O   UNL     1       6.191  -0.371  -0.401  0.00  0.00    -0.406 OA
BRANCH   7  35
ATOM      1  F   UNL     1       8.049  -0.105   0.854  0.00  0.00    -0.133 F 
ATOM      2  F   UNL     1       6.127   0.446   1.734  0.00  0.00    -0.133 F 
ATOM      3  F   UNL     1       6.643  -1.679   1.420  0.00  0.00    -0.133 F 
ATOM     35  C   UNL     1       6.738  -0.432   0.912  0.00  0.00    +0.575 C 
ENDBRANCH   7  35
ENDBRANCH  33   7
ENDBRANCH  20  23
TORSDOF 5
