REMARK  Name = 7662744
REMARK  6 active torsions:
REMARK  status: ('A' for Active; 'I' for Inactive)
REMARK    1  A    between atoms: N_5  and  C_20
REMARK    2  A    between atoms: N_5  and  C_25
REMARK    3  A    between atoms: N_5  and  C_26
REMARK    4  A    between atoms: C_14  and  C_19
REMARK    5  A    between atoms: C_16  and  C_20
REMARK    6  A    between atoms: C_23  and  C_28
REMARK                            x       y       z     vdW  Elec       q    Type
REMARK                         _______ _______ _______ _____ _____    ______ ____
ROOT
ATOM      1  O   UNL     1      -2.957   2.078   2.223  0.00  0.00    -0.268 OA
ATOM      2  O   UNL     1      -3.167  -2.483  -1.267  0.00  0.00    -0.274 OA
ATOM      3  N   UNL     1      -1.691  -0.741  -1.694  0.00  0.00    -0.299 N 
ATOM      4  N   UNL     1      -1.539   1.642   0.410  0.00  0.00    -0.311 N 
ATOM      7  C   UNL     1      -2.412   1.624  -2.000  0.00  0.00    +0.027 C 
ATOM      8  C   UNL     1      -0.048   1.124  -1.547  0.00  0.00    +0.054 C 
ATOM      9  C   UNL     1      -0.987   2.008  -2.366  0.00  0.00    +0.018 C 
ATOM     10  C   UNL     1      -2.676   0.142  -2.318  0.00  0.00    +0.113 C 
ATOM     11  C   UNL     1      -2.636   1.940  -0.521  0.00  0.00    +0.130 C 
ATOM     12  C   UNL     1      -0.290  -0.356  -1.910  0.00  0.00    +0.117 C 
ATOM     13  C   UNL     1      -0.240   1.338  -0.043  0.00  0.00    +0.034 A 
ATOM     14  C   UNL     1       0.777   1.218   0.850  0.00  0.00    +0.002 A 
ATOM     15  C   UNL     1      -1.845   1.799   1.774  0.00  0.00    +0.252 A 
ATOM     16  C   UNL     1      -2.117  -1.885  -1.019  0.00  0.00    +0.230 C 
ATOM     17  C   UNL     1       0.498   1.370   2.266  0.00  0.00    +0.015 A 
ATOM     18  C   UNL     1      -0.725   1.628   2.727  0.00  0.00    +0.071 A 
ENDROOT
BRANCH  14  19
ATOM     19  C   UNL     1       2.160   0.918   0.420  0.00  0.00    -0.015 A 
ATOM     21  C   UNL     1       2.578  -0.404   0.302  0.00  0.00    +0.027 A 
ATOM     22  C   UNL     1       3.036   1.962   0.139  0.00  0.00    +0.008 A 
ATOM     23  C   UNL     1       3.883  -0.685  -0.101  0.00  0.00    +0.052 A 
ATOM     24  C   UNL     1       4.342   1.682  -0.265  0.00  0.00    +0.002 A 
ATOM     27  C   UNL     1       4.765   0.358  -0.385  0.00  0.00    +0.019 A 
BRANCH  23  28
ATOM      6  N   UNL     1       4.670  -3.143  -0.324  0.00  0.00    -0.191 NA
ATOM     28  C   UNL     1       4.317  -2.041  -0.224  0.00  0.00    +0.099 C 
ENDBRANCH  23  28
ENDBRANCH  14  19
BRANCH  16  20
ATOM     20  C   UNL     1      -1.222  -2.392   0.083  0.00  0.00    +0.180 C 
BRANCH  20   5
ATOM      5  N   UNL     1      -2.091  -3.024   1.052  0.00  0.00    -0.300 NA
ATOM     25  C   UNL     1      -3.067  -2.067   1.587  0.00  0.00    +0.105 C 
ATOM     26  C   UNL     1      -1.315  -3.612   2.151  0.00  0.00    +0.105 C 
ENDBRANCH  20   5
ENDBRANCH  16  20
TORSDOF 4
