REMARK  Name = 25390434
REMARK  8 active torsions:
REMARK  status: ('A' for Active; 'I' for Inactive)
REMARK    1  A    between atoms: O_2  and  C_13
REMARK    2  A    between atoms: O_3  and  C_14
REMARK    3  A    between atoms: N_7  and  C_9
REMARK    4  A    between atoms: N_8  and  C_17
REMARK    5  A    between atoms: C_10  and  C_16
REMARK    6  A    between atoms: C_15  and  C_17
REMARK    7  A    between atoms: C_16  and  C_18
REMARK    8  A    between atoms: C_19  and  C_20
REMARK                            x       y       z     vdW  Elec       q    Type
REMARK                         _______ _______ _______ _____ _____    ______ ____
ROOT
ATOM      1  O   UNL     1       1.419   0.534   0.573  0.00  0.00    -0.366 OA
ATOM     10  C   UNL     1       2.566  -0.255   0.213  0.00  0.00    +0.158 C 
ATOM     13  C   UNL     1       3.433   0.648  -0.647  0.00  0.00    +0.175 C 
ATOM     14  C   UNL     1       3.207   1.996   0.006  0.00  0.00    +0.176 C 
ATOM     15  C   UNL     1       1.727   1.932   0.364  0.00  0.00    +0.167 C 
ENDROOT
BRANCH  13   2
ATOM      2  O   UNL     1       4.785   0.244  -0.644  0.00  0.00    -0.387 OA
ATOM     25  H   UNL     1       5.295   0.928  -1.112  0.00  0.00    +0.210 HD
ENDBRANCH  13   2
BRANCH  14   3
ATOM      3  O   UNL     1       3.953   2.090   1.219  0.00  0.00    -0.387 OA
ATOM     26  H   UNL     1       3.749   2.952   1.620  0.00  0.00    +0.210 HD
ENDBRANCH  14   3
BRANCH  10  16
ATOM     16  C   UNL     1       2.114  -1.516  -0.503  0.00  0.00    +0.130 C 
BRANCH  16  18
ATOM      4  O   UNL     1       1.189  -2.370   1.565  0.00  0.00    -0.276 OA
ATOM      7  N   UNL     1       0.297  -3.090  -0.454  0.00  0.00    -0.312 N 
ATOM     18  C   UNL     1       1.170  -2.355   0.337  0.00  0.00    +0.216 C 
ATOM     24  H   UNL     1       0.360  -3.034  -1.467  0.00  0.00    +0.149 HD
BRANCH   7   9
ATOM      9  C   UNL     1      -0.696  -3.964   0.101  0.00  0.00    +0.073 C 
ATOM     11  C   UNL     1      -2.030  -3.440   0.546  0.00  0.00    +0.024 C 
ATOM     12  C   UNL     1      -1.936  -4.319  -0.667  0.00  0.00    +0.024 C 
ENDBRANCH   7   9
ENDBRANCH  16  18
ENDBRANCH  10  16
BRANCH  15  17
ATOM     17  C   UNL     1       0.822   2.447  -0.746  0.00  0.00    +0.138 C 
BRANCH  17   8
ATOM      5  O   UNL     1      -0.946   0.227  -1.185  0.00  0.00    -0.267 OA
ATOM      8  N   UNL     1      -0.559   2.365  -0.369  0.00  0.00    -0.306 N 
ATOM     19  C   UNL     1      -1.345   1.244  -0.623  0.00  0.00    +0.279 C 
ATOM     27  H   UNL     1      -0.975   3.162   0.103  0.00  0.00    +0.149 HD
BRANCH  19  20
ATOM      6  O   UNL     1      -3.182   2.473   0.404  0.00  0.00    -0.458 OA
ATOM     20  C   UNL     1      -2.764   1.326  -0.193  0.00  0.00    +0.189 A 
ATOM     21  C   UNL     1      -3.799   0.424  -0.285  0.00  0.00    +0.054 A 
ATOM     22  C   UNL     1      -4.925   1.058   0.293  0.00  0.00    +0.042 A 
ATOM     23  C   UNL     1      -4.498   2.301   0.697  0.00  0.00    +0.196 A 
ENDBRANCH  19  20
ENDBRANCH  17   8
ENDBRANCH  15  17
TORSDOF 8
