REMARK  Name = 11882070
REMARK  10 active torsions:
REMARK  status: ('A' for Active; 'I' for Inactive)
REMARK    1  A    between atoms: S_2  and  C_35
REMARK    2  A    between atoms: S_2  and  C_38
REMARK    3  A    between atoms: N_8  and  C_14
REMARK    4  A    between atoms: N_9  and  C_20
REMARK    5  A    between atoms: N_10  and  C_27
REMARK    6  A    between atoms: C_15  and  C_18
REMARK    7  A    between atoms: C_19  and  C_22
REMARK    8  A    between atoms: C_20  and  C_23
REMARK    9  A    between atoms: C_20  and  C_24
REMARK   10  A    between atoms: C_23  and  C_26
REMARK                            x       y       z     vdW  Elec       q    Type
REMARK                         _______ _______ _______ _____ _____    ______ ____
ROOT
ATOM      4  O   UNL     1      -2.260  -1.629   1.336  0.00  0.00    -0.268 OA
ATOM      7  N   UNL     1      -1.232  -1.742  -0.751  0.00  0.00    -0.283 N 
ATOM     14  C   UNL     1       0.282  -0.329  -1.906  0.00  0.00    +0.105 C 
ATOM     15  C   UNL     1      -0.756  -0.363  -0.784  0.00  0.00    +0.182 C 
ATOM     16  C   UNL     1      -0.178  -1.441  -2.851  0.00  0.00    +0.043 C 
ATOM     17  C   UNL     1      -0.765  -2.492  -1.917  0.00  0.00    +0.111 C 
ATOM     19  C   UNL     1      -1.873  -2.270   0.362  0.00  0.00    +0.267 C 
ENDROOT
BRANCH  14   8
ATOM      5  O   UNL     1       2.228   1.609  -1.092  0.00  0.00    -0.252 OA
ATOM      8  N   UNL     1       1.607  -0.597  -1.399  0.00  0.00    -0.294 N 
ATOM     10  N   UNL     1       3.700  -0.144  -0.573  0.00  0.00    -0.269 N 
ATOM     21  C   UNL     1       2.500   0.413  -1.022  0.00  0.00    +0.304 C 
ATOM     39  H   UNL     1       1.883  -1.562  -1.248  0.00  0.00    +0.151 HD
ATOM     41  H   UNL     1       3.764  -1.159  -0.580  0.00  0.00    +0.156 HD
BRANCH  10  27
ATOM     27  C   UNL     1       4.850   0.534  -0.105  0.00  0.00    +0.036 A 
ATOM     30  C   UNL     1       5.969  -0.190   0.306  0.00  0.00    +0.038 A 
ATOM     32  C   UNL     1       4.865   1.928  -0.056  0.00  0.00    +0.023 A 
ATOM     35  C   UNL     1       7.103   0.480   0.767  0.00  0.00    +0.009 A 
ATOM     36  C   UNL     1       5.999   2.598   0.405  0.00  0.00    +0.003 A 
ATOM     37  C   UNL     1       7.117   1.874   0.816  0.00  0.00    +0.015 A 
BRANCH  35   2
ATOM      2  S   UNL     1       8.533  -0.445   1.291  0.00  0.00    -0.129 S 
ATOM     38  C   UNL     1       7.853  -1.440   2.648  0.00  0.00    +0.090 C 
ENDBRANCH  35   2
ENDBRANCH  10  27
ENDBRANCH  14   8
BRANCH  19  22
ATOM     11  N   UNL     1      -1.008  -4.505   0.310  0.00  0.00    -0.247 NA
ATOM     13  N   UNL     1      -3.595  -5.576   0.472  0.00  0.00    -0.259 NA
ATOM     22  C   UNL     1      -2.102  -3.721   0.378  0.00  0.00    +0.144 A 
ATOM     25  C   UNL     1      -3.372  -4.247   0.457  0.00  0.00    +0.143 A 
ATOM     29  C   UNL     1      -1.230  -5.835   0.325  0.00  0.00    +0.131 A 
ATOM     31  C   UNL     1      -2.501  -6.361   0.405  0.00  0.00    +0.130 A 
ENDBRANCH  19  22
BRANCH  15  18
ATOM      3  O   UNL     1      -2.869   0.075  -1.805  0.00  0.00    -0.274 OA
ATOM      9  N   UNL     1      -1.855   1.752  -0.549  0.00  0.00    -0.302 N 
ATOM     18  C   UNL     1      -1.948   0.488  -1.106  0.00  0.00    +0.236 C 
ATOM     40  H   UNL     1      -1.006   2.009  -0.054  0.00  0.00    +0.150 HD
BRANCH   9  20
ATOM     20  C   UNL     1      -2.864   2.771  -0.729  0.00  0.00    +0.163 C 
BRANCH  20  24
ATOM      6  O   UNL     1      -1.387   3.720  -2.409  0.00  0.00    -0.274 OA
ATOM     12  N   UNL     1      -3.657   3.859  -2.737  0.00  0.00    -0.328 N 
ATOM     24  C   UNL     1      -2.533   3.504  -2.020  0.00  0.00    +0.231 C 
ATOM     42  H   UNL     1      -3.576   4.341  -3.626  0.00  0.00    +0.145 HD
ATOM     43  H   UNL     1      -4.598   3.671  -2.405  0.00  0.00    +0.145 HD
ENDBRANCH  20  24
BRANCH  20  23
ATOM     23  C   UNL     1      -2.915   3.754   0.447  0.00  0.00    +0.074 C 
BRANCH  23  26
ATOM      1  S   UNL     1      -5.011   4.045   2.258  0.00  0.00    -0.102 S 
ATOM     26  C   UNL     1      -3.664   3.193   1.633  0.00  0.00    -0.008 A 
ATOM     28  C   UNL     1      -3.417   2.032   2.332  0.00  0.00    +0.011 A 
ATOM     33  C   UNL     1      -4.346   1.839   3.394  0.00  0.00    +0.008 A 
ATOM     34  C   UNL     1      -5.268   2.861   3.467  0.00  0.00    +0.045 A 
ENDBRANCH  23  26
ENDBRANCH  20  23
ENDBRANCH   9  20
ENDBRANCH  15  18
TORSDOF 9
