REMARK  Name = 51138118
REMARK  11 active torsions:
REMARK  status: ('A' for Active; 'I' for Inactive)
REMARK    1  A    between atoms: N_4  and  C_23
REMARK    2  A    between atoms: N_5  and  C_24
REMARK    3  A    between atoms: N_6  and  C_26
REMARK    4  A    between atoms: C_7  and  C_12
REMARK    5  A    between atoms: C_8  and  C_18
REMARK    6  A    between atoms: C_12  and  C_15
REMARK    7  A    between atoms: C_15  and  C_21
REMARK    8  A    between atoms: C_15  and  C_22
REMARK    9  A    between atoms: C_23  and  C_31
REMARK   10  A    between atoms: C_24  and  C_25
REMARK   11  A    between atoms: C_25  and  C_26
REMARK                            x       y       z     vdW  Elec       q    Type
REMARK                         _______ _______ _______ _____ _____    ______ ____
ROOT
ATOM      3  N   UNL     1       0.308  -0.257  -0.919  0.00  0.00    -0.299 NA
ATOM      4  N   UNL     1       4.978   1.131   0.410  0.00  0.00    -0.343 N 
ATOM      7  C   UNL     1       0.799  -1.316  -0.027  0.00  0.00    +0.085 C 
ATOM      8  C   UNL     1       0.333   1.081  -0.347  0.00  0.00    +0.145 C 
ATOM      9  C   UNL     1       2.275  -1.222   0.374  0.00  0.00    -0.021 A 
ATOM     10  C   UNL     1       3.089  -0.060   0.243  0.00  0.00    +0.008 A 
ATOM     11  C   UNL     1       1.584   1.849  -0.770  0.00  0.00    +0.065 C 
ATOM     13  C   UNL     1       2.854   1.276  -0.236  0.00  0.00    -0.020 A 
ATOM     14  C   UNL     1       4.424  -0.102   0.661  0.00  0.00    +0.050 A 
ATOM     16  C   UNL     1       4.043   1.968  -0.123  0.00  0.00    +0.090 A 
ATOM     17  C   UNL     1       2.881  -2.342   0.997  0.00  0.00    +0.006 A 
ATOM     19  C   UNL     1       5.016  -1.230   1.230  0.00  0.00    +0.026 A 
ATOM     20  C   UNL     1       4.214  -2.351   1.404  0.00  0.00    +0.002 A 
ATOM     33  H   UNL     1       0.792  -0.284  -1.816  0.00  0.00    +0.123 HD
ENDROOT
BRANCH   8  18
ATOM      1  O   UNL     1      -1.028   1.936  -2.110  0.00  0.00    -0.274 OA
ATOM      5  N   UNL     1      -1.743   2.189   0.091  0.00  0.00    -0.314 N 
ATOM     18  C   UNL     1      -0.876   1.769  -0.903  0.00  0.00    +0.230 C 
ATOM     34  H   UNL     1      -1.526   1.998   1.064  0.00  0.00    +0.149 HD
BRANCH   5  24
ATOM     24  C   UNL     1      -2.973   2.898  -0.181  0.00  0.00    +0.106 C 
BRANCH  24  25
ATOM     25  C   UNL     1      -4.161   1.959  -0.374  0.00  0.00    +0.038 C 
BRANCH  25  26
ATOM     26  C   UNL     1      -4.441   1.063   0.831  0.00  0.00    +0.109 C 
BRANCH  26   6
ATOM      2  O   UNL     1      -7.340   1.592   1.378  0.00  0.00    -0.276 OA
ATOM      6  N   UNL     1      -5.589   0.206   0.631  0.00  0.00    -0.301 N 
ATOM     27  C   UNL     1      -5.470  -1.081  -0.012  0.00  0.00    +0.108 C 
ATOM     28  C   UNL     1      -6.790  -1.752   0.312  0.00  0.00    +0.028 C 
ATOM     29  C   UNL     1      -7.773  -0.592   0.419  0.00  0.00    +0.097 C 
ATOM     30  C   UNL     1      -6.912   0.553   0.897  0.00  0.00    +0.216 C 
ENDBRANCH  26   6
ENDBRANCH  25  26
ENDBRANCH  24  25
ENDBRANCH   5  24
ENDBRANCH   8  18
BRANCH   7  12
ATOM     12  C   UNL     1       0.469  -2.628  -0.761  0.00  0.00    +0.026 C 
BRANCH  12  15
ATOM     15  C   UNL     1      -1.012  -3.008  -0.670  0.00  0.00    -0.015 C 
ATOM     21  C   UNL     1      -1.931  -1.946  -1.276  0.00  0.00    +0.007 C 
ATOM     22  C   UNL     1      -1.233  -4.348  -1.377  0.00  0.00    +0.007 C 
ENDBRANCH  12  15
ENDBRANCH   7  12
BRANCH   4  23
ATOM     23  C   UNL     1       6.348   1.510   0.684  0.00  0.00    +0.148 C 
BRANCH  23  31
ATOM     31  C   UNL     1       7.300   1.020  -0.366  0.00  0.00    -0.013 C 
ATOM     32  C   UNL     1       8.354   0.237  -0.111  0.00  0.00    +0.005 C 
ENDBRANCH  23  31
ENDBRANCH   4  23
TORSDOF 9
