REMARK  Name = 11883287
REMARK  8 active torsions:
REMARK  status: ('A' for Active; 'I' for Inactive)
REMARK    1  A    between atoms: S_1  and  N_9
REMARK    2  A    between atoms: S_1  and  C_19
REMARK    3  A    between atoms: O_4  and  C_15
REMARK    4  A    between atoms: O_4  and  C_18
REMARK    5  A    between atoms: N_9  and  C_14
REMARK    6  A    between atoms: N_11  and  C_25
REMARK    7  A    between atoms: C_18  and  C_20
REMARK    8  A    between atoms: C_26  and  C_27
REMARK                            x       y       z     vdW  Elec       q    Type
REMARK                         _______ _______ _______ _____ _____    ______ ____
ROOT
ATOM      9  N   UNL     1      -0.263  -2.187   0.117  0.00  0.00    -0.182 NA
ATOM     28  H   UNL     1      -0.823  -2.298   0.971  0.00  0.00    +0.148 HD
ENDROOT
BRANCH   9  14
ATOM      2  O   UNL     1      -2.986  -0.912  -0.744  0.00  0.00    -0.370 OA
ATOM      3  O   UNL     1      -0.877   1.325  -0.831  0.00  0.00    -0.370 OA
ATOM     12  C   UNL     1      -0.995   0.147  -0.005  0.00  0.00    +0.170 C 
ATOM     13  C   UNL     1      -2.472  -0.044   0.279  0.00  0.00    +0.179 C 
ATOM     14  C   UNL     1      -0.616  -1.078  -0.800  0.00  0.00    +0.133 C 
ATOM     15  C   UNL     1      -3.016   1.359   0.148  0.00  0.00    +0.176 C 
ATOM     16  C   UNL     1      -1.899  -1.411  -1.538  0.00  0.00    +0.183 C 
ATOM     17  C   UNL     1      -2.173   1.923  -0.974  0.00  0.00    +0.194 C 
BRANCH  15   4
ATOM      4  O   UNL     1      -4.393   1.403  -0.149  0.00  0.00    -0.362 OA
BRANCH   4  18
ATOM     18  C   UNL     1      -5.184   0.871   0.911  0.00  0.00    +0.255 C 
BRANCH  18  20
ATOM      7  O   UNL     1      -7.052   1.405  -0.527  0.00  0.00    -0.274 OA
ATOM     10  N   UNL     1      -7.466   0.439   1.520  0.00  0.00    -0.327 N 
ATOM     20  C   UNL     1      -6.646   0.945   0.536  0.00  0.00    +0.236 C 
ATOM     29  H   UNL     1      -7.103   0.065   2.390  0.00  0.00    +0.145 HD
ATOM     30  H   UNL     1      -8.474   0.425   1.403  0.00  0.00    +0.145 HD
ENDBRANCH  18  20
ENDBRANCH   4  18
ENDBRANCH  15   4
ENDBRANCH   9  14
BRANCH   9   1
ATOM      1  S   UNL     1       1.238  -2.965  -0.038  0.00  0.00    +0.059 S 
ATOM      5  O   UNL     1       1.402  -3.432  -1.402  0.00  0.00    -0.153 OA
ATOM      6  O   UNL     1       1.405  -3.883   1.073  0.00  0.00    -0.153 OA
BRANCH   1  19
ATOM     19  C   UNL     1       2.369  -1.631   0.221  0.00  0.00    +0.105 A 
ATOM     21  C   UNL     1       2.799  -0.889  -0.865  0.00  0.00    +0.030 A 
ATOM     22  C   UNL     1       2.802  -1.354   1.506  0.00  0.00    +0.030 A 
ATOM     23  C   UNL     1       3.691   0.163  -0.660  0.00  0.00    +0.025 A 
ATOM     24  C   UNL     1       3.694  -0.301   1.711  0.00  0.00    +0.025 A 
ATOM     25  C   UNL     1       4.139   0.457   0.628  0.00  0.00    +0.033 A 
BRANCH  25  11
ATOM      8  O   UNL     1       5.381   2.376  -1.332  0.00  0.00    -0.276 OA
ATOM     11  N   UNL     1       5.030   1.511   0.833  0.00  0.00    -0.286 N 
ATOM     26  C   UNL     1       5.581   2.376  -0.122  0.00  0.00    +0.214 C 
ATOM     27  C   UNL     1       6.506   3.387   0.507  0.00  0.00    +0.109 C 
ATOM     31  H   UNL     1       5.309   1.661   1.800  0.00  0.00    +0.155 HD
ENDBRANCH  25  11
ENDBRANCH   1  19
ENDBRANCH   9   1
TORSDOF 7
