REMARK  Name = 11912794
REMARK  12 active torsions:
REMARK  status: ('A' for Active; 'I' for Inactive)
REMARK    1  A    between atoms: O_4  and  C_24
REMARK    2  A    between atoms: O_6  and  C_33
REMARK    3  A    between atoms: O_6  and  C_34
REMARK    4  A    between atoms: N_7  and  C_13
REMARK    5  A    between atoms: N_8  and  C_14
REMARK    6  A    between atoms: C_17  and  C_18
REMARK    7  A    between atoms: C_18  and  C_19
REMARK    8  A    between atoms: C_19  and  C_21
REMARK    9  A    between atoms: C_19  and  C_22
REMARK   10  A    between atoms: C_19  and  C_23
REMARK   11  A    between atoms: C_21  and  C_24
REMARK   12  A    between atoms: C_25  and  C_28
REMARK                            x       y       z     vdW  Elec       q    Type
REMARK                         _______ _______ _______ _____ _____    ______ ____
ROOT
ATOM      1  O   UNL     1      -0.006   0.747   2.365  0.00  0.00    -0.370 OA
ATOM      2  O   UNL     1      -1.561   3.236   1.303  0.00  0.00    -0.370 OA
ATOM     11  C   UNL     1      -1.635   1.831   1.011  0.00  0.00    +0.171 C 
ATOM     12  C   UNL     1      -0.220   1.287   1.050  0.00  0.00    +0.171 C 
ATOM     13  C   UNL     1      -2.342   1.097   2.128  0.00  0.00    +0.130 C 
ATOM     14  C   UNL     1       0.649   2.503   0.835  0.00  0.00    +0.130 C 
ATOM     15  C   UNL     1      -1.220   0.863   3.123  0.00  0.00    +0.185 C 
ATOM     16  C   UNL     1      -0.185   3.619   1.437  0.00  0.00    +0.185 C 
ENDROOT
BRANCH  14   8
ATOM      8  N   UNL     1       0.842   2.730  -0.581  0.00  0.00    -0.306 N 
ATOM      9  N   UNL     1       2.628   1.250  -0.672  0.00  0.00    -0.214 NA
ATOM     10  N   UNL     1       1.874   2.422  -2.638  0.00  0.00    -0.223 NA
ATOM     20  C   UNL     1       1.824   2.107  -1.329  0.00  0.00    +0.216 A 
ATOM     25  C   UNL     1       3.575   0.660  -1.431  0.00  0.00    +0.076 A 
ATOM     26  C   UNL     1       2.844   1.797  -3.337  0.00  0.00    +0.116 A 
ATOM     27  C   UNL     1       3.731   0.897  -2.782  0.00  0.00    +0.048 A 
ATOM     36  H   UNL     1       0.200   3.336  -1.080  0.00  0.00    +0.149 HD
BRANCH  25  28
ATOM     28  C   UNL     1       4.438  -0.260  -0.731  0.00  0.00    +0.001 A 
ATOM     29  C   UNL     1       5.814  -0.032  -0.692  0.00  0.00    +0.013 A 
ATOM     30  C   UNL     1       3.898  -1.377  -0.093  0.00  0.00    +0.013 A 
ATOM     31  C   UNL     1       6.649  -0.921  -0.017  0.00  0.00    +0.046 A 
ATOM     32  C   UNL     1       4.734  -2.266   0.583  0.00  0.00    +0.046 A 
ATOM     33  C   UNL     1       6.109  -2.038   0.621  0.00  0.00    +0.120 A 
BRANCH  33   6
ATOM      6  O   UNL     1       6.925  -2.904   1.282  0.00  0.00    -0.495 OA
ATOM     34  C   UNL     1       6.307  -4.025   1.912  0.00  0.00    +0.277 C 
ENDBRANCH  33   6
ENDBRANCH  25  28
ENDBRANCH  14   8
BRANCH  13   7
ATOM      3  O   UNL     1      -5.034   0.643   1.218  0.00  0.00    -0.276 OA
ATOM      7  N   UNL     1      -2.898  -0.150   1.663  0.00  0.00    -0.308 N 
ATOM     17  C   UNL     1      -4.212  -0.272   1.243  0.00  0.00    +0.214 C 
ATOM     35  H   UNL     1      -2.280  -0.954   1.596  0.00  0.00    +0.149 HD
BRANCH  17  18
ATOM     18  C   UNL     1      -4.568  -1.680   0.795  0.00  0.00    +0.102 C 
BRANCH  18  19
ATOM     19  C   UNL     1      -4.405  -1.940  -0.724  0.00  0.00    -0.017 C 
ATOM     22  C   UNL     1      -4.734  -3.425  -0.990  0.00  0.00    +0.012 C 
ATOM     23  C   UNL     1      -2.941  -1.708  -1.156  0.00  0.00    +0.012 C 
BRANCH  19  21
ATOM     21  C   UNL     1      -5.308  -1.031  -1.591  0.00  0.00    +0.127 C 
BRANCH  21  24
ATOM      5  O   UNL     1      -7.360  -0.497  -0.420  0.00  0.00    -0.251 OA
ATOM     24  C   UNL     1      -6.788  -1.137  -1.293  0.00  0.00    +0.305 C 
BRANCH  24   4
ATOM      4  O   UNL     1      -7.424  -2.028  -2.094  0.00  0.00    -0.481 OA
ATOM     37  H   UNL     1      -8.381  -2.089  -1.885  0.00  0.00    +0.295 HD
ENDBRANCH  24   4
ENDBRANCH  21  24
ENDBRANCH  19  21
ENDBRANCH  18  19
ENDBRANCH  17  18
ENDBRANCH  13   7
TORSDOF 9
