REMARK  Name = 28962821
REMARK  8 active torsions:
REMARK  status: ('A' for Active; 'I' for Inactive)
REMARK    1  A    between atoms: O_2  and  C_10
REMARK    2  A    between atoms: N_5  and  C_14
REMARK    3  A    between atoms: C_7  and  C_17
REMARK    4  A    between atoms: C_9  and  C_19
REMARK    5  A    between atoms: C_12  and  C_18
REMARK    6  A    between atoms: C_18  and  C_20
REMARK    7  A    between atoms: C_18  and  C_21
REMARK    8  A    between atoms: C_22  and  C_27
REMARK                            x       y       z     vdW  Elec       q    Type
REMARK                         _______ _______ _______ _____ _____    ______ ____
ROOT
ATOM      7  C   UNL     1       0.660   1.888   0.065  0.00  0.00    -0.027 C 
ATOM      8  C   UNL     1       0.552   0.329  -0.029  0.00  0.00    +0.028 C 
ATOM      9  C   UNL     1      -0.901  -0.153   0.322  0.00  0.00    +0.012 C 
ATOM     10  C   UNL     1       1.697  -0.364   0.764  0.00  0.00    +0.122 C 
ATOM     11  C   UNL     1       2.067   2.337  -0.396  0.00  0.00    +0.007 C 
ATOM     12  C   UNL     1       3.096   0.164   0.372  0.00  0.00    +0.029 C 
ATOM     13  C   UNL     1      -0.374   2.524  -0.893  0.00  0.00    +0.009 C 
ATOM     14  C   UNL     1      -1.939   0.550  -0.597  0.00  0.00    +0.076 C 
ATOM     15  C   UNL     1       3.189   1.690   0.405  0.00  0.00    +0.007 C 
ATOM     16  C   UNL     1      -1.801   2.072  -0.617  0.00  0.00    +0.023 C 
ATOM     17  C   UNL     1       0.415   2.414   1.502  0.00  0.00    +0.011 C 
ATOM     19  C   UNL     1      -1.086  -1.677   0.221  0.00  0.00    +0.010 C 
ENDROOT
BRANCH  14   5
ATOM      4  O   UNL     1      -4.196   0.331  -2.359  0.00  0.00    -0.270 OA
ATOM      5  N   UNL     1      -3.298   0.217  -0.224  0.00  0.00    -0.308 N 
ATOM     22  C   UNL     1      -4.322   0.136  -1.153  0.00  0.00    +0.244 C 
ATOM     33  H   UNL     1      -3.498   0.157   0.768  0.00  0.00    +0.149 HD
BRANCH  22  27
ATOM      1  F   UNL     1      -7.146  -1.929   2.225  0.00  0.00    -0.205 F 
ATOM     27  C   UNL     1      -5.664  -0.190  -0.606  0.00  0.00    +0.039 A 
ATOM     28  C   UNL     1      -5.777  -0.921   0.576  0.00  0.00    +0.051 A 
ATOM     29  C   UNL     1      -6.812   0.235  -1.276  0.00  0.00    +0.013 A 
ATOM     30  C   UNL     1      -7.038  -1.227   1.089  0.00  0.00    +0.124 A 
ATOM     31  C   UNL     1      -8.072  -0.071  -0.763  0.00  0.00    +0.004 A 
ATOM     32  C   UNL     1      -8.185  -0.802   0.420  0.00  0.00    +0.038 A 
ENDBRANCH  22  27
ENDBRANCH  14   5
BRANCH  10   2
ATOM      2  O   UNL     1       1.694  -1.764   0.479  0.00  0.00    -0.391 OA
ATOM     34  H   UNL     1       1.834  -1.878  -0.476  0.00  0.00    +0.210 HD
ENDBRANCH  10   2
BRANCH  12  18
ATOM     18  C   UNL     1       4.198  -0.435   1.255  0.00  0.00    +0.078 C 
ATOM     20  C   UNL     1       3.992  -0.068   2.713  0.00  0.00    +0.017 C 
BRANCH  18  21
ATOM      3  O   UNL     1       6.022   1.097   1.265  0.00  0.00    -0.275 OA
ATOM      6  N   UNL     1       6.130  -0.662  -0.229  0.00  0.00    -0.301 N 
ATOM     21  C   UNL     1       5.532   0.078   0.775  0.00  0.00    +0.219 C 
ATOM     23  C   UNL     1       7.416  -0.295  -0.804  0.00  0.00    +0.108 C 
ATOM     24  C   UNL     1       5.607  -1.876  -0.848  0.00  0.00    +0.108 C 
ATOM     25  C   UNL     1       7.838  -1.519  -1.603  0.00  0.00    +0.020 C 
ATOM     26  C   UNL     1       6.506  -2.105  -2.054  0.00  0.00    +0.020 C 
ENDBRANCH  18  21
ENDBRANCH  12  18
TORSDOF 5
