REMARK  Name = 9424513
REMARK  2 active torsions:
REMARK  status: ('A' for Active; 'I' for Inactive)
REMARK    1  A    between atoms: C_14  and  C_19
REMARK    2  A    between atoms: C_16  and  C_20
REMARK                            x       y       z     vdW  Elec       q    Type
REMARK                         _______ _______ _______ _____ _____    ______ ____
ROOT
ATOM      3  O   UNL     1       1.602   3.016  -2.444  0.00  0.00    -0.268 OA
ATOM      4  O   UNL     1       3.973  -0.693   0.081  0.00  0.00    -0.269 OA
ATOM      5  N   UNL     1       0.723   2.014  -0.518  0.00  0.00    -0.311 N 
ATOM      6  N   UNL     1       2.090  -0.133   1.349  0.00  0.00    -0.296 N 
ATOM      7  C   UNL     1       1.842   2.299   1.773  0.00  0.00    +0.027 C 
ATOM      8  C   UNL     1      -0.165   0.894   1.549  0.00  0.00    +0.054 C 
ATOM      9  C   UNL     1       0.443   2.063   2.323  0.00  0.00    +0.018 C 
ATOM     10  C   UNL     1       1.723   2.711   0.304  0.00  0.00    +0.130 C 
ATOM     11  C   UNL     1       2.713   1.044   1.951  0.00  0.00    +0.113 C 
ATOM     12  C   UNL     1       0.698  -0.369   1.760  0.00  0.00    +0.117 C 
ATOM     13  C   UNL     1      -0.279   1.205   0.055  0.00  0.00    +0.034 A 
ATOM     14  C   UNL     1      -1.275   0.708  -0.723  0.00  0.00    +0.005 A 
ATOM     15  C   UNL     1       0.760   2.306  -1.893  0.00  0.00    +0.252 A 
ATOM     16  C   UNL     1       2.808  -0.893   0.422  0.00  0.00    +0.253 C 
ATOM     17  C   UNL     1      -1.267   0.984  -2.147  0.00  0.00    +0.015 A 
ATOM     18  C   UNL     1      -0.315   1.718  -2.724  0.00  0.00    +0.071 A 
ENDROOT
BRANCH  14  19
ATOM      2  F   UNL     1      -3.700   1.801   0.228  0.00  0.00    -0.205 F 
ATOM     19  C   UNL     1      -2.361  -0.126  -0.161  0.00  0.00    +0.019 A 
ATOM     21  C   UNL     1      -3.534   0.471   0.292  0.00  0.00    +0.131 A 
ATOM     22  C   UNL     1      -2.199  -1.506  -0.089  0.00  0.00    +0.011 A 
ATOM     24  C   UNL     1      -4.554  -0.319   0.821  0.00  0.00    +0.039 A 
ATOM     25  C   UNL     1      -3.219  -2.297   0.441  0.00  0.00    +0.001 A 
ATOM     27  C   UNL     1      -4.396  -1.703   0.896  0.00  0.00    +0.003 A 
ENDBRANCH  14  19
BRANCH  16  20
ATOM      1  S   UNL     1       2.203  -3.563   0.507  0.00  0.00    -0.092 S 
ATOM     20  C   UNL     1       2.128  -2.021  -0.226  0.00  0.00    +0.074 A 
ATOM     23  C   UNL     1       1.403  -2.029  -1.392  0.00  0.00    +0.021 A 
ATOM     26  C   UNL     1       0.897  -3.327  -1.693  0.00  0.00    +0.008 A 
ATOM     28  C   UNL     1       1.258  -4.256  -0.742  0.00  0.00    +0.046 A 
ENDBRANCH  16  20
TORSDOF 2
