REMARK  Name = 75536073
REMARK  6 active torsions:
REMARK  status: ('A' for Active; 'I' for Inactive)
REMARK    1  A    between atoms: O_1  and  C_8
REMARK    2  A    between atoms: O_2  and  C_10
REMARK    3  A    between atoms: N_4  and  C_7
REMARK    4  A    between atoms: C_6  and  C_11
REMARK    5  A    between atoms: C_14  and  C_15
REMARK    6  A    between atoms: C_18  and  C_21
REMARK                            x       y       z     vdW  Elec       q    Type
REMARK                         _______ _______ _______ _____ _____    ______ ____
ROOT
ATOM      6  C   UNL     1       1.764   0.411   0.988  0.00  0.00    +0.046 C 
ATOM      7  C   UNL     1       0.936   1.273   0.008  0.00  0.00    +0.112 C 
ATOM      8  C   UNL     1       1.373   2.701   0.333  0.00  0.00    +0.164 C 
ATOM      9  C   UNL     1       2.997   1.271   1.369  0.00  0.00    +0.044 C 
ATOM     10  C   UNL     1       2.874   2.560   0.559  0.00  0.00    +0.145 C 
ENDROOT
BRANCH   6  11
ATOM      5  N   UNL     1       3.175  -2.280  -1.283  0.00  0.00    -0.263 NA
ATOM     11  C   UNL     1       2.104  -0.956   0.433  0.00  0.00    -0.024 A 
ATOM     12  C   UNL     1       1.688  -2.115   1.078  0.00  0.00    +0.007 A 
ATOM     13  C   UNL     1       2.839  -1.091  -0.734  0.00  0.00    +0.114 A 
ATOM     16  C   UNL     1       2.015  -3.357   0.544  0.00  0.00    +0.020 A 
ATOM     17  C   UNL     1       2.753  -3.385  -0.627  0.00  0.00    +0.111 A 
ENDBRANCH   6  11
BRANCH   7   4
ATOM      3  O   UNL     1      -0.750  -0.572  -1.406  0.00  0.00    -0.270 OA
ATOM      4  N   UNL     1      -0.481   1.089   0.191  0.00  0.00    -0.305 N 
ATOM     14  C   UNL     1      -1.216   0.168  -0.543  0.00  0.00    +0.245 C 
ATOM     24  H   UNL     1      -0.948   1.627   0.916  0.00  0.00    +0.149 HD
BRANCH  14  15
ATOM     15  C   UNL     1      -2.672   0.118  -0.254  0.00  0.00    +0.040 A 
ATOM     18  C   UNL     1      -3.277  -1.052   0.207  0.00  0.00    -0.038 A 
ATOM     19  C   UNL     1      -3.437   1.267  -0.451  0.00  0.00    +0.013 A 
ATOM     20  C   UNL     1      -4.646  -1.072   0.471  0.00  0.00    +0.004 A 
ATOM     21  C   UNL     1      -2.481  -2.297   0.427  0.00  0.00    +0.044 C 
ATOM     22  C   UNL     1      -4.807   1.247  -0.187  0.00  0.00    +0.001 A 
ATOM     23  C   UNL     1      -5.411   0.078   0.274  0.00  0.00    +0.000 A 
ENDBRANCH  14  15
ENDBRANCH   7   4
BRANCH   8   1
ATOM      1  O   UNL     1       1.097   3.600  -0.724  0.00  0.00    -0.387 OA
ATOM     25  H   UNL     1       1.485   4.459  -0.484  0.00  0.00    +0.210 HD
ENDBRANCH   8   1
BRANCH  10   2
ATOM      2  O   UNL     1       3.562   2.391  -0.676  0.00  0.00    -0.389 OA
ATOM     26  H   UNL     1       4.505   2.268  -0.470  0.00  0.00    +0.210 HD
ENDBRANCH  10   2
TORSDOF 5
