REMARK  Name = 11887632
REMARK  3 active torsions:
REMARK  status: ('A' for Active; 'I' for Inactive)
REMARK    1  A    between atoms: N_7  and  C_15
REMARK    2  A    between atoms: C_13  and  C_16
REMARK    3  A    between atoms: C_23  and  C_27
REMARK                            x       y       z     vdW  Elec       q    Type
REMARK                         _______ _______ _______ _____ _____    ______ ____
ROOT
ATOM      2  O   UNL     1      -2.034   0.945  -0.390  0.00  0.00    -0.273 OA
ATOM      3  O   UNL     1       0.340   0.321  -2.338  0.00  0.00    -0.270 OA
ATOM      4  O   UNL     1      -5.272  -2.406   0.255  0.00  0.00    -0.252 OA
ATOM      5  N   UNL     1      -0.111  -0.955  -0.443  0.00  0.00    -0.284 N 
ATOM      6  N   UNL     1      -3.077  -2.930   0.148  0.00  0.00    -0.293 N 
ATOM      7  N   UNL     1      -3.726  -0.655  -0.054  0.00  0.00    -0.193 N 
ATOM      8  C   UNL     1      -1.690  -2.610  -0.009  0.00  0.00    +0.105 C 
ATOM      9  C   UNL     1      -1.470  -1.347  -0.813  0.00  0.00    +0.183 C 
ATOM     10  C   UNL     1      -0.950  -2.326   1.298  0.00  0.00    +0.043 C 
ATOM     11  C   UNL     1       0.294  -1.589   0.816  0.00  0.00    +0.111 C 
ATOM     12  C   UNL     1      -2.419  -0.227  -0.397  0.00  0.00    +0.250 C 
ATOM     13  C   UNL     1       0.697  -0.203  -1.285  0.00  0.00    +0.247 C 
ATOM     14  C   UNL     1      -4.108  -2.010   0.142  0.00  0.00    +0.313 C 
ATOM     33  H   UNL     1      -3.323  -3.905   0.293  0.00  0.00    +0.151 HD
ENDROOT
BRANCH   7  15
ATOM      1  F   UNL     1      -7.627   3.255   0.630  0.00  0.00    -0.205 F 
ATOM     15  C   UNL     1      -4.743   0.363   0.123  0.00  0.00    +0.046 A 
ATOM     19  C   UNL     1      -4.660   1.546  -0.598  0.00  0.00    +0.027 A 
ATOM     20  C   UNL     1      -5.786   0.141   1.013  0.00  0.00    +0.027 A 
ATOM     24  C   UNL     1      -5.637   2.526  -0.426  0.00  0.00    +0.040 A 
ATOM     25  C   UNL     1      -6.763   1.121   1.185  0.00  0.00    +0.040 A 
ATOM     26  C   UNL     1      -6.689   2.313   0.465  0.00  0.00    +0.124 A 
ENDBRANCH   7  15
BRANCH  13  16
ATOM     16  C   UNL     1       2.101  -0.027  -0.889  0.00  0.00    +0.037 A 
ATOM     17  C   UNL     1       3.059  -0.946  -1.310  0.00  0.00    +0.013 A 
ATOM     18  C   UNL     1       2.465   1.057  -0.095  0.00  0.00    +0.013 A 
ATOM     21  C   UNL     1       4.392  -0.778  -0.933  0.00  0.00    +0.009 A 
ATOM     22  C   UNL     1       3.797   1.224   0.281  0.00  0.00    +0.009 A 
ATOM     23  C   UNL     1       4.761   0.307  -0.138  0.00  0.00    -0.018 A 
BRANCH  23  27
ATOM     27  C   UNL     1       6.143   0.481   0.251  0.00  0.00    -0.018 A 
ATOM     28  C   UNL     1       6.613  -0.096   1.431  0.00  0.00    +0.008 A 
ATOM     29  C   UNL     1       7.006   1.225  -0.553  0.00  0.00    +0.008 A 
ATOM     30  C   UNL     1       7.946   0.072   1.807  0.00  0.00    +0.001 A 
ATOM     31  C   UNL     1       8.339   1.393  -0.178  0.00  0.00    +0.001 A 
ATOM     32  C   UNL     1       8.809   0.816   1.002  0.00  0.00    +0.000 A 
ENDBRANCH  23  27
ENDBRANCH  13  16
TORSDOF 3
