REMARK  Name = 38028562
REMARK  13 active torsions:
REMARK  status: ('A' for Active; 'I' for Inactive)
REMARK    1  A    between atoms: O_3  and  C_22
REMARK    2  A    between atoms: O_3  and  C_26
REMARK    3  A    between atoms: N_4  and  C_14
REMARK    4  A    between atoms: N_5  and  C_21
REMARK    5  A    between atoms: C_7  and  C_11
REMARK    6  A    between atoms: C_8  and  C_14
REMARK    7  A    between atoms: C_10  and  C_15
REMARK    8  A    between atoms: C_11  and  C_16
REMARK    9  A    between atoms: C_11  and  C_17
REMARK   10  A    between atoms: C_12  and  C_18
REMARK   11  A    between atoms: C_15  and  C_19
REMARK   12  A    between atoms: C_20  and  C_22
REMARK   13  A    between atoms: C_21  and  C_23
REMARK                            x       y       z     vdW  Elec       q    Type
REMARK                         _______ _______ _______ _____ _____    ______ ____
ROOT
ATOM      7  C   UNL     1      -2.501   0.621  -0.642  0.00  0.00    +0.000 C 
ATOM      8  C   UNL     1      -3.015   2.083  -0.651  0.00  0.00    +0.032 C 
ATOM      9  C   UNL     1      -3.040  -0.129   0.586  0.00  0.00    +0.012 C 
ATOM     10  C   UNL     1      -2.623   0.543   1.908  0.00  0.00    +0.023 C 
ATOM     12  C   UNL     1      -2.852   2.040   1.876  0.00  0.00    -0.073 C 
ATOM     13  C   UNL     1      -3.038   2.709   0.724  0.00  0.00    -0.022 C 
ATOM     18  C   UNL     1      -2.907   2.746   3.202  0.00  0.00    +0.039 C 
ENDROOT
BRANCH   7  11
ATOM     11  C   UNL     1      -2.894  -0.127  -1.920  0.00  0.00    -0.013 C 
ATOM     16  C   UNL     1      -1.931  -1.282  -2.177  0.00  0.00    +0.007 C 
ATOM     17  C   UNL     1      -4.330  -0.632  -1.821  0.00  0.00    +0.007 C 
ENDBRANCH   7  11
BRANCH   8  14
ATOM     14  C   UNL     1      -2.181   2.956  -1.595  0.00  0.00    +0.112 C 
BRANCH  14   4
ATOM      2  O   UNL     1       0.239   2.151  -2.960  0.00  0.00    -0.272 OA
ATOM      4  N   UNL     1      -0.839   3.082  -1.119  0.00  0.00    -0.312 N 
ATOM     20  C   UNL     1       0.276   2.665  -1.846  0.00  0.00    +0.251 C 
ATOM     34  H   UNL     1      -0.693   3.559  -0.235  0.00  0.00    +0.149 HD
BRANCH  20  22
ATOM     22  C   UNL     1       1.570   2.919  -1.103  0.00  0.00    +0.324 C 
BRANCH  22   3
ATOM      3  O   UNL     1       2.547   1.965  -1.464  0.00  0.00    -0.483 OA
BRANCH   3  26
ATOM     26  C   UNL     1       3.486   1.638  -0.514  0.00  0.00    +0.121 A 
ATOM     28  C   UNL     1       3.873   2.582   0.437  0.00  0.00    +0.045 A 
ATOM     29  C   UNL     1       4.051   0.363  -0.502  0.00  0.00    +0.045 A 
ATOM     31  C   UNL     1       4.826   2.250   1.401  0.00  0.00    +0.004 A 
ATOM     32  C   UNL     1       5.003   0.032   0.461  0.00  0.00    +0.004 A 
ATOM     33  C   UNL     1       5.391   0.975   1.413  0.00  0.00    +0.000 A 
ENDBRANCH   3  26
ENDBRANCH  22   3
ENDBRANCH  20  22
ENDBRANCH  14   4
ENDBRANCH   8  14
BRANCH  10  15
ATOM     15  C   UNL     1      -1.166   0.218   2.257  0.00  0.00    +0.103 C 
BRANCH  15  19
ATOM      1  O   UNL     1      -1.751  -2.107   2.581  0.00  0.00    -0.276 OA
ATOM      5  N   UNL     1       0.404  -1.551   1.911  0.00  0.00    -0.311 N 
ATOM     19  C   UNL     1      -0.904  -1.271   2.277  0.00  0.00    +0.214 C 
ATOM     35  H   UNL     1       1.032  -0.789   1.671  0.00  0.00    +0.149 HD
BRANCH   5  21
ATOM     21  C   UNL     1       0.934  -2.894   1.844  0.00  0.00    +0.141 C 
BRANCH  21  23
ATOM      6  N   UNL     1      -0.182  -5.275  -0.874  0.00  0.00    -0.263 NA
ATOM     23  C   UNL     1       0.748  -3.504   0.485  0.00  0.00    -0.012 A 
ATOM     24  C   UNL     1       1.301  -2.916  -0.647  0.00  0.00    +0.008 A 
ATOM     25  C   UNL     1       0.022  -4.673   0.319  0.00  0.00    +0.115 A 
ATOM     27  C   UNL     1       1.113  -3.505  -1.893  0.00  0.00    +0.020 A 
ATOM     30  C   UNL     1       0.371  -4.674  -1.952  0.00  0.00    +0.111 A 
ENDBRANCH  21  23
ENDBRANCH   5  21
ENDBRANCH  15  19
ENDBRANCH  10  15
TORSDOF 10
