REMARK  Name = 44716382
REMARK  8 active torsions:
REMARK  status: ('A' for Active; 'I' for Inactive)
REMARK    1  A    between atoms: N_4  and  C_14
REMARK    2  A    between atoms: N_6  and  C_21
REMARK    3  A    between atoms: N_7  and  C_34
REMARK    4  A    between atoms: N_7  and  C_35
REMARK    5  A    between atoms: N_7  and  C_36
REMARK    6  A    between atoms: C_9  and  C_14
REMARK    7  A    between atoms: C_11  and  C_21
REMARK    8  A    between atoms: C_28  and  C_29
REMARK                            x       y       z     vdW  Elec       q    Type
REMARK                         _______ _______ _______ _____ _____    ______ ____
ROOT
ATOM      3  N   UNL     1       0.298  -3.942  -0.435  0.00  0.00    -0.298 NA
ATOM      8  C   UNL     1       1.616  -1.747  -0.894  0.00  0.00    -0.003 C 
ATOM      9  C   UNL     1       2.283  -2.565   0.235  0.00  0.00    +0.020 C 
ATOM     10  C   UNL     1       0.155  -1.447  -0.513  0.00  0.00    +0.024 C 
ATOM     11  C   UNL     1      -0.624  -2.776  -0.392  0.00  0.00    +0.074 C 
ATOM     12  C   UNL     1       1.383  -3.778   0.562  0.00  0.00    +0.089 C 
ATOM     13  C   UNL     1       1.585  -2.650  -2.142  0.00  0.00    +0.019 C 
ATOM     15  C   UNL     1       0.913  -3.988  -1.784  0.00  0.00    +0.085 C 
ENDROOT
BRANCH   9  14
ATOM     14  C   UNL     1       2.584  -1.740   1.475  0.00  0.00    +0.089 C 
BRANCH  14   4
ATOM      1  O   UNL     1       4.372   2.130  -2.963  0.00  0.00    -0.268 OA
ATOM      4  N   UNL     1       3.415  -0.583   1.150  0.00  0.00    -0.301 NA
ATOM      5  N   UNL     1       4.307   1.907  -0.633  0.00  0.00    -0.312 N 
ATOM     16  C   UNL     1       5.738   0.222   0.660  0.00  0.00    +0.024 C 
ATOM     17  C   UNL     1       4.188   1.681   1.872  0.00  0.00    +0.050 C 
ATOM     18  C   UNL     1       4.815  -0.980   0.952  0.00  0.00    +0.089 C 
ATOM     19  C   UNL     1       3.292   0.459   2.180  0.00  0.00    +0.094 C 
ATOM     20  C   UNL     1       5.646   1.238   1.792  0.00  0.00    +0.017 C 
ATOM     22  C   UNL     1       5.396   0.922  -0.662  0.00  0.00    +0.130 C 
ATOM     23  C   UNL     1       3.755   2.343   0.577  0.00  0.00    +0.026 A 
ATOM     24  C   UNL     1       2.837   3.325   0.586  0.00  0.00    +0.022 A 
ATOM     25  C   UNL     1       3.916   2.458  -1.868  0.00  0.00    +0.251 A 
ATOM     26  C   UNL     1       2.392   3.926  -0.640  0.00  0.00    +0.007 A 
ATOM     27  C   UNL     1       2.879   3.527  -1.818  0.00  0.00    +0.070 A 
ENDBRANCH  14   4
ENDBRANCH   9  14
BRANCH  11  21
ATOM     21  C   UNL     1      -1.530  -2.793   0.842  0.00  0.00    +0.123 C 
BRANCH  21   6
ATOM      2  O   UNL     1      -4.147  -2.964  -0.327  0.00  0.00    -0.270 OA
ATOM      6  N   UNL     1      -2.520  -1.731   0.770  0.00  0.00    -0.310 N 
ATOM     28  C   UNL     1      -3.756  -1.917   0.183  0.00  0.00    +0.244 C 
ATOM     37  H   UNL     1      -2.234  -0.820   1.113  0.00  0.00    +0.149 HD
BRANCH  28  29
ATOM     29  C   UNL     1      -4.643  -0.726   0.166  0.00  0.00    +0.037 A 
ATOM     30  C   UNL     1      -5.612  -0.592  -0.829  0.00  0.00    +0.015 A 
ATOM     31  C   UNL     1      -4.508   0.259   1.145  0.00  0.00    +0.015 A 
ATOM     32  C   UNL     1      -6.444   0.527  -0.846  0.00  0.00    +0.024 A 
ATOM     33  C   UNL     1      -5.340   1.378   1.128  0.00  0.00    +0.024 A 
ATOM     34  C   UNL     1      -6.309   1.512   0.133  0.00  0.00    +0.029 A 
BRANCH  34   7
ATOM      7  N   UNL     1      -7.150   2.643   0.117  0.00  0.00    -0.336 N 
ATOM     35  C   UNL     1      -8.160   2.793  -0.912  0.00  0.00    +0.129 C 
ATOM     36  C   UNL     1      -7.022   3.668   1.134  0.00  0.00    +0.129 C 
ENDBRANCH  34   7
ENDBRANCH  28  29
ENDBRANCH  21   6
ENDBRANCH  11  21
TORSDOF 6
