REMARK  Name = 11883999
REMARK  7 active torsions:
REMARK  status: ('A' for Active; 'I' for Inactive)
REMARK    1  A    between atoms: O_3  and  C_13
REMARK    2  A    between atoms: O_3  and  C_17
REMARK    3  A    between atoms: O_6  and  C_30
REMARK    4  A    between atoms: O_6  and  C_34
REMARK    5  A    between atoms: N_7  and  C_12
REMARK    6  A    between atoms: N_8  and  C_18
REMARK    7  A    between atoms: N_9  and  C_19
REMARK                            x       y       z     vdW  Elec       q    Type
REMARK                         _______ _______ _______ _____ _____    ______ ____
ROOT
ATOM      1  O   UNL     1       1.881  -1.787  -0.813  0.00  0.00    -0.368 OA
ATOM      2  O   UNL     1       0.848  -2.740   1.912  0.00  0.00    -0.368 OA
ATOM     10  C   UNL     1       0.351  -1.740   0.998  0.00  0.00    +0.173 C 
ATOM     11  C   UNL     1       1.562  -1.063   0.387  0.00  0.00    +0.192 C 
ATOM     12  C   UNL     1      -0.326  -2.402  -0.178  0.00  0.00    +0.131 C 
ATOM     13  C   UNL     1       2.615  -1.255   1.452  0.00  0.00    +0.235 C 
ATOM     14  C   UNL     1       0.851  -2.754  -1.072  0.00  0.00    +0.185 C 
ATOM     15  C   UNL     1       2.276  -2.626   1.993  0.00  0.00    +0.207 C 
ENDROOT
BRANCH  12   7
ATOM      4  O   UNL     1      -3.145  -2.166   0.277  0.00  0.00    -0.252 OA
ATOM      7  N   UNL     1      -1.233  -1.496  -0.838  0.00  0.00    -0.292 N 
ATOM      8  N   UNL     1      -3.227  -0.473  -1.347  0.00  0.00    -0.269 N 
ATOM     16  C   UNL     1      -2.604  -1.443  -0.557  0.00  0.00    +0.304 C 
ATOM     40  H   UNL     1      -0.850  -0.819  -1.492  0.00  0.00    +0.151 HD
ATOM     41  H   UNL     1      -2.632   0.041  -1.992  0.00  0.00    +0.156 HD
BRANCH   8  18
ATOM     18  C   UNL     1      -4.595  -0.114  -1.364  0.00  0.00    +0.035 A 
ATOM     21  C   UNL     1      -5.496  -0.760  -0.518  0.00  0.00    +0.027 A 
ATOM     22  C   UNL     1      -5.043   0.886  -2.227  0.00  0.00    +0.027 A 
ATOM     27  C   UNL     1      -6.845  -0.407  -0.535  0.00  0.00    +0.048 A 
ATOM     28  C   UNL     1      -6.392   1.239  -2.244  0.00  0.00    +0.048 A 
ATOM     30  C   UNL     1      -7.293   0.593  -1.398  0.00  0.00    +0.129 A 
BRANCH  30   6
ATOM      6  O   UNL     1      -8.610   0.936  -1.417  0.00  0.00    -0.456 OA
BRANCH   6  34
ATOM     34  C   UNL     1      -9.248   1.105  -0.199  0.00  0.00    +0.128 A 
ATOM     35  C   UNL     1      -8.628   1.827   0.820  0.00  0.00    +0.046 A 
ATOM     36  C   UNL     1     -10.512   0.551   0.008  0.00  0.00    +0.046 A 
ATOM     37  C   UNL     1      -9.270   1.996   2.046  0.00  0.00    +0.004 A 
ATOM     38  C   UNL     1     -11.154   0.720   1.235  0.00  0.00    +0.004 A 
ATOM     39  C   UNL     1     -10.534   1.442   2.253  0.00  0.00    +0.000 A 
ENDBRANCH   6  34
ENDBRANCH  30   6
ENDBRANCH   8  18
ENDBRANCH  12   7
BRANCH  13   3
ATOM      3  O   UNL     1       3.934  -1.191   0.958  0.00  0.00    -0.442 OA
BRANCH   3  17
ATOM      5  O   UNL     1       4.014   1.041   1.449  0.00  0.00    -0.226 OA
ATOM      9  N   UNL     1       5.835  -0.072   0.486  0.00  0.00    -0.251 N 
ATOM     17  C   UNL     1       4.559   0.038   1.004  0.00  0.00    +0.405 C 
ATOM     42  H   UNL     1       6.079  -1.005   0.174  0.00  0.00    +0.158 HD
BRANCH   9  19
ATOM     19  C   UNL     1       6.809   0.943   0.348  0.00  0.00    +0.044 A 
ATOM     20  C   UNL     1       8.075   0.683  -0.201  0.00  0.00    +0.003 A 
ATOM     23  C   UNL     1       6.468   2.225   0.779  0.00  0.00    +0.024 A 
ATOM     24  C   UNL     1       9.010   1.740  -0.313  0.00  0.00    -0.016 A 
ATOM     25  C   UNL     1       8.435  -0.602  -0.639  0.00  0.00    +0.010 A 
ATOM     26  C   UNL     1       7.388   3.265   0.667  0.00  0.00    +0.002 A 
ATOM     29  C   UNL     1       8.651   3.025   0.125  0.00  0.00    +0.008 A 
ATOM     31  C   UNL     1      10.277   1.480  -0.862  0.00  0.00    +0.008 A 
ATOM     32  C   UNL     1       9.698  -0.841  -1.181  0.00  0.00    +0.001 A 
ATOM     33  C   UNL     1      10.617   0.198  -1.292  0.00  0.00    +0.001 A 
ENDBRANCH   9  19
ENDBRANCH   3  17
ENDBRANCH  13   3
TORSDOF 7
