REMARK  Name = 25338297
REMARK  8 active torsions:
REMARK  status: ('A' for Active; 'I' for Inactive)
REMARK    1  A    between atoms: S_1  and  N_7
REMARK    2  A    between atoms: S_1  and  C_18
REMARK    3  A    between atoms: O_5  and  C_25
REMARK    4  A    between atoms: O_5  and  C_29
REMARK    5  A    between atoms: N_6  and  C_17
REMARK    6  A    between atoms: N_7  and  C_12
REMARK    7  A    between atoms: C_13  and  C_16
REMARK    8  A    between atoms: C_19  and  C_22
REMARK                            x       y       z     vdW  Elec       q    Type
REMARK                         _______ _______ _______ _____ _____    ______ ____
ROOT
ATOM      6  N   UNL     1       0.120   1.732  -0.756  0.00  0.00    -0.293 NA
ATOM     12  C   UNL     1      -1.205   0.611   0.802  0.00  0.00    +0.092 C 
ATOM     13  C   UNL     1       0.856   1.884   0.513  0.00  0.00    +0.147 C 
ATOM     14  C   UNL     1       0.093   0.990   1.510  0.00  0.00    +0.050 C 
ATOM     15  C   UNL     1      -1.288   1.558  -0.384  0.00  0.00    +0.105 C 
ATOM     17  C   UNL     1       0.306   2.855  -1.667  0.00  0.00    +0.105 C 
ENDROOT
BRANCH  13  16
ATOM      2  O   UNL     1       3.212   2.487   0.760  0.00  0.00    -0.336 OA
ATOM      8  N   UNL     1       2.874   0.397   0.029  0.00  0.00    -0.189 NA
ATOM      9  N   UNL     1       4.483   1.926   0.585  0.00  0.00    -0.054 NA
ATOM     16  C   UNL     1       2.322   1.521   0.411  0.00  0.00    +0.245 A 
ATOM     19  C   UNL     1       4.200   0.693   0.152  0.00  0.00    +0.222 A 
BRANCH  19  22
ATOM     10  N   UNL     1       6.497   0.134  -0.006  0.00  0.00    -0.249 NA
ATOM     11  N   UNL     1       5.847  -2.441  -0.908  0.00  0.00    -0.260 NA
ATOM     22  C   UNL     1       5.219  -0.266  -0.164  0.00  0.00    +0.129 A 
ATOM     26  C   UNL     1       4.900  -1.531  -0.607  0.00  0.00    +0.142 A 
ATOM     27  C   UNL     1       7.444  -0.777  -0.307  0.00  0.00    +0.131 A 
ATOM     28  C   UNL     1       7.125  -2.042  -0.750  0.00  0.00    +0.130 A 
ENDBRANCH  19  22
ENDBRANCH  13  16
BRANCH  12   7
ATOM      7  N   UNL     1      -1.129  -0.794   0.326  0.00  0.00    -0.186 NA
ATOM     30  H   UNL     1      -0.533  -0.985  -0.489  0.00  0.00    +0.148 HD
BRANCH   7   1
ATOM      1  S   UNL     1      -2.288  -1.922   0.838  0.00  0.00    +0.059 S 
ATOM      3  O   UNL     1      -2.343  -1.936   2.287  0.00  0.00    -0.153 OA
ATOM      4  O   UNL     1      -2.092  -3.157   0.103  0.00  0.00    -0.153 OA
BRANCH   1  18
ATOM     18  C   UNL     1      -3.788  -1.200   0.243  0.00  0.00    +0.105 A 
ATOM     20  C   UNL     1      -4.504  -0.315   1.050  0.00  0.00    +0.032 A 
ATOM     21  C   UNL     1      -4.258  -1.518  -1.031  0.00  0.00    +0.032 A 
ATOM     23  C   UNL     1      -5.689   0.252   0.582  0.00  0.00    +0.047 A 
ATOM     24  C   UNL     1      -5.443  -0.951  -1.499  0.00  0.00    +0.047 A 
ATOM     25  C   UNL     1      -6.159  -0.066  -0.692  0.00  0.00    +0.120 A 
BRANCH  25   5
ATOM      5  O   UNL     1      -7.315   0.488  -1.149  0.00  0.00    -0.495 OA
ATOM     29  C   UNL     1      -7.996   1.384  -0.272  0.00  0.00    +0.277 C 
ENDBRANCH  25   5
ENDBRANCH   1  18
ENDBRANCH   7   1
ENDBRANCH  12   7
TORSDOF 6
