REMARK  Name = 25389854
REMARK  9 active torsions:
REMARK  status: ('A' for Active; 'I' for Inactive)
REMARK    1  A    between atoms: O_1  and  C_20
REMARK    2  A    between atoms: O_1  and  C_32
REMARK    3  A    between atoms: N_5  and  C_11
REMARK    4  A    between atoms: N_5  and  C_21
REMARK    5  A    between atoms: N_7  and  C_26
REMARK    6  A    between atoms: C_9  and  C_17
REMARK    7  A    between atoms: C_13  and  C_20
REMARK    8  A    between atoms: C_21  and  C_26
REMARK    9  A    between atoms: C_33  and  C_34
REMARK                            x       y       z     vdW  Elec       q    Type
REMARK                         _______ _______ _______ _____ _____    ______ ____
ROOT
ATOM      4  N   UNL     1      -0.528  -0.644   0.175  0.00  0.00    -0.274 NA
ATOM      6  N   UNL     1      -2.637   2.446  -0.163  0.00  0.00    -0.356 N 
ATOM      8  C   UNL     1      -0.759   0.721  -0.391  0.00  0.00    +0.106 C 
ATOM      9  C   UNL     1       0.828  -1.157  -0.149  0.00  0.00    +0.090 C 
ATOM     10  C   UNL     1       0.293   1.712   0.132  0.00  0.00    +0.044 C 
ATOM     11  C   UNL     1       1.701   1.237  -0.227  0.00  0.00    +0.057 C 
ATOM     12  C   UNL     1       1.923  -0.171   0.324  0.00  0.00    +0.042 C 
ATOM     13  C   UNL     1      -1.640  -1.589  -0.120  0.00  0.00    +0.172 C 
ATOM     14  C   UNL     1      -2.152   1.171  -0.068  0.00  0.00    +0.038 A 
ATOM     15  C   UNL     1      -2.991  -1.121   0.477  0.00  0.00    +0.068 C 
ATOM     16  C   UNL     1      -3.188   0.345   0.311  0.00  0.00    -0.016 A 
ATOM     18  C   UNL     1      -4.344   1.153   0.490  0.00  0.00    +0.003 A 
ATOM     19  C   UNL     1      -3.971   2.466   0.187  0.00  0.00    +0.047 A 
ATOM     24  C   UNL     1      -5.676   0.898   0.875  0.00  0.00    +0.010 A 
ATOM     25  C   UNL     1      -4.868   3.538   0.252  0.00  0.00    +0.026 A 
ATOM     27  C   UNL     1      -6.582   1.962   0.946  0.00  0.00    +0.001 A 
ATOM     30  C   UNL     1      -6.182   3.261   0.639  0.00  0.00    +0.002 A 
ATOM     36  H   UNL     1      -2.105   3.258  -0.444  0.00  0.00    +0.166 HD
ENDROOT
BRANCH   9  17
ATOM     17  C   UNL     1       1.140  -2.521   0.461  0.00  0.00    -0.030 A 
ATOM     22  C   UNL     1       1.951  -3.423  -0.228  0.00  0.00    +0.005 A 
ATOM     23  C   UNL     1       0.614  -2.866   1.706  0.00  0.00    +0.005 A 
ATOM     28  C   UNL     1       2.236  -4.670   0.329  0.00  0.00    +0.000 A 
ATOM     29  C   UNL     1       0.899  -4.112   2.263  0.00  0.00    +0.000 A 
ATOM     31  C   UNL     1       1.710  -5.015   1.574  0.00  0.00    +0.000 A 
ENDBRANCH   9  17
BRANCH  13  20
ATOM      2  O   UNL     1      -1.038  -1.287  -2.435  0.00  0.00    -0.249 OA
ATOM     20  C   UNL     1      -1.758  -1.817  -1.600  0.00  0.00    +0.325 C 
BRANCH  20   1
ATOM      1  O   UNL     1      -2.774  -2.692  -1.847  0.00  0.00    -0.467 OA
ATOM     32  C   UNL     1      -2.998  -3.002  -3.226  0.00  0.00    +0.280 C 
ENDBRANCH  20   1
ENDBRANCH  13  20
BRANCH  11   5
ATOM      5  N   UNL     1       2.696   2.167   0.303  0.00  0.00    -0.312 NA
ATOM     35  H   UNL     1       2.361   3.126   0.204  0.00  0.00    +0.122 HD
BRANCH   5  21
ATOM     21  C   UNL     1       3.956   2.036  -0.412  0.00  0.00    +0.100 C 
BRANCH  21  26
ATOM     26  C   UNL     1       4.996   2.980   0.173  0.00  0.00    +0.119 C 
BRANCH  26   7
ATOM      3  O   UNL     1       7.177   1.187   0.851  0.00  0.00    -0.276 OA
ATOM      7  N   UNL     1       6.259   2.846  -0.502  0.00  0.00    -0.314 N 
ATOM     33  C   UNL     1       7.248   1.956  -0.104  0.00  0.00    +0.210 C 
ATOM     34  C   UNL     1       8.457   2.002  -0.999  0.00  0.00    +0.109 C 
ATOM     37  H   UNL     1       6.419   3.425  -1.321  0.00  0.00    +0.149 HD
ENDBRANCH  26   7
ENDBRANCH  21  26
ENDBRANCH   5  21
ENDBRANCH  11   5
TORSDOF 7
