REMARK  Name = 45784323
REMARK  4 active torsions:
REMARK  status: ('A' for Active; 'I' for Inactive)
REMARK    1  A    between atoms: N_1  and  C_6
REMARK    2  A    between atoms: N_2  and  C_16
REMARK    3  A    between atoms: C_7  and  C_15
REMARK    4  A    between atoms: C_21  and  C_23
REMARK                            x       y       z     vdW  Elec       q    Type
REMARK                         _______ _______ _______ _____ _____    ______ ____
ROOT
ATOM      1  N   UNL     1      -2.519  -0.891  -0.335  0.00  0.00    -0.299 NA
ATOM      7  C   UNL     1      -0.226  -1.206  -0.710  0.00  0.00    +0.070 C 
ATOM      8  C   UNL     1      -1.308  -0.121  -0.627  0.00  0.00    +0.096 C 
ATOM      9  C   UNL     1      -2.110  -1.870   0.672  0.00  0.00    +0.085 C 
ATOM     10  C   UNL     1      -0.773  -2.368   0.137  0.00  0.00    +0.028 C 
ENDROOT
BRANCH   7  15
ATOM      3  N   UNL     1       2.197  -0.737  -1.165  0.00  0.00    -0.342 N 
ATOM      4  N   UNL     1       1.477  -0.213   0.872  0.00  0.00    -0.232 NA
ATOM     15  C   UNL     1       1.140  -0.708  -0.298  0.00  0.00    +0.113 A 
ATOM     17  C   UNL     1       3.289  -0.225  -0.511  0.00  0.00    +0.067 A 
ATOM     18  C   UNL     1       2.813   0.094   0.758  0.00  0.00    +0.089 A 
ATOM     19  C   UNL     1       4.610  -0.021  -0.908  0.00  0.00    +0.046 A 
ATOM     20  C   UNL     1       3.695   0.651   1.700  0.00  0.00    +0.031 A 
ATOM     21  C   UNL     1       5.474   0.534   0.042  0.00  0.00    +0.054 A 
ATOM     22  C   UNL     1       5.027   0.865   1.323  0.00  0.00    +0.021 A 
ATOM     24  H   UNL     1       2.181  -1.073  -2.119  0.00  0.00    +0.167 HD
BRANCH  21  23
ATOM      5  N   UNL     1       7.951   0.956  -0.591  0.00  0.00    -0.191 NA
ATOM     23  C   UNL     1       6.841   0.767  -0.307  0.00  0.00    +0.099 C 
ENDBRANCH  21  23
ENDBRANCH   7  15
BRANCH   1   6
ATOM      2  N   UNL     1      -6.355   0.936  -0.212  0.00  0.00    -0.305 NA
ATOM      6  C   UNL     1      -3.619  -0.046   0.126  0.00  0.00    +0.059 C 
ATOM     11  C   UNL     1      -3.988   0.999  -0.932  0.00  0.00    +0.034 C 
ATOM     12  C   UNL     1      -4.842  -0.904   0.460  0.00  0.00    +0.034 C 
ATOM     13  C   UNL     1      -5.210   1.811  -0.497  0.00  0.00    +0.085 C 
ATOM     14  C   UNL     1      -6.036  -0.029   0.850  0.00  0.00    +0.085 C 
ATOM     16  C   UNL     1      -7.528   1.729   0.153  0.00  0.00    +0.104 C 
ENDBRANCH   1   6
TORSDOF 3
