REMARK  Name = 11911512
REMARK  8 active torsions:
REMARK  status: ('A' for Active; 'I' for Inactive)
REMARK    1  A    between atoms: O_5  and  C_32
REMARK    2  A    between atoms: O_5  and  C_37
REMARK    3  A    between atoms: O_6  and  C_36
REMARK    4  A    between atoms: O_6  and  C_38
REMARK    5  A    between atoms: N_8  and  C_14
REMARK    6  A    between atoms: C_22  and  C_28
REMARK    7  A    between atoms: C_24  and  C_30
REMARK    8  A    between atoms: C_27  and  C_31
REMARK                            x       y       z     vdW  Elec       q    Type
REMARK                         _______ _______ _______ _____ _____    ______ ____
ROOT
ATOM      1  O   UNL     1      -2.023  -2.521   0.883  0.00  0.00    -0.273 OA
ATOM      2  O   UNL     1       1.203  -0.278  -2.552  0.00  0.00    -0.270 OA
ATOM      7  N   UNL     1      -0.582  -0.335  -1.068  0.00  0.00    -0.286 N 
ATOM      9  N   UNL     1       0.261  -2.415   0.861  0.00  0.00    -0.283 N 
ATOM     14  C   UNL     1      -3.417   0.065  -0.507  0.00  0.00    +0.113 C 
ATOM     15  C   UNL     1      -1.029  -0.396   0.319  0.00  0.00    +0.164 C 
ATOM     16  C   UNL     1      -2.372   0.293   0.593  0.00  0.00    +0.059 C 
ATOM     17  C   UNL     1      -2.820   0.427  -1.870  0.00  0.00    +0.046 C 
ATOM     18  C   UNL     1      -1.583  -0.418  -2.136  0.00  0.00    +0.111 C 
ATOM     19  C   UNL     1      -0.997  -1.868   0.687  0.00  0.00    +0.238 C 
ATOM     20  C   UNL     1       0.768  -0.429  -1.410  0.00  0.00    +0.249 C 
ATOM     21  C   UNL     1       1.746  -0.804  -0.354  0.00  0.00    +0.059 A 
ATOM     23  C   UNL     1       1.511  -1.806   0.605  0.00  0.00    +0.046 A 
ATOM     25  C   UNL     1       3.033  -0.252  -0.479  0.00  0.00    +0.023 A 
ATOM     26  C   UNL     1       2.589  -2.279   1.371  0.00  0.00    +0.024 A 
ATOM     27  C   UNL     1       4.079  -0.699   0.326  0.00  0.00    -0.014 A 
ATOM     29  C   UNL     1       3.861  -1.722   1.241  0.00  0.00    +0.010 A 
ATOM     39  H   UNL     1       0.288  -3.322   1.320  0.00  0.00    +0.155 HD
ENDROOT
BRANCH  27  31
ATOM     31  C   UNL     1       5.397  -0.117   0.191  0.00  0.00    +0.024 A 
ATOM     32  C   UNL     1       5.779   0.981   0.964  0.00  0.00    +0.131 A 
ATOM     33  C   UNL     1       6.294  -0.666  -0.727  0.00  0.00    +0.016 A 
ATOM     34  C   UNL     1       7.055   1.528   0.820  0.00  0.00    +0.091 A 
ATOM     35  C   UNL     1       7.569  -0.120  -0.871  0.00  0.00    +0.046 A 
ATOM     36  C   UNL     1       7.949   0.977  -0.098  0.00  0.00    +0.124 A 
BRANCH  32   5
ATOM      5  O   UNL     1       4.925   1.540   1.868  0.00  0.00    -0.494 OA
ATOM     37  C   UNL     1       4.082   2.589   1.399  0.00  0.00    +0.277 C 
ENDBRANCH  32   5
BRANCH  36   6
ATOM      6  O   UNL     1       9.194   1.510  -0.239  0.00  0.00    -0.495 OA
ATOM     38  C   UNL     1      10.058   0.898  -1.196  0.00  0.00    +0.277 C 
ENDBRANCH  36   6
ENDBRANCH  27  31
BRANCH  14   8
ATOM      8  N   UNL     1      -4.677   0.767  -0.235  0.00  0.00    -0.236 N 
ATOM     10  N   UNL     1      -4.693   2.104  -0.149  0.00  0.00    -0.064 NA
ATOM     11  N   UNL     1      -5.947   2.462   0.103  0.00  0.00    -0.124 NA
ATOM     22  C   UNL     1      -5.907   0.229  -0.043  0.00  0.00    +0.156 A 
ATOM     24  C   UNL     1      -6.704   1.325   0.172  0.00  0.00    +0.179 A 
BRANCH  22  28
ATOM      3  O   UNL     1      -6.563  -1.778  -1.108  0.00  0.00    -0.269 OA
ATOM     12  N   UNL     1      -6.161  -1.873   1.134  0.00  0.00    -0.324 N 
ATOM     28  C   UNL     1      -6.235  -1.160  -0.068  0.00  0.00    +0.262 C 
ATOM     40  H   UNL     1      -5.890  -1.430   2.006  0.00  0.00    +0.145 HD
ATOM     41  H   UNL     1      -6.376  -2.864   1.166  0.00  0.00    +0.145 HD
ENDBRANCH  22  28
BRANCH  24  30
ATOM      4  O   UNL     1      -8.810   0.310   0.519  0.00  0.00    -0.269 OA
ATOM     13  N   UNL     1      -8.723   2.585   0.623  0.00  0.00    -0.324 N 
ATOM     30  C   UNL     1      -8.110   1.343   0.432  0.00  0.00    +0.264 C 
ATOM     42  H   UNL     1      -8.202   3.456   0.573  0.00  0.00    +0.145 HD
ATOM     43  H   UNL     1      -9.716   2.652   0.818  0.00  0.00    +0.145 HD
ENDBRANCH  24  30
ENDBRANCH  14   8
TORSDOF 6
