REMARK  Name = 7134606
REMARK  15 active torsions:
REMARK  status: ('A' for Active; 'I' for Inactive)
REMARK    1  A    between atoms: S_1  and  C_25
REMARK    2  A    between atoms: S_1  and  C_34
REMARK    3  A    between atoms: O_6  and  C_28
REMARK    4  A    between atoms: O_8  and  C_33
REMARK    5  A    between atoms: O_8  and  C_35
REMARK    6  A    between atoms: N_10  and  C_13
REMARK    7  A    between atoms: N_11  and  C_21
REMARK    8  A    between atoms: C_14  and  C_18
REMARK    9  A    between atoms: C_19  and  C_20
REMARK   10  A    between atoms: C_20  and  C_24
REMARK   11  A    between atoms: C_21  and  C_23
REMARK   12  A    between atoms: C_21  and  C_26
REMARK   13  A    between atoms: C_22  and  C_25
REMARK   14  A    between atoms: C_23  and  C_27
REMARK   15  A    between atoms: C_24  and  C_28
REMARK                            x       y       z     vdW  Elec       q    Type
REMARK                         _______ _______ _______ _____ _____    ______ ____
ROOT
ATOM      3  O   UNL     1      -0.870   3.771   1.590  0.00  0.00    -0.276 OA
ATOM      9  N   UNL     1       0.481   2.128   0.642  0.00  0.00    -0.290 N 
ATOM     13  C   UNL     1       3.170   1.124   0.107  0.00  0.00    +0.077 C 
ATOM     14  C   UNL     1       0.641   0.965  -0.246  0.00  0.00    +0.164 C 
ATOM     15  C   UNL     1       2.029   0.882  -0.885  0.00  0.00    +0.054 C 
ATOM     16  C   UNL     1       2.933   2.420   0.880  0.00  0.00    +0.041 C 
ATOM     17  C   UNL     1       1.579   2.396   1.578  0.00  0.00    +0.110 C 
ATOM     19  C   UNL     1      -0.693   2.883   0.751  0.00  0.00    +0.217 C 
ENDROOT
BRANCH  14  18
ATOM      2  O   UNL     1       0.033  -0.179   1.761  0.00  0.00    -0.274 OA
ATOM     11  N   UNL     1       0.415  -1.419  -0.171  0.00  0.00    -0.302 N 
ATOM     18  C   UNL     1       0.321  -0.254   0.569  0.00  0.00    +0.234 C 
ATOM     37  H   UNL     1       0.635  -1.371  -1.161  0.00  0.00    +0.150 HD
BRANCH  11  21
ATOM     21  C   UNL     1       0.178  -2.732   0.386  0.00  0.00    +0.163 C 
BRANCH  21  26
ATOM      5  O   UNL     1       2.283  -3.381  -0.640  0.00  0.00    -0.274 OA
ATOM     12  N   UNL     1       1.709  -4.318   1.377  0.00  0.00    -0.328 N 
ATOM     26  C   UNL     1       1.486  -3.503   0.287  0.00  0.00    +0.231 C 
ATOM     38  H   UNL     1       1.044  -4.407   2.138  0.00  0.00    +0.145 HD
ATOM     39  H   UNL     1       2.553  -4.877   1.445  0.00  0.00    +0.145 HD
ENDBRANCH  21  26
BRANCH  21  23
ATOM     23  C   UNL     1      -0.940  -3.480  -0.348  0.00  0.00    +0.067 C 
BRANCH  23  27
ATOM     27  C   UNL     1      -2.258  -2.746  -0.309  0.00  0.00    -0.045 A 
ATOM     29  C   UNL     1      -2.578  -1.834  -1.314  0.00  0.00    +0.007 A 
ATOM     30  C   UNL     1      -3.156  -2.980   0.733  0.00  0.00    +0.007 A 
ATOM     31  C   UNL     1      -3.796  -1.155  -1.278  0.00  0.00    +0.046 A 
ATOM     32  C   UNL     1      -4.374  -2.301   0.769  0.00  0.00    +0.046 A 
ATOM     33  C   UNL     1      -4.694  -1.389  -0.236  0.00  0.00    +0.120 A 
BRANCH  33   8
ATOM      8  O   UNL     1      -5.882  -0.726  -0.200  0.00  0.00    -0.495 OA
ATOM     35  C   UNL     1      -6.753  -1.012   0.893  0.00  0.00    +0.277 C 
ENDBRANCH  33   8
ENDBRANCH  23  27
ENDBRANCH  21  23
ENDBRANCH  11  21
ENDBRANCH  14  18
BRANCH  13  10
ATOM      4  O   UNL     1       4.924  -1.107  -0.457  0.00  0.00    -0.275 OA
ATOM     10  N   UNL     1       4.442   1.163  -0.573  0.00  0.00    -0.312 N 
ATOM     22  C   UNL     1       5.218   0.037  -0.799  0.00  0.00    +0.223 C 
ATOM     36  H   UNL     1       4.748   2.057  -0.947  0.00  0.00    +0.149 HD
BRANCH  22  25
ATOM     25  C   UNL     1       6.512   0.345  -1.514  0.00  0.00    +0.164 C 
BRANCH  25   1
ATOM      1  S   UNL     1       7.896  -0.190  -0.479  0.00  0.00    -0.155 S 
ATOM     34  C   UNL     1       7.945   1.218   0.654  0.00  0.00    +0.085 C 
ENDBRANCH  25   1
ENDBRANCH  22  25
ENDBRANCH  13  10
BRANCH  19  20
ATOM     20  C   UNL     1      -1.790   2.581  -0.239  0.00  0.00    +0.107 C 
BRANCH  20  24
ATOM     24  C   UNL     1      -2.979   3.484   0.021  0.00  0.00    +0.129 C 
BRANCH  24  28
ATOM      7  O   UNL     1      -3.980   2.733  -2.047  0.00  0.00    -0.251 OA
ATOM     28  C   UNL     1      -4.123   3.160  -0.908  0.00  0.00    +0.305 C 
BRANCH  28   6
ATOM      6  O   UNL     1      -5.334   3.417  -0.354  0.00  0.00    -0.481 OA
ATOM     40  H   UNL     1      -6.069   3.211  -0.970  0.00  0.00    +0.295 HD
ENDBRANCH  28   6
ENDBRANCH  24  28
ENDBRANCH  20  24
ENDBRANCH  19  20
TORSDOF 13
