REMARK  Name = 38029820
REMARK  12 active torsions:
REMARK  status: ('A' for Active; 'I' for Inactive)
REMARK    1  A    between atoms: O_2  and  C_21
REMARK    2  A    between atoms: O_2  and  C_22
REMARK    3  A    between atoms: N_4  and  C_11
REMARK    4  A    between atoms: C_5  and  C_9
REMARK    5  A    between atoms: C_6  and  C_11
REMARK    6  A    between atoms: C_8  and  C_16
REMARK    7  A    between atoms: C_9  and  C_18
REMARK    8  A    between atoms: C_9  and  C_19
REMARK    9  A    between atoms: C_10  and  C_17
REMARK   10  A    between atoms: C_12  and  C_20
REMARK   11  A    between atoms: C_16  and  C_21
REMARK   12  A    between atoms: C_22  and  C_23
REMARK                            x       y       z     vdW  Elec       q    Type
REMARK                         _______ _______ _______ _____ _____    ______ ____
ROOT
ATOM      5  C   UNL     1       0.059   1.092  -1.029  0.00  0.00    +0.000 C 
ATOM      6  C   UNL     1       1.031   2.149  -0.447  0.00  0.00    +0.032 C 
ATOM      7  C   UNL     1      -1.391   1.437  -0.657  0.00  0.00    +0.012 C 
ATOM      8  C   UNL     1      -1.601   1.507   0.867  0.00  0.00    +0.025 C 
ATOM     12  C   UNL     1      -0.518   2.318   1.548  0.00  0.00    -0.073 C 
ATOM     13  C   UNL     1       0.647   2.606   0.940  0.00  0.00    -0.022 C 
ATOM     20  C   UNL     1      -0.821   2.829   2.929  0.00  0.00    +0.039 C 
ENDROOT
BRANCH   5   9
ATOM      9  C   UNL     1       0.190   0.975  -2.550  0.00  0.00    -0.013 C 
ATOM     18  C   UNL     1      -0.278  -0.399  -3.020  0.00  0.00    +0.007 C 
ATOM     19  C   UNL     1      -0.601   2.081  -3.240  0.00  0.00    +0.007 C 
ENDBRANCH   5   9
BRANCH   6  11
ATOM     11  C   UNL     1       2.472   1.625  -0.431  0.00  0.00    +0.112 C 
BRANCH  11   4
ATOM      1  O   UNL     1       3.308  -1.091  -1.052  0.00  0.00    -0.276 OA
ATOM      4  N   UNL     1       2.602   0.525   0.472  0.00  0.00    -0.315 N 
ATOM     17  C   UNL     1       3.011  -0.746   0.086  0.00  0.00    +0.216 C 
ATOM     24  H   UNL     1       2.429   0.693   1.460  0.00  0.00    +0.149 HD
BRANCH  17  10
ATOM     10  C   UNL     1       3.078  -1.741   1.197  0.00  0.00    +0.075 C 
ATOM     14  C   UNL     1       1.833  -2.482   1.591  0.00  0.00    +0.013 C 
ATOM     15  C   UNL     1       2.941  -3.201   0.879  0.00  0.00    +0.013 C 
ENDBRANCH  17  10
ENDBRANCH  11   4
ENDBRANCH   6  11
BRANCH   8  16
ATOM     16  C   UNL     1      -1.702   0.104   1.476  0.00  0.00    +0.128 C 
BRANCH  16  21
ATOM      3  O   UNL     1      -3.960  -0.437   0.755  0.00  0.00    -0.251 OA
ATOM     21  C   UNL     1      -2.770  -0.717   0.805  0.00  0.00    +0.308 C 
BRANCH  21   2
ATOM      2  O   UNL     1      -2.185  -1.826   0.262  0.00  0.00    -0.465 OA
BRANCH   2  22
ATOM     22  C   UNL     1      -3.071  -2.720  -0.419  0.00  0.00    +0.229 C 
ATOM     23  C   UNL     1      -2.274  -3.888  -0.959  0.00  0.00    +0.048 C 
ENDBRANCH   2  22
ENDBRANCH  21   2
ENDBRANCH  16  21
ENDBRANCH   8  16
TORSDOF 8
