REMARK  Name = 56775530
REMARK  10 active torsions:
REMARK  status: ('A' for Active; 'I' for Inactive)
REMARK    1  A    between atoms: O_3  and  C_17
REMARK    2  A    between atoms: O_3  and  C_18
REMARK    3  A    between atoms: N_4  and  C_6
REMARK    4  A    between atoms: N_4  and  C_10
REMARK    5  A    between atoms: N_4  and  C_11
REMARK    6  A    between atoms: C_6  and  C_9
REMARK    7  A    between atoms: C_9  and  C_12
REMARK    8  A    between atoms: C_10  and  C_13
REMARK    9  A    between atoms: C_11  and  C_14
REMARK   10  A    between atoms: C_16  and  C_17
REMARK                            x       y       z     vdW  Elec       q    Type
REMARK                         _______ _______ _______ _____ _____    ______ ____
ROOT
ATOM      1  O   UNL     1       0.786  -1.371   1.861  0.00  0.00    -0.376 OA
ATOM      6  C   UNL     1       1.541  -0.236   0.219  0.00  0.00    +0.074 C 
ATOM      7  C   UNL     1       1.111  -1.674   0.484  0.00  0.00    +0.184 C 
ATOM      8  C   UNL     1       1.087   0.027   1.650  0.00  0.00    +0.184 C 
ENDROOT
BRANCH   6   4
ATOM      4  N   UNL     1       3.013  -0.181   0.170  0.00  0.00    -0.293 NA
BRANCH   4  10
ATOM     10  C   UNL     1       3.458  -0.456  -1.196  0.00  0.00    +0.082 C 
ATOM     13  C   UNL     1       3.003  -1.831  -1.655  0.00  0.00    +0.020 C 
ENDBRANCH   4  10
BRANCH   4  11
ATOM     11  C   UNL     1       3.458   1.143   0.600  0.00  0.00    +0.082 C 
ATOM     14  C   UNL     1       4.973   1.250   0.568  0.00  0.00    +0.020 C 
ENDBRANCH   4  11
ENDBRANCH   6   4
BRANCH   6   9
ATOM      9  C   UNL     1       0.892   0.523  -0.898  0.00  0.00    +0.085 C 
BRANCH   9  12
ATOM      2  O   UNL     1      -2.449   1.527   0.042  0.00  0.00    -0.357 OA
ATOM      5  N   UNL     1      -1.072   1.711   0.010  0.00  0.00    -0.083 NA
ATOM     12  C   UNL     1      -0.598   0.658  -0.663  0.00  0.00    +0.086 A 
ATOM     15  C   UNL     1      -1.619  -0.215  -1.075  0.00  0.00    +0.073 A 
ATOM     16  C   UNL     1      -2.762   0.377  -0.607  0.00  0.00    +0.163 A 
BRANCH  16  17
ATOM     17  C   UNL     1      -4.186   0.026  -0.669  0.00  0.00    +0.236 C 
BRANCH  17   3
ATOM      3  O   UNL     1      -4.631  -0.466   0.598  0.00  0.00    -0.375 OA
ATOM     18  C   UNL     1      -6.006  -0.811   0.560  0.00  0.00    +0.194 C 
ENDBRANCH  17   3
ENDBRANCH  16  17
ENDBRANCH   9  12
ENDBRANCH   6   9
TORSDOF 7
