REMARK  Name = 45360723
REMARK  10 active torsions:
REMARK  status: ('A' for Active; 'I' for Inactive)
REMARK    1  A    between atoms: N_5  and  C_10
REMARK    2  A    between atoms: N_5  and  C_20
REMARK    3  A    between atoms: N_6  and  C_16
REMARK    4  A    between atoms: N_7  and  C_27
REMARK    5  A    between atoms: N_7  and  C_28
REMARK    6  A    between atoms: N_7  and  C_29
REMARK    7  A    between atoms: C_9  and  C_14
REMARK    8  A    between atoms: C_14  and  C_17
REMARK    9  A    between atoms: C_17  and  C_21
REMARK   10  A    between atoms: C_20  and  C_22
REMARK                            x       y       z     vdW  Elec       q    Type
REMARK                         _______ _______ _______ _____ _____    ______ ____
ROOT
ATOM      1  O   UNL     1      -0.599  -5.009  -0.392  0.00  0.00    -0.274 OA
ATOM      3  N   UNL     1      -2.088  -1.677  -0.335  0.00  0.00    -0.286 NA
ATOM      4  N   UNL     1      -2.161  -4.137   1.012  0.00  0.00    -0.313 N 
ATOM      8  C   UNL     1      -1.393  -2.814  -0.952  0.00  0.00    +0.145 C 
ATOM      9  C   UNL     1      -3.285  -2.040   0.416  0.00  0.00    +0.075 C 
ATOM     10  C   UNL     1       0.022  -0.856  -0.710  0.00  0.00    +0.070 C 
ATOM     11  C   UNL     1       0.020  -2.288  -1.246  0.00  0.00    +0.048 C 
ATOM     12  C   UNL     1      -1.077  -0.870   0.344  0.00  0.00    +0.104 C 
ATOM     13  C   UNL     1      -2.953  -3.038   1.514  0.00  0.00    +0.123 C 
ATOM     15  C   UNL     1      -1.331  -4.065  -0.080  0.00  0.00    +0.230 C 
ATOM     30  H   UNL     1      -2.126  -4.984   1.572  0.00  0.00    +0.149 HD
ENDROOT
BRANCH  10   5
ATOM      5  N   UNL     1       1.316  -0.443  -0.192  0.00  0.00    -0.308 NA
ATOM     31  H   UNL     1       1.186   0.356   0.429  0.00  0.00    +0.123 HD
BRANCH   5  20
ATOM     20  C   UNL     1       2.216  -0.061  -1.273  0.00  0.00    +0.116 C 
BRANCH  20  22
ATOM     22  C   UNL     1       3.567   0.357  -0.758  0.00  0.00    -0.033 A 
ATOM     23  C   UNL     1       3.732   1.611  -0.172  0.00  0.00    +0.007 A 
ATOM     24  C   UNL     1       4.654  -0.511  -0.867  0.00  0.00    +0.007 A 
ATOM     25  C   UNL     1       4.984   1.999   0.305  0.00  0.00    +0.023 A 
ATOM     26  C   UNL     1       5.906  -0.123  -0.390  0.00  0.00    +0.023 A 
ATOM     27  C   UNL     1       6.071   1.131   0.196  0.00  0.00    +0.029 A 
BRANCH  27   7
ATOM      7  N   UNL     1       7.337   1.523   0.679  0.00  0.00    -0.336 N 
ATOM     28  C   UNL     1       8.471   0.626   0.577  0.00  0.00    +0.129 C 
ATOM     29  C   UNL     1       7.519   2.825   1.290  0.00  0.00    +0.129 C 
ENDBRANCH  27   7
ENDBRANCH  20  22
ENDBRANCH   5  20
ENDBRANCH  10   5
BRANCH   9  14
ATOM     14  C   UNL     1      -4.021  -0.825   0.983  0.00  0.00    +0.029 C 
BRANCH  14  17
ATOM     17  C   UNL     1      -4.317   0.197  -0.106  0.00  0.00    +0.097 C 
BRANCH  17  21
ATOM      2  O   UNL     1      -5.327   1.561   1.621  0.00  0.00    -0.276 OA
ATOM      6  N   UNL     1      -5.295   2.347  -0.563  0.00  0.00    -0.312 N 
ATOM     21  C   UNL     1      -5.029   1.422   0.438  0.00  0.00    +0.213 C 
ATOM     32  H   UNL     1      -5.019   2.147  -1.521  0.00  0.00    +0.149 HD
BRANCH   6  16
ATOM     16  C   UNL     1      -5.961   3.591  -0.306  0.00  0.00    +0.073 C 
ATOM     18  C   UNL     1      -5.774   4.774  -1.210  0.00  0.00    +0.024 C 
ATOM     19  C   UNL     1      -5.203   4.793   0.177  0.00  0.00    +0.024 C 
ENDBRANCH   6  16
ENDBRANCH  17  21
ENDBRANCH  14  17
ENDBRANCH   9  14
TORSDOF 8
