REMARK  Name = 26745401
REMARK  6 active torsions:
REMARK  status: ('A' for Active; 'I' for Inactive)
REMARK    1  A    between atoms: N_3  and  C_18
REMARK    2  A    between atoms: C_6  and  C_13
REMARK    3  A    between atoms: C_11  and  C_12
REMARK    4  A    between atoms: C_13  and  C_19
REMARK    5  A    between atoms: C_18  and  C_20
REMARK    6  A    between atoms: C_31  and  C_32
REMARK                            x       y       z     vdW  Elec       q    Type
REMARK                         _______ _______ _______ _____ _____    ______ ____
ROOT
ATOM      3  N   UNL     1      -2.427   0.470  -0.234  0.00  0.00    -0.281 NA
ATOM      4  N   UNL     1      -3.013   4.170  -0.240  0.00  0.00    -0.347 N 
ATOM      5  N   UNL     1      -1.133   4.259   0.969  0.00  0.00    -0.240 NA
ATOM     11  C   UNL     1      -0.949   0.608  -0.093  0.00  0.00    +0.150 C 
ATOM     14  C   UNL     1      -0.527   1.800   0.818  0.00  0.00    +0.085 C 
ATOM     15  C   UNL     1      -3.044   1.682  -0.846  0.00  0.00    +0.140 C 
ATOM     16  C   UNL     1      -1.361   2.985   0.533  0.00  0.00    +0.065 A 
ATOM     17  C   UNL     1      -2.513   2.904  -0.206  0.00  0.00    +0.053 A 
ATOM     21  C   UNL     1      -2.146   4.951   0.484  0.00  0.00    +0.197 A 
ATOM     33  H   UNL     1      -3.854   4.480  -0.707  0.00  0.00    +0.167 HD
ENDROOT
BRANCH  11  12
ATOM      1  O   UNL     1      -1.117  -1.281   1.314  0.00  0.00    -0.274 OA
ATOM      2  N   UNL     1       0.905  -0.983   0.211  0.00  0.00    -0.300 N 
ATOM      6  C   UNL     1       3.783  -1.150   0.542  0.00  0.00    -0.004 C 
ATOM      7  C   UNL     1       3.104   0.106  -0.026  0.00  0.00    +0.023 C 
ATOM      8  C   UNL     1       2.815  -1.903   1.468  0.00  0.00    +0.023 C 
ATOM      9  C   UNL     1       1.778  -0.237  -0.703  0.00  0.00    +0.108 C 
ATOM     10  C   UNL     1       1.496  -2.205   0.760  0.00  0.00    +0.108 C 
ATOM     12  C   UNL     1      -0.403  -0.635   0.542  0.00  0.00    +0.233 C 
BRANCH   6  13
ATOM     13  C   UNL     1       5.068  -0.786   1.281  0.00  0.00    +0.038 C 
BRANCH  13  19
ATOM     19  C   UNL     1       6.203  -0.532   0.327  0.00  0.00    -0.047 A 
ATOM     22  C   UNL     1       7.032  -1.582  -0.067  0.00  0.00    +0.003 A 
ATOM     23  C   UNL     1       6.426   0.755  -0.164  0.00  0.00    +0.003 A 
ATOM     26  C   UNL     1       8.085  -1.346  -0.951  0.00  0.00    +0.000 A 
ATOM     27  C   UNL     1       7.478   0.991  -1.048  0.00  0.00    +0.000 A 
ATOM     28  C   UNL     1       8.308  -0.059  -1.442  0.00  0.00    +0.000 A 
ENDBRANCH  13  19
ENDBRANCH   6  13
ENDBRANCH  11  12
BRANCH   3  18
ATOM     18  C   UNL     1      -2.807  -0.700  -1.035  0.00  0.00    +0.120 C 
BRANCH  18  20
ATOM     20  C   UNL     1      -4.196  -1.178  -0.706  0.00  0.00    -0.033 A 
ATOM     24  C   UNL     1      -4.427  -1.898   0.466  0.00  0.00    +0.005 A 
ATOM     25  C   UNL     1      -5.252  -0.903  -1.575  0.00  0.00    +0.005 A 
ATOM     29  C   UNL     1      -5.713  -2.343   0.769  0.00  0.00    +0.003 A 
ATOM     30  C   UNL     1      -6.539  -1.348  -1.272  0.00  0.00    +0.003 A 
ATOM     31  C   UNL     1      -6.769  -2.068  -0.100  0.00  0.00    -0.050 A 
ATOM     32  C   UNL     1      -8.145  -2.544   0.225  0.00  0.00    +0.044 C 
ENDBRANCH  18  20
ENDBRANCH   3  18
TORSDOF 5
