REMARK  Name = 11882861
REMARK  13 active torsions:
REMARK  status: ('A' for Active; 'I' for Inactive)
REMARK    1  A    between atoms: O_2  and  C_16
REMARK    2  A    between atoms: O_3  and  C_21
REMARK    3  A    between atoms: C_11  and  C_19
REMARK    4  A    between atoms: C_13  and  C_21
REMARK    5  A    between atoms: C_13  and  C_22
REMARK    6  A    between atoms: C_14  and  C_24
REMARK    7  A    between atoms: C_24  and  C_25
REMARK    8  A    between atoms: C_31  and  C_33
REMARK    9  A    between atoms: C_32  and  C_34
REMARK   10  A    between atoms: C_34  and  C_35
REMARK   11  A    between atoms: C_35  and  C_36
REMARK   12  A    between atoms: C_35  and  C_37
REMARK   13  A    between atoms: C_35  and  C_38
REMARK                            x       y       z     vdW  Elec       q    Type
REMARK                         _______ _______ _______ _____ _____    ______ ____
ROOT
ATOM      1  S   UNL     1       0.888  -3.750  -0.208  0.00  0.00    -0.057 S 
ATOM      5  O   UNL     1      -3.404  -2.029  -0.782  0.00  0.00    -0.275 OA
ATOM      7  N   UNL     1      -0.496  -1.575  -0.421  0.00  0.00    -0.229 NA
ATOM      9  N   UNL     1      -1.712  -3.654  -0.537  0.00  0.00    -0.265 N 
ATOM     11  C   UNL     1       2.724   0.397   0.356  0.00  0.00    -0.019 C 
ATOM     12  C   UNL     1       3.655  -0.703  -0.321  0.00  0.00    +0.011 C 
ATOM     13  C   UNL     1       5.214  -0.492  -0.205  0.00  0.00    +0.021 C 
ATOM     14  C   UNL     1       1.252   0.234  -0.244  0.00  0.00    +0.054 C 
ATOM     15  C   UNL     1       3.247   1.810  -0.009  0.00  0.00    +0.010 C 
ATOM     16  C   UNL     1       5.558   0.983  -0.559  0.00  0.00    +0.123 C 
ATOM     17  C   UNL     1       3.189  -2.143   0.042  0.00  0.00    +0.049 C 
ATOM     18  C   UNL     1       4.739   1.998   0.231  0.00  0.00    +0.032 C 
ATOM     19  C   UNL     1       2.669   0.271   1.899  0.00  0.00    +0.012 C 
ATOM     20  C   UNL     1       0.826  -1.212  -0.250  0.00  0.00    +0.058 A 
ATOM     22  C   UNL     1       5.927  -1.396  -1.250  0.00  0.00    +0.016 C 
ATOM     23  C   UNL     1       1.714  -2.263  -0.139  0.00  0.00    +0.015 A 
ATOM     26  C   UNL     1      -0.584  -2.888  -0.408  0.00  0.00    +0.165 A 
ATOM     32  C   UNL     1      -3.028  -3.195  -0.712  0.00  0.00    +0.219 C 
ATOM     41  H   UNL     1      -1.554  -4.657  -0.495  0.00  0.00    +0.157 HD
ENDROOT
BRANCH  16   2
ATOM      2  O   UNL     1       6.945   1.242  -0.339  0.00  0.00    -0.391 OA
ATOM     39  H   UNL     1       7.121   2.157  -0.617  0.00  0.00    +0.210 HD
ENDBRANCH  16   2
BRANCH  13  21
ATOM     21  C   UNL     1       5.814  -0.884   1.163  0.00  0.00    +0.165 C 
BRANCH  21   3
ATOM      3  O   UNL     1       7.203  -0.651   1.108  0.00  0.00    -0.394 OA
ATOM     40  H   UNL     1       7.575  -0.909   1.968  0.00  0.00    +0.209 HD
ENDBRANCH  21   3
ENDBRANCH  13  21
BRANCH  14  24
ATOM     24  C   UNL     1       0.193   1.129   0.413  0.00  0.00    +0.106 C 
BRANCH  24  25
ATOM      4  O   UNL     1      -0.853   0.936  -1.704  0.00  0.00    -0.276 OA
ATOM      8  N   UNL     1      -1.965   2.210  -0.111  0.00  0.00    -0.301 N 
ATOM     25  C   UNL     1      -0.918   1.411  -0.567  0.00  0.00    +0.216 C 
ATOM     27  C   UNL     1      -3.100   2.497  -0.991  0.00  0.00    +0.108 C 
ATOM     28  C   UNL     1      -2.070   2.789   1.234  0.00  0.00    +0.108 C 
ATOM     29  C   UNL     1      -3.328   4.001  -1.114  0.00  0.00    +0.032 C 
ATOM     30  C   UNL     1      -2.276   4.300   1.158  0.00  0.00    +0.032 C 
ATOM     31  C   UNL     1      -3.469   4.652   0.265  0.00  0.00    +0.078 C 
BRANCH  31  33
ATOM      6  O   UNL     1      -3.013   6.736  -0.810  0.00  0.00    -0.276 OA
ATOM     10  N   UNL     1      -4.323   6.749   1.082  0.00  0.00    -0.329 N 
ATOM     33  C   UNL     1      -3.571   6.137   0.106  0.00  0.00    +0.214 C 
ATOM     42  H   UNL     1      -4.763   6.231   1.836  0.00  0.00    +0.145 HD
ATOM     43  H   UNL     1      -4.459   7.754   1.081  0.00  0.00    +0.145 HD
ENDBRANCH  31  33
ENDBRANCH  24  25
ENDBRANCH  14  24
BRANCH  32  34
ATOM     34  C   UNL     1      -4.039  -4.332  -0.813  0.00  0.00    +0.102 C 
BRANCH  34  35
ATOM     35  C   UNL     1      -4.715  -4.717   0.524  0.00  0.00    -0.029 C 
ATOM     36  C   UNL     1      -3.695  -5.255   1.540  0.00  0.00    +0.011 C 
ATOM     37  C   UNL     1      -5.745  -5.827   0.235  0.00  0.00    +0.011 C 
ATOM     38  C   UNL     1      -5.455  -3.516   1.137  0.00  0.00    +0.011 C 
ENDBRANCH  34  35
ENDBRANCH  32  34
TORSDOF 8
