REMARK  Name = 45783394
REMARK  9 active torsions:
REMARK  status: ('A' for Active; 'I' for Inactive)
REMARK    1  A    between atoms: O_2  and  C_28
REMARK    2  A    between atoms: O_2  and  C_29
REMARK    3  A    between atoms: N_3  and  C_12
REMARK    4  A    between atoms: N_6  and  C_26
REMARK    5  A    between atoms: C_8  and  C_13
REMARK    6  A    between atoms: C_12  and  C_14
REMARK    7  A    between atoms: C_17  and  C_20
REMARK    8  A    between atoms: C_21  and  C_23
REMARK    9  A    between atoms: C_26  and  C_28
REMARK                            x       y       z     vdW  Elec       q    Type
REMARK                         _______ _______ _______ _____ _____    ______ ____
ROOT
ATOM      1  O   UNL     1      -0.621   0.888   2.493  0.00  0.00    -0.336 OA
ATOM      4  N   UNL     1       0.088  -0.733   1.119  0.00  0.00    -0.190 NA
ATOM      5  N   UNL     1       0.761   1.072   2.353  0.00  0.00    -0.056 NA
ATOM     13  C   UNL     1      -0.934  -0.195   1.734  0.00  0.00    +0.245 A 
ATOM     17  C   UNL     1       1.106   0.078   1.529  0.00  0.00    +0.205 A 
ENDROOT
BRANCH  17  20
ATOM      6  N   UNL     1       1.716  -1.071  -0.997  0.00  0.00    -0.326 N 
ATOM      7  N   UNL     1       4.036  -0.902  -0.565  0.00  0.00    -0.240 NA
ATOM     20  C   UNL     1       2.458  -0.132   1.097  0.00  0.00    +0.062 A 
ATOM     22  C   UNL     1       2.773  -0.691  -0.131  0.00  0.00    +0.130 A 
ATOM     24  C   UNL     1       3.506   0.234   1.934  0.00  0.00    +0.016 A 
ATOM     25  C   UNL     1       4.819   0.034   1.523  0.00  0.00    +0.020 A 
ATOM     27  C   UNL     1       5.029  -0.533   0.276  0.00  0.00    +0.113 A 
ATOM     30  H   UNL     1       0.828  -0.602  -0.850  0.00  0.00    +0.148 HD
BRANCH   6  26
ATOM     26  C   UNL     1       1.942  -1.653  -2.278  0.00  0.00    +0.131 C 
BRANCH  26  28
ATOM     28  C   UNL     1       0.617  -1.913  -2.973  0.00  0.00    +0.178 C 
BRANCH  28   2
ATOM      2  O   UNL     1      -0.149  -2.832  -2.203  0.00  0.00    -0.381 OA
ATOM     29  C   UNL     1      -1.399  -3.112  -2.818  0.00  0.00    +0.194 C 
ENDBRANCH  28   2
ENDBRANCH  26  28
ENDBRANCH   6  26
ENDBRANCH  17  20
BRANCH  13   8
ATOM      3  N   UNL     1      -2.957  -0.630   0.351  0.00  0.00    -0.287 NA
ATOM      8  C   UNL     1      -2.392  -0.607   1.715  0.00  0.00    +0.146 C 
ATOM      9  C   UNL     1      -2.614  -2.031   2.256  0.00  0.00    +0.030 C 
ATOM     10  C   UNL     1      -3.364  -2.763   1.152  0.00  0.00    +0.017 C 
ATOM     11  C   UNL     1      -4.011  -1.645   0.359  0.00  0.00    +0.085 C 
BRANCH   3  12
ATOM     12  C   UNL     1      -3.450   0.668  -0.089  0.00  0.00    +0.120 C 
BRANCH  12  14
ATOM     14  C   UNL     1      -2.333   1.563  -0.556  0.00  0.00    -0.033 A 
ATOM     15  C   UNL     1      -2.124   2.797   0.060  0.00  0.00    +0.005 A 
ATOM     16  C   UNL     1      -1.509   1.159  -1.607  0.00  0.00    +0.005 A 
ATOM     18  C   UNL     1      -1.091   3.627  -0.375  0.00  0.00    +0.003 A 
ATOM     19  C   UNL     1      -0.476   1.989  -2.042  0.00  0.00    +0.003 A 
ATOM     21  C   UNL     1      -0.266   3.223  -1.426  0.00  0.00    -0.050 A 
ATOM     23  C   UNL     1       0.838   4.112  -1.891  0.00  0.00    +0.044 C 
ENDBRANCH  12  14
ENDBRANCH   3  12
ENDBRANCH  13   8
TORSDOF 7
