REMARK  Name = 38026852
REMARK  11 active torsions:
REMARK  status: ('A' for Active; 'I' for Inactive)
REMARK    1  A    between atoms: S_1  and  N_7
REMARK    2  A    between atoms: S_1  and  C_27
REMARK    3  A    between atoms: N_7  and  C_17
REMARK    4  A    between atoms: C_10  and  C_14
REMARK    5  A    between atoms: C_11  and  C_17
REMARK    6  A    between atoms: C_13  and  C_18
REMARK    7  A    between atoms: C_14  and  C_19
REMARK    8  A    between atoms: C_14  and  C_20
REMARK    9  A    between atoms: C_15  and  C_21
REMARK   10  A    between atoms: C_18  and  C_22
REMARK   11  A    between atoms: C_28  and  C_31
REMARK                            x       y       z     vdW  Elec       q    Type
REMARK                         _______ _______ _______ _____ _____    ______ ____
ROOT
ATOM     10  C   UNL     1      -0.676  -2.200  -0.577  0.00  0.00    +0.000 C 
ATOM     11  C   UNL     1      -1.806  -2.157   0.482  0.00  0.00    +0.030 C 
ATOM     12  C   UNL     1       0.568  -2.898  -0.005  0.00  0.00    +0.012 C 
ATOM     13  C   UNL     1       1.106  -2.191   1.253  0.00  0.00    +0.023 C 
ATOM     15  C   UNL     1      -0.003  -1.871   2.236  0.00  0.00    -0.073 C 
ATOM     16  C   UNL     1      -1.298  -1.874   1.876  0.00  0.00    -0.023 C 
ATOM     21  C   UNL     1       0.410  -1.591   3.654  0.00  0.00    +0.039 C 
ENDROOT
BRANCH  10  14
ATOM     14  C   UNL     1      -1.125  -2.909  -1.859  0.00  0.00    -0.013 C 
ATOM     19  C   UNL     1      -0.290  -2.440  -3.047  0.00  0.00    +0.007 C 
ATOM     20  C   UNL     1      -1.026  -4.422  -1.693  0.00  0.00    +0.007 C 
ENDBRANCH  10  14
BRANCH  11  17
ATOM     17  C   UNL     1      -2.875  -1.124   0.108  0.00  0.00    +0.113 C 
BRANCH  17   7
ATOM      7  N   UNL     1      -2.281   0.221   0.155  0.00  0.00    -0.189 NA
ATOM     35  H   UNL     1      -1.884   0.510   1.058  0.00  0.00    +0.148 HD
BRANCH   7   1
ATOM      1  S   UNL     1      -2.862   1.451  -0.871  0.00  0.00    +0.058 S 
ATOM      4  O   UNL     1      -2.826   0.986  -2.244  0.00  0.00    -0.153 OA
ATOM      5  O   UNL     1      -2.234   2.708  -0.509  0.00  0.00    -0.153 OA
BRANCH   1  27
ATOM      2  F   UNL     1      -8.513   1.818   0.777  0.00  0.00    -0.205 F 
ATOM     27  C   UNL     1      -4.556   1.561  -0.377  0.00  0.00    +0.105 A 
ATOM     29  C   UNL     1      -4.929   2.434   0.645  0.00  0.00    +0.031 A 
ATOM     30  C   UNL     1      -5.520   0.775  -1.009  0.00  0.00    +0.031 A 
ATOM     32  C   UNL     1      -6.266   2.521   1.035  0.00  0.00    +0.040 A 
ATOM     33  C   UNL     1      -6.856   0.862  -0.620  0.00  0.00    +0.040 A 
ATOM     34  C   UNL     1      -7.229   1.735   0.402  0.00  0.00    +0.124 A 
ENDBRANCH   1  27
ENDBRANCH   7   1
ENDBRANCH  17   7
ENDBRANCH  11  17
BRANCH  13  18
ATOM     18  C   UNL     1       1.893  -0.928   0.883  0.00  0.00    +0.103 C 
BRANCH  18  22
ATOM      3  O   UNL     1       3.542  -2.502   0.238  0.00  0.00    -0.276 OA
ATOM      6  O   UNL     1       6.613   3.932  -0.270  0.00  0.00    -0.276 OA
ATOM      8  N   UNL     1       4.070  -0.261  -0.072  0.00  0.00    -0.298 N 
ATOM      9  N   UNL     1       6.111   1.695   0.101  0.00  0.00    -0.299 N 
ATOM     22  C   UNL     1       3.239  -1.309   0.322  0.00  0.00    +0.216 C 
ATOM     23  C   UNL     1       5.396  -0.547  -0.625  0.00  0.00    +0.126 C 
ATOM     24  C   UNL     1       3.710   1.163  -0.055  0.00  0.00    +0.126 C 
ATOM     25  C   UNL     1       6.471   0.271   0.084  0.00  0.00    +0.126 C 
ATOM     26  C   UNL     1       4.785   1.981   0.655  0.00  0.00    +0.126 C 
ATOM     28  C   UNL     1       6.941   2.743  -0.294  0.00  0.00    +0.213 C 
ATOM     31  C   UNL     1       8.317   2.367  -0.780  0.00  0.00    +0.109 C 
ENDBRANCH  18  22
ENDBRANCH  13  18
TORSDOF 7
