REMARK  Name = 40777646
REMARK  11 active torsions:
REMARK  status: ('A' for Active; 'I' for Inactive)
REMARK    1  A    between atoms: N_2  and  C_8
REMARK    2  A    between atoms: N_2  and  C_14
REMARK    3  A    between atoms: N_3  and  C_17
REMARK    4  A    between atoms: N_5  and  C_25
REMARK    5  A    between atoms: N_5  and  C_30
REMARK    6  A    between atoms: N_5  and  C_31
REMARK    7  A    between atoms: C_6  and  C_9
REMARK    8  A    between atoms: C_12  and  C_15
REMARK    9  A    between atoms: C_13  and  C_16
REMARK   10  A    between atoms: C_14  and  C_18
REMARK   11  A    between atoms: C_28  and  C_29
REMARK                            x       y       z     vdW  Elec       q    Type
REMARK                         _______ _______ _______ _____ _____    ______ ____
ROOT
ATOM      6  C   UNL     1       0.308   0.842   0.233  0.00  0.00    +0.047 C 
ATOM      7  C   UNL     1      -0.262  -0.407  -0.464  0.00  0.00    +0.035 C 
ATOM      8  C   UNL     1      -1.333  -0.976   0.482  0.00  0.00    +0.078 C 
ATOM     10  C   UNL     1      -0.030   0.585   1.672  0.00  0.00    -0.021 C 
ATOM     11  C   UNL     1      -0.928  -0.398   1.802  0.00  0.00    -0.012 C 
ENDROOT
BRANCH   6   9
ATOM      3  N   UNL     1       3.947   0.845  -0.189  0.00  0.00    -0.236 N 
ATOM      4  N   UNL     1       3.716   2.049  -0.739  0.00  0.00    -0.171 NA
ATOM      9  C   UNL     1       1.779   1.060  -0.040  0.00  0.00    +0.003 A 
ATOM     12  C   UNL     1       2.820   0.211   0.246  0.00  0.00    +0.046 A 
ATOM     13  C   UNL     1       2.389   2.175  -0.646  0.00  0.00    +0.064 A 
ATOM     15  C   UNL     1       2.833  -1.121   0.882  0.00  0.00    +0.066 C 
ATOM     16  C   UNL     1       1.740   3.394  -1.157  0.00  0.00    +0.068 C 
BRANCH   3  17
ATOM      1 CL   UNL     1       7.290  -2.799  -1.454  0.00  0.00    -0.083 Cl
ATOM     17  C   UNL     1       5.253   0.361  -0.107  0.00  0.00    +0.067 A 
ATOM     19  C   UNL     1       5.596  -0.834  -0.740  0.00  0.00    +0.048 A 
ATOM     20  C   UNL     1       6.217   1.073   0.607  0.00  0.00    +0.028 A 
ATOM     26  C   UNL     1       6.902  -1.317  -0.658  0.00  0.00    +0.046 A 
ATOM     27  C   UNL     1       7.523   0.591   0.688  0.00  0.00    +0.007 A 
ATOM     28  C   UNL     1       7.866  -0.605   0.056  0.00  0.00    -0.032 A 
ATOM     29  C   UNL     1       9.276  -1.088   0.166  0.00  0.00    +0.045 C 
ENDBRANCH   3  17
ENDBRANCH   6   9
BRANCH   8   2
ATOM      2  N   UNL     1      -2.677  -0.553   0.104  0.00  0.00    -0.306 NA
ATOM     32  H   UNL     1      -2.798  -0.675  -0.901  0.00  0.00    +0.123 HD
BRANCH   2  14
ATOM     14  C   UNL     1      -3.687  -1.338   0.801  0.00  0.00    +0.116 C 
BRANCH  14  18
ATOM     18  C   UNL     1      -5.083  -0.908   0.435  0.00  0.00    -0.033 A 
ATOM     21  C   UNL     1      -5.615   0.264   0.973  0.00  0.00    +0.007 A 
ATOM     22  C   UNL     1      -5.843  -1.681  -0.442  0.00  0.00    +0.007 A 
ATOM     23  C   UNL     1      -6.908   0.663   0.634  0.00  0.00    +0.023 A 
ATOM     24  C   UNL     1      -7.136  -1.282  -0.781  0.00  0.00    +0.023 A 
ATOM     25  C   UNL     1      -7.668  -0.110  -0.243  0.00  0.00    +0.029 A 
BRANCH  25   5
ATOM      5  N   UNL     1      -8.976   0.293  -0.586  0.00  0.00    -0.336 N 
ATOM     30  C   UNL     1      -9.771  -0.499  -1.503  0.00  0.00    +0.129 C 
ATOM     31  C   UNL     1      -9.538   1.509  -0.033  0.00  0.00    +0.129 C 
ENDBRANCH  25   5
ENDBRANCH  14  18
ENDBRANCH   2  14
ENDBRANCH   8   2
TORSDOF 6
