REMARK  Name = 75536071
REMARK  8 active torsions:
REMARK  status: ('A' for Active; 'I' for Inactive)
REMARK    1  A    between atoms: O_1  and  C_9
REMARK    2  A    between atoms: O_2  and  C_11
REMARK    3  A    between atoms: O_4  and  C_24
REMARK    4  A    between atoms: O_4  and  C_25
REMARK    5  A    between atoms: N_5  and  C_8
REMARK    6  A    between atoms: C_7  and  C_12
REMARK    7  A    between atoms: C_14  and  C_16
REMARK    8  A    between atoms: C_16  and  C_19
REMARK                            x       y       z     vdW  Elec       q    Type
REMARK                         _______ _______ _______ _____ _____    ______ ____
ROOT
ATOM      7  C   UNL     1       2.254   0.140  -1.025  0.00  0.00    +0.046 C 
ATOM      8  C   UNL     1       2.260  -1.064  -0.056  0.00  0.00    +0.111 C 
ATOM      9  C   UNL     1       3.364  -1.962  -0.613  0.00  0.00    +0.164 C 
ATOM     10  C   UNL     1       3.662   0.168  -1.673  0.00  0.00    +0.044 C 
ATOM     11  C   UNL     1       4.445  -0.969  -1.020  0.00  0.00    +0.145 C 
ENDROOT
BRANCH   7  12
ATOM      6  N   UNL     1       2.265   3.097   1.351  0.00  0.00    -0.263 NA
ATOM     12  C   UNL     1       1.849   1.436  -0.355  0.00  0.00    -0.024 A 
ATOM     13  C   UNL     1       0.737   2.150  -0.790  0.00  0.00    +0.007 A 
ATOM     15  C   UNL     1       2.573   1.948   0.709  0.00  0.00    +0.114 A 
ATOM     17  C   UNL     1       0.389   3.337  -0.155  0.00  0.00    +0.020 A 
ATOM     18  C   UNL     1       1.178   3.764   0.901  0.00  0.00    +0.111 A 
ENDBRANCH   7  12
BRANCH   8   5
ATOM      3  O   UNL     1       0.106  -0.583   1.792  0.00  0.00    -0.275 OA
ATOM      5  N   UNL     1       0.986  -1.737  -0.022  0.00  0.00    -0.309 N 
ATOM     14  C   UNL     1       0.002  -1.435   0.913  0.00  0.00    +0.218 C 
ATOM     26  H   UNL     1       0.789  -2.414  -0.753  0.00  0.00    +0.149 HD
BRANCH  14  16
ATOM     16  C   UNL     1      -1.236  -2.288   0.716  0.00  0.00    +0.130 C 
BRANCH  16  19
ATOM     19  C   UNL     1      -2.475  -1.483   0.428  0.00  0.00    -0.038 A 
ATOM     20  C   UNL     1      -3.282  -1.044   1.477  0.00  0.00    +0.007 A 
ATOM     21  C   UNL     1      -2.816  -1.176  -0.890  0.00  0.00    +0.007 A 
ATOM     22  C   UNL     1      -4.430  -0.298   1.210  0.00  0.00    +0.046 A 
ATOM     23  C   UNL     1      -3.964  -0.430  -1.157  0.00  0.00    +0.046 A 
ATOM     24  C   UNL     1      -4.771   0.009  -0.108  0.00  0.00    +0.120 A 
BRANCH  24   4
ATOM      4  O   UNL     1      -5.890   0.738  -0.369  0.00  0.00    -0.495 OA
ATOM     25  C   UNL     1      -6.179   1.016  -1.738  0.00  0.00    +0.277 C 
ENDBRANCH  24   4
ENDBRANCH  16  19
ENDBRANCH  14  16
ENDBRANCH   8   5
BRANCH   9   1
ATOM      1  O   UNL     1       3.848  -2.878   0.352  0.00  0.00    -0.387 OA
ATOM     27  H   UNL     1       4.605  -3.344  -0.042  0.00  0.00    +0.210 HD
ENDBRANCH   9   1
BRANCH  11   2
ATOM      2  O   UNL     1       5.126  -0.458   0.122  0.00  0.00    -0.389 OA
ATOM     28  H   UNL     1       5.774   0.196  -0.192  0.00  0.00    +0.210 HD
ENDBRANCH  11   2
TORSDOF 7
