REMARK  Name = 71693982
REMARK  7 active torsions:
REMARK  status: ('A' for Active; 'I' for Inactive)
REMARK    1  A    between atoms: O_4  and  C_12
REMARK    2  A    between atoms: O_5  and  C_14
REMARK    3  A    between atoms: N_7  and  C_11
REMARK    4  A    between atoms: C_10  and  C_15
REMARK    5  A    between atoms: C_18  and  C_20
REMARK    6  A    between atoms: C_21  and  C_22
REMARK    7  A    between atoms: C_27  and  C_28
REMARK                            x       y       z     vdW  Elec       q    Type
REMARK                         _______ _______ _______ _____ _____    ______ ____
ROOT
ATOM     10  C   UNL     1       1.181   1.769   1.006  0.00  0.00    +0.046 C 
ATOM     11  C   UNL     1       0.193   2.156  -0.118  0.00  0.00    +0.112 C 
ATOM     12  C   UNL     1       0.078   3.674   0.018  0.00  0.00    +0.164 C 
ATOM     13  C   UNL     1       2.001   3.050   1.308  0.00  0.00    +0.044 C 
ATOM     14  C   UNL     1       1.508   4.104   0.318  0.00  0.00    +0.145 C 
ENDROOT
BRANCH  10  15
ATOM      8  N   UNL     1       2.704  -1.700   1.201  0.00  0.00    -0.251 NA
ATOM     15  C   UNL     1       2.021   0.556   0.665  0.00  0.00    -0.024 A 
ATOM     16  C   UNL     1       2.857   0.554  -0.446  0.00  0.00    +0.007 A 
ATOM     17  C   UNL     1       1.980  -0.585   1.449  0.00  0.00    +0.115 A 
ATOM     19  C   UNL     1       3.617  -0.575  -0.734  0.00  0.00    +0.032 A 
ATOM     21  C   UNL     1       3.505  -1.666   0.113  0.00  0.00    +0.144 A 
BRANCH  21  22
ATOM      1  F   UNL     1       3.543  -4.008  -0.372  0.00  0.00    -0.164 F 
ATOM      2  F   UNL     1       5.161  -3.230   0.844  0.00  0.00    -0.164 F 
ATOM      3  F   UNL     1       5.083  -2.771  -1.280  0.00  0.00    -0.164 F 
ATOM     22  C   UNL     1       4.306  -2.894  -0.166  0.00  0.00    +0.434 C 
ENDBRANCH  21  22
ENDBRANCH  10  15
BRANCH  11   7
ATOM      6  O   UNL     1      -0.620  -0.323  -1.317  0.00  0.00    -0.270 OA
ATOM      7  N   UNL     1      -1.082   1.504   0.035  0.00  0.00    -0.305 N 
ATOM     18  C   UNL     1      -1.386   0.300  -0.587  0.00  0.00    +0.244 C 
ATOM     29  H   UNL     1      -1.774   1.976   0.607  0.00  0.00    +0.149 HD
BRANCH  18  20
ATOM     20  C   UNL     1      -2.754  -0.229  -0.350  0.00  0.00    +0.037 A 
ATOM     23  C   UNL     1      -3.356  -1.056  -1.298  0.00  0.00    +0.014 A 
ATOM     24  C   UNL     1      -3.435   0.101   0.822  0.00  0.00    +0.014 A 
ATOM     25  C   UNL     1      -4.640  -1.554  -1.074  0.00  0.00    +0.019 A 
ATOM     26  C   UNL     1      -4.719  -0.397   1.046  0.00  0.00    +0.019 A 
ATOM     27  C   UNL     1      -5.321  -1.225   0.098  0.00  0.00    +0.052 A 
BRANCH  27  28
ATOM      9  N   UNL     1      -7.704  -2.149   0.512  0.00  0.00    -0.191 NA
ATOM     28  C   UNL     1      -6.636  -1.734   0.327  0.00  0.00    +0.099 C 
ENDBRANCH  27  28
ENDBRANCH  18  20
ENDBRANCH  11   7
BRANCH  12   4
ATOM      4  O   UNL     1      -0.401   4.283  -1.167  0.00  0.00    -0.387 OA
ATOM     30  H   UNL     1      -0.357   5.246  -1.038  0.00  0.00    +0.210 HD
ENDBRANCH  12   4
BRANCH  14   5
ATOM      5  O   UNL     1       2.316   4.044  -0.853  0.00  0.00    -0.389 OA
ATOM     31  H   UNL     1       3.222   4.289  -0.596  0.00  0.00    +0.210 HD
ENDBRANCH  14   5
TORSDOF 7
