REMARK  Name = 51136610
REMARK  10 active torsions:
REMARK  status: ('A' for Active; 'I' for Inactive)
REMARK    1  A    between atoms: O_3  and  C_19
REMARK    2  A    between atoms: O_5  and  C_26
REMARK    3  A    between atoms: O_5  and  C_31
REMARK    4  A    between atoms: O_6  and  C_27
REMARK    5  A    between atoms: O_6  and  C_32
REMARK    6  A    between atoms: C_9  and  C_13
REMARK    7  A    between atoms: C_10  and  C_15
REMARK    8  A    between atoms: C_13  and  C_16
REMARK    9  A    between atoms: C_15  and  C_19
REMARK   10  A    between atoms: C_17  and  C_23
REMARK                            x       y       z     vdW  Elec       q    Type
REMARK                         _______ _______ _______ _____ _____    ______ ____
ROOT
ATOM      2  O   UNL     1      -1.089   3.386  -1.999  0.00  0.00    -0.269 OA
ATOM      7  N   UNL     1      -2.079   2.073  -0.335  0.00  0.00    -0.297 N 
ATOM      9  C   UNL     1      -2.357  -0.128   0.785  0.00  0.00    +0.016 C 
ATOM     10  C   UNL     1      -3.723  -0.277   0.068  0.00  0.00    +0.006 C 
ATOM     11  C   UNL     1      -3.761   0.520  -1.247  0.00  0.00    +0.023 C 
ATOM     12  C   UNL     1      -2.011   1.363   0.950  0.00  0.00    +0.112 C 
ATOM     14  C   UNL     1      -3.367   1.977  -1.021  0.00  0.00    +0.108 C 
ATOM     17  C   UNL     1      -1.038   2.796  -0.921  0.00  0.00    +0.253 C 
ENDROOT
BRANCH  17  23
ATOM      1  S   UNL     1       1.653   2.258  -0.953  0.00  0.00    -0.092 S 
ATOM     23  C   UNL     1       0.240   2.869  -0.203  0.00  0.00    +0.074 A 
ATOM     28  C   UNL     1       0.499   3.381   1.049  0.00  0.00    +0.021 A 
ATOM     29  C   UNL     1       1.876   3.270   1.398  0.00  0.00    +0.008 A 
ATOM     30  C   UNL     1       2.616   2.678   0.399  0.00  0.00    +0.046 A 
ENDBRANCH  17  23
BRANCH   9  13
ATOM     13  C   UNL     1      -1.205  -0.868   0.092  0.00  0.00    +0.061 C 
BRANCH  13  16
ATOM      8  N   UNL     1      -0.389  -1.230   2.321  0.00  0.00    -0.287 NA
ATOM     16  C   UNL     1      -0.082  -1.102   1.073  0.00  0.00    +0.044 C 
ATOM     18  C   UNL     1       1.311  -1.167   0.562  0.00  0.00    +0.003 A 
ATOM     20  C   UNL     1       2.336  -0.996   1.502  0.00  0.00    -0.033 A 
ATOM     21  C   UNL     1       1.966  -0.747   2.934  0.00  0.00    +0.059 C 
ATOM     22  C   UNL     1       0.695  -1.518   3.266  0.00  0.00    +0.146 C 
ATOM     24  C   UNL     1       1.613  -1.373  -0.785  0.00  0.00    +0.059 A 
ATOM     25  C   UNL     1       3.668  -1.006   1.079  0.00  0.00    +0.053 A 
ATOM     26  C   UNL     1       2.947  -1.398  -1.195  0.00  0.00    +0.162 A 
ATOM     27  C   UNL     1       3.971  -1.211  -0.267  0.00  0.00    +0.162 A 
BRANCH  26   5
ATOM      5  O   UNL     1       3.237  -1.601  -2.511  0.00  0.00    -0.491 OA
ATOM     31  C   UNL     1       3.419  -2.952  -2.932  0.00  0.00    +0.277 C 
ENDBRANCH  26   5
BRANCH  27   6
ATOM      6  O   UNL     1       5.275  -1.226  -0.663  0.00  0.00    -0.491 OA
ATOM     32  C   UNL     1       5.848   0.021  -1.052  0.00  0.00    +0.277 C 
ENDBRANCH  27   6
ENDBRANCH  13  16
ENDBRANCH   9  13
BRANCH  10  15
ATOM     15  C   UNL     1      -4.119  -1.734  -0.174  0.00  0.00    +0.124 C 
BRANCH  15  19
ATOM      4  O   UNL     1      -6.435  -0.987  -0.316  0.00  0.00    -0.251 OA
ATOM     19  C   UNL     1      -5.605  -1.883  -0.349  0.00  0.00    +0.305 C 
BRANCH  19   3
ATOM      3  O   UNL     1      -5.912  -3.189  -0.556  0.00  0.00    -0.481 OA
ATOM     33  H   UNL     1      -6.877  -3.324  -0.675  0.00  0.00    +0.295 HD
ENDBRANCH  19   3
ENDBRANCH  15  19
ENDBRANCH  10  15
TORSDOF 8
