REMARK  Name = 75536889
REMARK  7 active torsions:
REMARK  status: ('A' for Active; 'I' for Inactive)
REMARK    1  A    between atoms: S_1  and  C_25
REMARK    2  A    between atoms: S_1  and  C_30
REMARK    3  A    between atoms: O_6  and  C_12
REMARK    4  A    between atoms: O_6  and  C_19
REMARK    5  A    between atoms: C_17  and  C_18
REMARK    6  A    between atoms: C_20  and  C_28
REMARK    7  A    between atoms: C_22  and  C_29
REMARK                            x       y       z     vdW  Elec       q    Type
REMARK                         _______ _______ _______ _____ _____    ______ ____
ROOT
ATOM      5  O   UNL     1       4.500   2.310  -0.470  0.00  0.00    -0.375 OA
ATOM      8  O   UNL     1       3.029  -2.473  -0.168  0.00  0.00    -0.270 OA
ATOM     11  N   UNL     1       3.124  -0.226   0.493  0.00  0.00    -0.292 N 
ATOM     12  C   UNL     1       2.060   1.941  -0.030  0.00  0.00    +0.216 C 
ATOM     13  C   UNL     1       2.466   0.959   1.067  0.00  0.00    +0.155 C 
ATOM     14  C   UNL     1       4.502  -0.045   0.029  0.00  0.00    +0.136 C 
ATOM     15  C   UNL     1       3.192   2.868  -0.482  0.00  0.00    +0.206 C 
ATOM     16  C   UNL     1       4.616   1.019  -1.058  0.00  0.00    +0.179 C 
ATOM     17  C   UNL     1       2.512  -1.477   0.336  0.00  0.00    +0.250 C 
ENDROOT
BRANCH  17  18
ATOM      7  O   UNL     1      -1.079  -2.048   0.765  0.00  0.00    -0.455 OA
ATOM     18  C   UNL     1       1.130  -1.636   0.805  0.00  0.00    +0.087 A 
ATOM     20  C   UNL     1       0.057  -1.988   0.021  0.00  0.00    +0.220 A 
ATOM     21  C   UNL     1       0.622  -1.469   2.116  0.00  0.00    +0.058 A 
ATOM     22  C   UNL     1      -0.726  -1.730   2.038  0.00  0.00    +0.103 A 
ATOM     29  C   UNL     1      -1.809  -1.733   3.032  0.00  0.00    +0.086 C 
BRANCH  20  28
ATOM      2  F   UNL     1       1.084  -2.223  -2.110  0.00  0.00    -0.163 F 
ATOM      3  F   UNL     1      -0.572  -3.561  -1.668  0.00  0.00    -0.163 F 
ATOM      4  F   UNL     1      -0.955  -1.467  -2.083  0.00  0.00    -0.163 F 
ATOM     28  C   UNL     1      -0.094  -2.299  -1.409  0.00  0.00    +0.451 C 
ENDBRANCH  20  28
ENDBRANCH  17  18
BRANCH  12   6
ATOM      6  O   UNL     1       0.972   2.734   0.441  0.00  0.00    -0.485 OA
BRANCH   6  19
ATOM     19  C   UNL     1      -0.283   2.230   0.242  0.00  0.00    +0.121 A 
ATOM     23  C   UNL     1      -1.113   1.974   1.334  0.00  0.00    +0.047 A 
ATOM     24  C   UNL     1      -0.734   1.970  -1.052  0.00  0.00    +0.047 A 
ATOM     25  C   UNL     1      -2.844   1.201  -0.163  0.00  0.00    +0.088 A 
ATOM     26  C   UNL     1      -2.394   1.460   1.131  0.00  0.00    +0.030 A 
ATOM     27  C   UNL     1      -2.014   1.456  -1.255  0.00  0.00    +0.030 A 
BRANCH  25   1
ATOM      1  S   UNL     1      -4.446   0.553  -0.417  0.00  0.00    -0.006 S 
ATOM      9  O   UNL     1      -4.475  -0.144  -1.696  0.00  0.00    -0.170 OA
ATOM     10  O   UNL     1      -4.844  -0.145   0.796  0.00  0.00    -0.170 OA
ATOM     30  C   UNL     1      -5.482   1.989  -0.587  0.00  0.00    +0.200 C 
ENDBRANCH  25   1
ENDBRANCH   6  19
ENDBRANCH  12   6
TORSDOF 5
