REMARK  Name = 38030690
REMARK  12 active torsions:
REMARK  status: ('A' for Active; 'I' for Inactive)
REMARK    1  A    between atoms: N_2  and  C_13
REMARK    2  A    between atoms: N_2  and  C_19
REMARK    3  A    between atoms: C_6  and  C_10
REMARK    4  A    between atoms: C_7  and  C_13
REMARK    5  A    between atoms: C_9  and  C_14
REMARK    6  A    between atoms: C_10  and  C_15
REMARK    7  A    between atoms: C_10  and  C_16
REMARK    8  A    between atoms: C_11  and  C_17
REMARK    9  A    between atoms: C_14  and  C_18
REMARK   10  A    between atoms: C_19  and  C_20
REMARK   11  A    between atoms: C_21  and  C_23
REMARK   12  A    between atoms: C_31  and  C_32
REMARK                            x       y       z     vdW  Elec       q    Type
REMARK                         _______ _______ _______ _____ _____    ______ ____
ROOT
ATOM      6  C   UNL     1       3.366  -0.479  -0.759  0.00  0.00    +0.000 C 
ATOM      7  C   UNL     1       3.448  -0.543   0.783  0.00  0.00    +0.029 C 
ATOM      8  C   UNL     1       2.350   0.584  -1.200  0.00  0.00    +0.012 C 
ATOM      9  C   UNL     1       2.656   1.991  -0.643  0.00  0.00    +0.024 C 
ATOM     11  C   UNL     1       3.150   1.967   0.796  0.00  0.00    -0.073 C 
ATOM     12  C   UNL     1       3.487   0.823   1.419  0.00  0.00    -0.023 C 
ATOM     17  C   UNL     1       3.309   3.288   1.498  0.00  0.00    +0.039 C 
ENDROOT
BRANCH   6  10
ATOM     10  C   UNL     1       4.745  -0.221  -1.383  0.00  0.00    -0.013 C 
ATOM     15  C   UNL     1       4.648  -0.218  -2.905  0.00  0.00    +0.007 C 
ATOM     16  C   UNL     1       5.748  -1.266  -0.906  0.00  0.00    +0.007 C 
ENDBRANCH   6  10
BRANCH   7  13
ATOM     13  C   UNL     1       2.284  -1.343   1.379  0.00  0.00    +0.089 C 
BRANCH  13   2
ATOM      2  N   UNL     1       2.231  -2.676   0.805  0.00  0.00    -0.310 NA
ATOM     33  H   UNL     1       3.105  -3.160   1.013  0.00  0.00    +0.122 HD
BRANCH   2  19
ATOM     19  C   UNL     1       1.120  -3.441   1.359  0.00  0.00    +0.136 C 
BRANCH  19  20
ATOM      5  N   UNL     1      -0.278  -3.232  -0.622  0.00  0.00    -0.259 NA
ATOM     20  C   UNL     1      -0.191  -3.070   0.718  0.00  0.00    +0.055 A 
ATOM     22  C   UNL     1      -1.222  -2.593   1.510  0.00  0.00    +0.024 A 
ATOM     24  C   UNL     1      -2.420  -2.260   0.888  0.00  0.00    +0.003 A 
ATOM     25  C   UNL     1      -1.458  -2.899  -1.191  0.00  0.00    +0.111 A 
ATOM     28  C   UNL     1      -2.549  -2.413  -0.488  0.00  0.00    +0.020 A 
ENDBRANCH  19  20
ENDBRANCH   2  19
ENDBRANCH  13   2
ENDBRANCH   7  13
BRANCH   9  14
ATOM     14  C   UNL     1       1.416   2.873  -0.833  0.00  0.00    +0.105 C 
BRANCH  14  18
ATOM      1  O   UNL     1      -0.877   2.057  -0.652  0.00  0.00    -0.420 OA
ATOM      3  N   UNL     1       0.187   2.241   1.307  0.00  0.00    -0.112 NA
ATOM      4  N   UNL     1      -1.089   1.773   1.557  0.00  0.00    -0.107 NA
ATOM     18  C   UNL     1       0.267   2.393   0.006  0.00  0.00    +0.218 A 
ATOM     21  C   UNL     1      -1.674   1.681   0.385  0.00  0.00    +0.248 A 
BRANCH  21  23
ATOM     23  C   UNL     1      -2.997   1.253   0.036  0.00  0.00    +0.038 A 
ATOM     26  C   UNL     1      -3.276   0.841  -1.267  0.00  0.00    +0.013 A 
ATOM     27  C   UNL     1      -4.006   1.247   1.000  0.00  0.00    +0.013 A 
ATOM     29  C   UNL     1      -4.563   0.423  -1.607  0.00  0.00    +0.004 A 
ATOM     30  C   UNL     1      -5.293   0.830   0.660  0.00  0.00    +0.004 A 
ATOM     31  C   UNL     1      -5.571   0.418  -0.643  0.00  0.00    -0.050 A 
ATOM     32  C   UNL     1      -6.947  -0.028  -1.006  0.00  0.00    +0.044 C 
ENDBRANCH  21  23
ENDBRANCH  14  18
ENDBRANCH   9  14
TORSDOF 8
