REMARK  Name = 7662800
REMARK  5 active torsions:
REMARK  status: ('A' for Active; 'I' for Inactive)
REMARK    1  A    between atoms: S_1  and  C_20
REMARK    2  A    between atoms: S_1  and  C_26
REMARK    3  A    between atoms: C_14  and  C_19
REMARK    4  A    between atoms: C_16  and  C_20
REMARK    5  A    between atoms: C_23  and  C_27
REMARK                            x       y       z     vdW  Elec       q    Type
REMARK                         _______ _______ _______ _____ _____    ______ ____
ROOT
ATOM      2  O   UNL     1      -3.193   2.070   2.281  0.00  0.00    -0.268 OA
ATOM      3  O   UNL     1      -3.220  -2.604  -0.148  0.00  0.00    -0.275 OA
ATOM      4  N   UNL     1      -1.844  -1.129  -1.301  0.00  0.00    -0.300 N 
ATOM      5  N   UNL     1      -1.846   1.533   0.442  0.00  0.00    -0.311 N 
ATOM      7  C   UNL     1      -2.854   1.075  -1.870  0.00  0.00    +0.027 C 
ATOM      8  C   UNL     1      -0.425   0.903  -1.534  0.00  0.00    +0.054 C 
ATOM      9  C   UNL     1      -1.508   1.554  -2.392  0.00  0.00    +0.018 C 
ATOM     10  C   UNL     1      -2.961  -0.456  -1.962  0.00  0.00    +0.113 C 
ATOM     11  C   UNL     1      -3.024   1.575  -0.435  0.00  0.00    +0.130 C 
ATOM     12  C   UNL     1      -0.513  -0.631  -1.674  0.00  0.00    +0.117 C 
ATOM     13  C   UNL     1      -0.549   1.309  -0.063  0.00  0.00    +0.034 A 
ATOM     14  C   UNL     1       0.526   1.429   0.758  0.00  0.00    +0.002 A 
ATOM     15  C   UNL     1      -2.085   1.851   1.791  0.00  0.00    +0.252 A 
ATOM     16  C   UNL     1      -2.092  -2.203  -0.447  0.00  0.00    +0.225 C 
ATOM     17  C   UNL     1       0.318   1.752   2.157  0.00  0.00    +0.015 A 
ATOM     18  C   UNL     1      -0.897   1.940   2.670  0.00  0.00    +0.071 A 
ENDROOT
BRANCH  14  19
ATOM     19  C   UNL     1       1.907   1.221   0.269  0.00  0.00    -0.015 A 
ATOM     21  C   UNL     1       2.469  -0.052   0.300  0.00  0.00    +0.027 A 
ATOM     22  C   UNL     1       2.636   2.302  -0.218  0.00  0.00    +0.008 A 
ATOM     23  C   UNL     1       3.771  -0.245  -0.160  0.00  0.00    +0.052 A 
ATOM     24  C   UNL     1       3.939   2.108  -0.678  0.00  0.00    +0.002 A 
ATOM     25  C   UNL     1       4.506   0.835  -0.649  0.00  0.00    +0.019 A 
BRANCH  23  27
ATOM      6  N   UNL     1       4.826  -2.611  -0.106  0.00  0.00    -0.191 NA
ATOM     27  C   UNL     1       4.353  -1.550  -0.130  0.00  0.00    +0.099 C 
ENDBRANCH  23  27
ENDBRANCH  14  19
BRANCH  16  20
ATOM     20  C   UNL     1      -0.886  -2.892   0.140  0.00  0.00    +0.164 C 
BRANCH  20   1
ATOM      1  S   UNL     1      -1.476  -4.220   1.200  0.00  0.00    -0.155 S 
ATOM     26  C   UNL     1       0.121  -4.863   1.759  0.00  0.00    +0.085 C 
ENDBRANCH  20   1
ENDBRANCH  16  20
TORSDOF 4
