REMARK  Name = 7134341
REMARK  14 active torsions:
REMARK  status: ('A' for Active; 'I' for Inactive)
REMARK    1  A    between atoms: S_1  and  C_24
REMARK    2  A    between atoms: S_1  and  C_30
REMARK    3  A    between atoms: O_6  and  C_33
REMARK    4  A    between atoms: N_9  and  C_14
REMARK    5  A    between atoms: N_10  and  C_21
REMARK    6  A    between atoms: C_15  and  C_19
REMARK    7  A    between atoms: C_20  and  C_24
REMARK    8  A    between atoms: C_21  and  C_22
REMARK    9  A    between atoms: C_21  and  C_26
REMARK   10  A    between atoms: C_22  and  C_23
REMARK   11  A    between atoms: C_23  and  C_27
REMARK   12  A    between atoms: C_23  and  C_28
REMARK   13  A    between atoms: C_25  and  C_29
REMARK   14  A    between atoms: C_30  and  C_33
REMARK                            x       y       z     vdW  Elec       q    Type
REMARK                         _______ _______ _______ _____ _____    ______ ____
ROOT
ATOM      3  O   UNL     1       3.232  -2.889   2.636  0.00  0.00    -0.275 OA
ATOM      8  N   UNL     1       1.638  -1.601   1.532  0.00  0.00    -0.289 N 
ATOM     14  C   UNL     1      -1.179  -0.977   1.088  0.00  0.00    +0.077 C 
ATOM     15  C   UNL     1       1.280  -0.660   0.458  0.00  0.00    +0.164 C 
ATOM     16  C   UNL     1      -0.156  -0.834  -0.042  0.00  0.00    +0.054 C 
ATOM     17  C   UNL     1      -0.740  -2.064   2.066  0.00  0.00    +0.041 C 
ATOM     18  C   UNL     1       0.654  -1.776   2.607  0.00  0.00    +0.110 C 
ATOM     20  C   UNL     1       2.892  -2.208   1.665  0.00  0.00    +0.226 C 
ENDROOT
BRANCH  15  19
ATOM      2  O   UNL     1       1.917   0.914   2.138  0.00  0.00    -0.274 OA
ATOM     10  N   UNL     1       1.247   1.702   0.053  0.00  0.00    -0.302 N 
ATOM     19  C   UNL     1       1.528   0.722   0.989  0.00  0.00    +0.234 C 
ATOM     36  H   UNL     1       1.052   1.428  -0.906  0.00  0.00    +0.150 HD
BRANCH  10  21
ATOM     21  C   UNL     1       1.382   3.115   0.322  0.00  0.00    +0.159 C 
BRANCH  21  26
ATOM      5  O   UNL     1       3.501   2.978  -0.863  0.00  0.00    -0.274 OA
ATOM     11  N   UNL     1       3.296   4.498   0.847  0.00  0.00    -0.328 N 
ATOM     26  C   UNL     1       2.830   3.488   0.032  0.00  0.00    +0.231 C 
ATOM     37  H   UNL     1       4.242   4.851   0.749  0.00  0.00    +0.145 HD
ATOM     38  H   UNL     1       2.723   4.926   1.567  0.00  0.00    +0.145 HD
ENDBRANCH  21  26
BRANCH  21  22
ATOM     22  C   UNL     1       0.433   3.964  -0.533  0.00  0.00    +0.034 C 
BRANCH  22  23
ATOM     23  C   UNL     1      -1.062   3.621  -0.373  0.00  0.00    -0.015 C 
ATOM     27  C   UNL     1      -1.552   3.804   1.064  0.00  0.00    +0.007 C 
ATOM     28  C   UNL     1      -1.895   4.494  -1.316  0.00  0.00    +0.007 C 
ENDBRANCH  22  23
ENDBRANCH  21  22
ENDBRANCH  10  21
ENDBRANCH  15  19
BRANCH  14   9
ATOM      4  O   UNL     1      -3.174   0.932   0.301  0.00  0.00    -0.268 OA
ATOM      9  N   UNL     1      -2.490  -1.268   0.559  0.00  0.00    -0.307 N 
ATOM     25  C   UNL     1      -3.389  -0.273   0.206  0.00  0.00    +0.264 C 
ATOM     35  H   UNL     1      -2.745  -2.240   0.406  0.00  0.00    +0.149 HD
BRANCH  25  29
ATOM     12  N   UNL     1      -4.894  -2.071  -0.361  0.00  0.00    -0.247 NA
ATOM     13  N   UNL     1      -6.884  -0.254  -1.141  0.00  0.00    -0.259 NA
ATOM     29  C   UNL     1      -4.707  -0.737  -0.298  0.00  0.00    +0.143 A 
ATOM     31  C   UNL     1      -5.684   0.155  -0.681  0.00  0.00    +0.143 A 
ATOM     32  C   UNL     1      -6.093  -2.480  -0.820  0.00  0.00    +0.131 A 
ATOM     34  C   UNL     1      -7.071  -1.588  -1.203  0.00  0.00    +0.130 A 
ENDBRANCH  25  29
ENDBRANCH  14   9
BRANCH  20  24
ATOM     24  C   UNL     1       3.866  -2.011   0.530  0.00  0.00    +0.165 C 
BRANCH  24   1
ATOM      1  S   UNL     1       3.623  -3.355  -0.639  0.00  0.00    -0.140 S 
BRANCH   1  30
ATOM     30  C   UNL     1       4.874  -2.893  -1.863  0.00  0.00    +0.189 C 
BRANCH  30  33
ATOM      7  O   UNL     1       3.146  -1.675  -3.020  0.00  0.00    -0.250 OA
ATOM     33  C   UNL     1       4.332  -1.806  -2.745  0.00  0.00    +0.315 C 
BRANCH  33   6
ATOM      6  O   UNL     1       5.298  -0.967  -3.197  0.00  0.00    -0.480 OA
ATOM     39  H   UNL     1       4.930  -0.257  -3.765  0.00  0.00    +0.295 HD
ENDBRANCH  33   6
ENDBRANCH  30  33
ENDBRANCH   1  30
ENDBRANCH  24   1
ENDBRANCH  20  24
TORSDOF 12
