REMARK  Name = 7155545
REMARK  4 active torsions:
REMARK  status: ('A' for Active; 'I' for Inactive)
REMARK    1  A    between atoms: N_8  and  C_19
REMARK    2  A    between atoms: C_18  and  C_21
REMARK    3  A    between atoms: C_21  and  C_22
REMARK    4  A    between atoms: C_23  and  C_27
REMARK                            x       y       z     vdW  Elec       q    Type
REMARK                         _______ _______ _______ _____ _____    ______ ____
ROOT
ATOM      3  O   UNL     1       1.226   1.562   2.005  0.00  0.00    -0.266 OA
ATOM      4  O   UNL     1      -3.474  -0.936   1.413  0.00  0.00    -0.275 OA
ATOM      6  N   UNL     1      -3.335   0.905   0.003  0.00  0.00    -0.300 N 
ATOM      7  N   UNL     1      -0.407   2.116   0.427  0.00  0.00    -0.310 N 
ATOM      9  C   UNL     1      -2.693   3.068   1.076  0.00  0.00    +0.027 C 
ATOM     10  C   UNL     1      -2.161   2.676  -1.293  0.00  0.00    +0.054 C 
ATOM     11  C   UNL     1      -2.654   3.725  -0.299  0.00  0.00    +0.018 C 
ATOM     12  C   UNL     1      -3.646   1.860   1.069  0.00  0.00    +0.113 C 
ATOM     13  C   UNL     1      -1.267   2.675   1.479  0.00  0.00    +0.130 C 
ATOM     14  C   UNL     1      -3.151   1.495  -1.331  0.00  0.00    +0.117 C 
ATOM     15  C   UNL     1      -0.778   2.176  -0.920  0.00  0.00    +0.027 A 
ATOM     16  C   UNL     1       0.074   1.765  -1.874  0.00  0.00    +0.024 A 
ATOM     17  C   UNL     1       0.848   1.618   0.834  0.00  0.00    +0.273 A 
ATOM     18  C   UNL     1      -3.317  -0.461   0.285  0.00  0.00    +0.220 C 
ATOM     19  C   UNL     1       1.758   1.148  -0.258  0.00  0.00    +0.099 A 
ATOM     20  C   UNL     1       1.366   1.240  -1.534  0.00  0.00    +0.030 A 
ENDROOT
BRANCH  19   8
ATOM      5  O   UNL     1       3.265  -0.793  -1.710  0.00  0.00    -0.269 OA
ATOM      8  N   UNL     1       2.975   0.645   0.095  0.00  0.00    -0.277 N 
ATOM     23  C   UNL     1       3.660  -0.300  -0.656  0.00  0.00    +0.255 C 
ATOM     31  H   UNL     1       3.299   0.839   1.039  0.00  0.00    +0.155 HD
BRANCH  23  27
ATOM      2  S   UNL     1       5.498   0.008   1.312  0.00  0.00    -0.092 S 
ATOM     27  C   UNL     1       4.985  -0.710  -0.123  0.00  0.00    +0.074 A 
ATOM     28  C   UNL     1       5.830  -1.601  -0.664  0.00  0.00    +0.021 A 
ATOM     29  C   UNL     1       6.997  -1.721   0.145  0.00  0.00    +0.008 A 
ATOM     30  C   UNL     1       6.948  -0.901   1.251  0.00  0.00    +0.046 A 
ENDBRANCH  23  27
ENDBRANCH  19   8
BRANCH  18  21
ATOM     21  C   UNL     1      -3.083  -1.389  -0.879  0.00  0.00    +0.138 C 
BRANCH  21  22
ATOM      1  S   UNL     1      -1.749  -3.777  -0.518  0.00  0.00    -0.101 S 
ATOM     22  C   UNL     1      -3.133  -2.793  -0.369  0.00  0.00    -0.001 A 
ATOM     24  C   UNL     1      -4.183  -3.434   0.229  0.00  0.00    +0.011 A 
ATOM     25  C   UNL     1      -3.847  -4.774   0.579  0.00  0.00    +0.008 A 
ATOM     26  C   UNL     1      -2.553  -5.091   0.229  0.00  0.00    +0.045 A 
ENDBRANCH  21  22
ENDBRANCH  18  21
TORSDOF 4
