REMARK  Name = 26743195
REMARK  13 active torsions:
REMARK  status: ('A' for Active; 'I' for Inactive)
REMARK    1  A    between atoms: O_3  and  C_21
REMARK    2  A    between atoms: O_3  and  C_28
REMARK    3  A    between atoms: O_4  and  C_25
REMARK    4  A    between atoms: O_4  and  C_33
REMARK    5  A    between atoms: O_5  and  C_27
REMARK    6  A    between atoms: O_5  and  C_34
REMARK    7  A    between atoms: N_7  and  C_20
REMARK    8  A    between atoms: C_9  and  C_15
REMARK    9  A    between atoms: C_10  and  C_14
REMARK   10  A    between atoms: C_14  and  C_16
REMARK   11  A    between atoms: C_15  and  C_17
REMARK   12  A    between atoms: C_19  and  C_21
REMARK   13  A    between atoms: C_20  and  C_22
REMARK                            x       y       z     vdW  Elec       q    Type
REMARK                         _______ _______ _______ _____ _____    ______ ____
ROOT
ATOM      6  N   UNL     1       6.712  -0.303   1.151  0.00  0.00    -0.316 NA
ATOM      9  C   UNL     1       3.885   0.093   0.404  0.00  0.00    +0.004 C 
ATOM     10  C   UNL     1       4.635  -1.239   0.163  0.00  0.00    +0.012 C 
ATOM     11  C   UNL     1       4.566   0.851   1.556  0.00  0.00    +0.019 C 
ATOM     12  C   UNL     1       6.149  -1.018   0.005  0.00  0.00    +0.085 C 
ATOM     13  C   UNL     1       6.073   0.996   1.348  0.00  0.00    +0.081 C 
ATOM     36  H   UNL     1       7.712  -0.169   1.005  0.00  0.00    +0.122 HD
ENDROOT
BRANCH  10  14
ATOM     14  C   UNL     1       4.081  -2.033  -1.021  0.00  0.00    +0.064 C 
BRANCH  14  16
ATOM      2  O   UNL     1       0.864  -3.439  -0.223  0.00  0.00    -0.356 OA
ATOM      8  N   UNL     1       2.254  -3.469  -0.224  0.00  0.00    -0.083 NA
ATOM     16  C   UNL     1       2.623  -2.342  -0.839  0.00  0.00    +0.084 A 
ATOM     18  C   UNL     1       1.522  -1.569  -1.245  0.00  0.00    +0.074 A 
ATOM     19  C   UNL     1       0.440  -2.303  -0.834  0.00  0.00    +0.175 A 
BRANCH  19  21
ATOM     21  C   UNL     1      -1.012  -2.109  -0.922  0.00  0.00    +0.306 C 
BRANCH  21   3
ATOM      3  O   UNL     1      -1.588  -2.076   0.387  0.00  0.00    -0.484 OA
BRANCH   3  28
ATOM     28  C   UNL     1      -2.949  -1.966   0.451  0.00  0.00    +0.121 A 
ATOM     29  C   UNL     1      -3.698  -1.892  -0.723  0.00  0.00    +0.045 A 
ATOM     30  C   UNL     1      -3.588  -1.926   1.690  0.00  0.00    +0.045 A 
ATOM     31  C   UNL     1      -5.087  -1.780  -0.658  0.00  0.00    +0.004 A 
ATOM     32  C   UNL     1      -4.976  -1.814   1.755  0.00  0.00    +0.004 A 
ATOM     35  C   UNL     1      -5.726  -1.740   0.581  0.00  0.00    +0.000 A 
ENDBRANCH   3  28
ENDBRANCH  21   3
ENDBRANCH  19  21
ENDBRANCH  14  16
ENDBRANCH  10  14
BRANCH   9  15
ATOM     15  C   UNL     1       3.773   0.979  -0.842  0.00  0.00    +0.099 C 
BRANCH  15  17
ATOM      1  O   UNL     1       3.505   3.379  -0.697  0.00  0.00    -0.276 OA
ATOM      7  N   UNL     1       1.717   1.996  -0.155  0.00  0.00    -0.311 N 
ATOM     17  C   UNL     1       3.015   2.261  -0.567  0.00  0.00    +0.214 C 
ATOM     37  H   UNL     1       1.405   1.035  -0.063  0.00  0.00    +0.149 HD
BRANCH   7  20
ATOM     20  C   UNL     1       0.768   3.034   0.177  0.00  0.00    +0.139 C 
BRANCH  20  22
ATOM     22  C   UNL     1      -0.645   2.616  -0.109  0.00  0.00    -0.027 A 
ATOM     23  C   UNL     1      -1.494   2.261   0.940  0.00  0.00    +0.054 A 
ATOM     24  C   UNL     1      -1.111   2.584  -1.424  0.00  0.00    +0.009 A 
ATOM     25  C   UNL     1      -2.807   1.875   0.674  0.00  0.00    +0.162 A 
ATOM     26  C   UNL     1      -2.424   2.197  -1.690  0.00  0.00    +0.050 A 
ATOM     27  C   UNL     1      -3.272   1.842  -0.640  0.00  0.00    +0.162 A 
BRANCH  25   4
ATOM      4  O   UNL     1      -3.627   1.532   1.707  0.00  0.00    -0.491 OA
ATOM     33  C   UNL     1      -3.074   1.592   3.020  0.00  0.00    +0.277 C 
ENDBRANCH  25   4
BRANCH  27   5
ATOM      5  O   UNL     1      -4.553   1.467  -0.913  0.00  0.00    -0.491 OA
ATOM     34  C   UNL     1      -4.949   1.461  -2.283  0.00  0.00    +0.277 C 
ENDBRANCH  27   5
ENDBRANCH  20  22
ENDBRANCH   7  20
ENDBRANCH  15  17
ENDBRANCH   9  15
TORSDOF 11
