REMARK  Name = 25339708
REMARK  11 active torsions:
REMARK  status: ('A' for Active; 'I' for Inactive)
REMARK    1  A    between atoms: O_1  and  C_14
REMARK    2  A    between atoms: N_5  and  C_10
REMARK    3  A    between atoms: N_6  and  C_26
REMARK    4  A    between atoms: C_7  and  C_15
REMARK    5  A    between atoms: C_9  and  C_17
REMARK    6  A    between atoms: C_9  and  C_18
REMARK    7  A    between atoms: C_14  and  C_20
REMARK    8  A    between atoms: C_15  and  C_19
REMARK    9  A    between atoms: C_19  and  C_22
REMARK   10  A    between atoms: C_21  and  C_23
REMARK   11  A    between atoms: C_26  and  C_29
REMARK                            x       y       z     vdW  Elec       q    Type
REMARK                         _______ _______ _______ _____ _____    ______ ____
ROOT
ATOM      7  C   UNL     1       0.577  -1.210  -0.139  0.00  0.00    -0.007 C 
ATOM      8  C   UNL     1       0.316  -2.603   0.526  0.00  0.00    +0.005 C 
ATOM      9  C   UNL     1       1.012  -2.522   1.942  0.00  0.00    -0.030 C 
ATOM     10  C   UNL     1       2.021  -0.938   0.345  0.00  0.00    +0.080 C 
ATOM     11  C   UNL     1       1.993  -1.322   1.832  0.00  0.00    +0.029 C 
ATOM     12  C   UNL     1       0.417  -1.203  -1.678  0.00  0.00    +0.012 C 
ATOM     13  C   UNL     1       0.837  -3.788  -0.325  0.00  0.00    +0.039 C 
ATOM     14  C   UNL     1       0.446  -3.720  -1.802  0.00  0.00    +0.064 C 
ATOM     16  C   UNL     1       0.982  -2.419  -2.400  0.00  0.00    +0.035 C 
ATOM     17  C   UNL     1      -0.039  -2.273   3.044  0.00  0.00    +0.011 C 
ATOM     18  C   UNL     1       1.790  -3.782   2.373  0.00  0.00    +0.011 C 
ATOM     20  C   UNL     1       0.997  -4.929  -2.560  0.00  0.00    +0.041 C 
ENDROOT
BRANCH  10   5
ATOM      2  O   UNL     1       4.758  -0.100   0.008  0.00  0.00    -0.270 OA
ATOM      5  N   UNL     1       2.502   0.423   0.147  0.00  0.00    -0.308 N 
ATOM     21  C   UNL     1       3.850   0.727  -0.006  0.00  0.00    +0.244 C 
ATOM     34  H   UNL     1       1.825   1.172   0.240  0.00  0.00    +0.149 HD
BRANCH  21  23
ATOM     23  C   UNL     1       4.180   2.166  -0.172  0.00  0.00    +0.037 A 
ATOM     24  C   UNL     1       5.430   2.644   0.219  0.00  0.00    +0.013 A 
ATOM     25  C   UNL     1       3.239   3.038  -0.720  0.00  0.00    +0.013 A 
ATOM     27  C   UNL     1       5.740   3.995   0.062  0.00  0.00    +0.001 A 
ATOM     28  C   UNL     1       3.549   4.388  -0.878  0.00  0.00    +0.001 A 
ATOM     30  C   UNL     1       4.800   4.867  -0.487  0.00  0.00    +0.000 A 
ENDBRANCH  21  23
ENDBRANCH  10   5
BRANCH  14   1
ATOM      1  O   UNL     1      -0.978  -3.754  -1.899  0.00  0.00    -0.389 OA
ATOM     35  H   UNL     1      -1.289  -4.579  -1.489  0.00  0.00    +0.210 HD
ENDBRANCH  14   1
BRANCH   7  15
ATOM     15  C   UNL     1      -0.408  -0.132   0.386  0.00  0.00    +0.018 C 
BRANCH  15  19
ATOM     19  C   UNL     1      -1.824  -0.669   0.392  0.00  0.00    +0.096 C 
BRANCH  19  22
ATOM      3  O   UNL     1      -2.471   1.491   1.276  0.00  0.00    -0.276 OA
ATOM      6  N   UNL     1      -4.105  -0.118   0.921  0.00  0.00    -0.308 N 
ATOM     22  C   UNL     1      -2.805   0.367   0.912  0.00  0.00    +0.213 C 
ATOM     36  H   UNL     1      -4.289  -1.059   0.583  0.00  0.00    +0.149 HD
BRANCH   6  26
ATOM     26  C   UNL     1      -5.219   0.668   1.369  0.00  0.00    +0.178 C 
BRANCH  26  29
ATOM      4  O   UNL     1      -5.903   2.777   0.363  0.00  0.00    -0.466 OA
ATOM     29  C   UNL     1      -5.862   1.425   0.237  0.00  0.00    +0.122 A 
ATOM     31  C   UNL     1      -6.442   1.032  -0.947  0.00  0.00    +0.046 A 
ATOM     32  C   UNL     1      -6.867   2.220  -1.589  0.00  0.00    +0.041 A 
ATOM     33  C   UNL     1      -6.515   3.253  -0.752  0.00  0.00    +0.195 A 
ENDBRANCH  26  29
ENDBRANCH   6  26
ENDBRANCH  19  22
ENDBRANCH  15  19
ENDBRANCH   7  15
TORSDOF 8
