REMARK  Name = 40777718
REMARK  13 active torsions:
REMARK  status: ('A' for Active; 'I' for Inactive)
REMARK    1  A    between atoms: O_2  and  C_30
REMARK    2  A    between atoms: N_4  and  C_9
REMARK    3  A    between atoms: N_5  and  C_16
REMARK    4  A    between atoms: C_7  and  C_10
REMARK    5  A    between atoms: C_13  and  C_17
REMARK    6  A    between atoms: C_14  and  C_19
REMARK    7  A    between atoms: C_15  and  C_18
REMARK    8  A    between atoms: C_15  and  C_25
REMARK    9  A    between atoms: C_15  and  C_26
REMARK   10  A    between atoms: C_15  and  C_27
REMARK   11  A    between atoms: C_20  and  C_28
REMARK   12  A    between atoms: C_28  and  C_29
REMARK   13  A    between atoms: C_29  and  C_30
REMARK                            x       y       z     vdW  Elec       q    Type
REMARK                         _______ _______ _______ _____ _____    ______ ____
ROOT
ATOM      5  N   UNL     1       2.212  -0.969   0.208  0.00  0.00    -0.236 N 
ATOM      6  N   UNL     1       1.959  -2.142   0.813  0.00  0.00    -0.171 NA
ATOM     10  C   UNL     1       0.071  -1.253  -0.116  0.00  0.00    +0.003 A 
ATOM     13  C   UNL     1       1.115  -0.396  -0.363  0.00  0.00    +0.046 A 
ATOM     14  C   UNL     1       0.649  -2.310   0.612  0.00  0.00    +0.064 A 
ATOM     17  C   UNL     1       1.156   0.895  -1.081  0.00  0.00    +0.066 C 
ATOM     19  C   UNL     1      -0.017  -3.513   1.142  0.00  0.00    +0.068 C 
ENDROOT
BRANCH   5  16
ATOM     16  C   UNL     1       3.510  -0.455   0.211  0.00  0.00    +0.066 A 
ATOM     18  C   UNL     1       6.104   0.570   0.225  0.00  0.00    -0.042 A 
ATOM     21  C   UNL     1       4.550  -1.182  -0.367  0.00  0.00    +0.028 A 
ATOM     22  C   UNL     1       3.766   0.784   0.797  0.00  0.00    +0.028 A 
ATOM     23  C   UNL     1       5.847  -0.669  -0.360  0.00  0.00    +0.006 A 
ATOM     24  C   UNL     1       5.063   1.297   0.804  0.00  0.00    +0.006 A 
BRANCH  18  15
ATOM     15  C   UNL     1       7.491   1.118   0.233  0.00  0.00    -0.013 C 
ATOM     25  C   UNL     1       8.036   1.299  -1.218  0.00  0.00    +0.015 C 
ATOM     26  C   UNL     1       8.471   0.166   0.987  0.00  0.00    +0.015 C 
ATOM     27  C   UNL     1       7.658   2.515   0.917  0.00  0.00    +0.015 C 
ENDBRANCH  18  15
ENDBRANCH   5  16
BRANCH  10   7
ATOM      7  C   UNL     1      -1.373  -1.093  -0.531  0.00  0.00    +0.047 C 
ATOM      8  C   UNL     1      -2.023   0.199   0.006  0.00  0.00    +0.039 C 
ATOM      9  C   UNL     1      -3.004   0.657  -1.081  0.00  0.00    +0.097 C 
ATOM     11  C   UNL     1      -1.591  -0.972  -2.012  0.00  0.00    -0.021 C 
ATOM     12  C   UNL     1      -2.482  -0.020  -2.305  0.00  0.00    -0.009 C 
BRANCH   9   4
ATOM      1  O   UNL     1      -5.094   2.118   0.278  0.00  0.00    -0.276 OA
ATOM      4  N   UNL     1      -4.351   0.218  -0.835  0.00  0.00    -0.309 N 
ATOM     20  C   UNL     1      -5.291   0.992  -0.171  0.00  0.00    +0.214 C 
ATOM     31  H   UNL     1      -4.615  -0.719  -1.130  0.00  0.00    +0.149 HD
BRANCH  20  28
ATOM     28  C   UNL     1      -6.624   0.274  -0.055  0.00  0.00    +0.107 C 
BRANCH  28  29
ATOM     29  C   UNL     1      -7.674   1.107   0.673  0.00  0.00    +0.129 C 
BRANCH  29  30
ATOM      3  O   UNL     1      -9.229  -0.735   0.343  0.00  0.00    -0.251 OA
ATOM     30  C   UNL     1      -8.993   0.379   0.788  0.00  0.00    +0.305 C 
BRANCH  30   2
ATOM      2  O   UNL     1      -9.912   1.121   1.460  0.00  0.00    -0.481 OA
ATOM     32  H   UNL     1     -10.771   0.654   1.539  0.00  0.00    +0.295 HD
ENDBRANCH  30   2
ENDBRANCH  29  30
ENDBRANCH  28  29
ENDBRANCH  20  28
ENDBRANCH   9   4
ENDBRANCH  10   7
TORSDOF 8
