REMARK  Name = 75536600
REMARK  9 active torsions:
REMARK  status: ('A' for Active; 'I' for Inactive)
REMARK    1  A    between atoms: O_3  and  C_9
REMARK    2  A    between atoms: O_5  and  C_21
REMARK    3  A    between atoms: O_5  and  C_25
REMARK    4  A    between atoms: N_6  and  C_8
REMARK    5  A    between atoms: N_6  and  C_13
REMARK    6  A    between atoms: N_7  and  C_12
REMARK    7  A    between atoms: C_10  and  C_12
REMARK    8  A    between atoms: C_13  and  C_14
REMARK    9  A    between atoms: C_15  and  C_18
REMARK                            x       y       z     vdW  Elec       q    Type
REMARK                         _______ _______ _______ _____ _____    ______ ____
ROOT
ATOM      2  O   UNL     1       1.452  -1.004  -0.003  0.00  0.00    -0.371 OA
ATOM      8  C   UNL     1      -0.591   0.160  -0.342  0.00  0.00    +0.111 C 
ATOM      9  C   UNL     1       0.317   0.999   0.539  0.00  0.00    +0.164 C 
ATOM     10  C   UNL     1       1.678   0.399   0.213  0.00  0.00    +0.165 C 
ATOM     11  C   UNL     1       0.043  -1.215  -0.204  0.00  0.00    +0.181 C 
ENDROOT
BRANCH   9   3
ATOM      3  O   UNL     1       0.259   2.377   0.226  0.00  0.00    -0.388 OA
ATOM     27  H   UNL     1       0.478   2.486  -0.715  0.00  0.00    +0.210 HD
ENDBRANCH   9   3
BRANCH   8   6
ATOM      6  N   UNL     1      -1.986   0.183   0.067  0.00  0.00    -0.305 NA
ATOM     26  H   UNL     1      -2.259   1.146   0.265  0.00  0.00    +0.123 HD
BRANCH   6  13
ATOM     13  C   UNL     1      -2.849  -0.346  -0.982  0.00  0.00    +0.116 C 
BRANCH  13  14
ATOM     14  C   UNL     1      -4.297  -0.345  -0.569  0.00  0.00    -0.033 A 
ATOM     16  C   UNL     1      -4.771  -1.313   0.317  0.00  0.00    +0.008 A 
ATOM     17  C   UNL     1      -5.165   0.624  -1.072  0.00  0.00    +0.008 A 
ATOM     19  C   UNL     1      -6.113  -1.312   0.699  0.00  0.00    +0.046 A 
ATOM     20  C   UNL     1      -6.506   0.626  -0.690  0.00  0.00    +0.046 A 
ATOM     21  C   UNL     1      -6.980  -0.342   0.196  0.00  0.00    +0.120 A 
BRANCH  21   5
ATOM      5  O   UNL     1      -8.289  -0.340   0.570  0.00  0.00    -0.495 OA
ATOM     25  C   UNL     1      -9.120   0.679   0.017  0.00  0.00    +0.277 C 
ENDBRANCH  21   5
ENDBRANCH  13  14
ENDBRANCH   6  13
ENDBRANCH   8   6
BRANCH  10  12
ATOM     12  C   UNL     1       2.698   0.590   1.321  0.00  0.00    +0.138 C 
BRANCH  12   7
ATOM      4  O   UNL     1       4.867   1.885  -0.044  0.00  0.00    -0.270 OA
ATOM      7  N   UNL     1       3.962   0.006   0.973  0.00  0.00    -0.308 N 
ATOM     15  C   UNL     1       4.960   0.712   0.308  0.00  0.00    +0.251 C 
ATOM     28  H   UNL     1       4.103  -0.967   1.221  0.00  0.00    +0.149 HD
BRANCH  15  18
ATOM      1  S   UNL     1       7.478   0.753  -0.821  0.00  0.00    -0.092 S 
ATOM     18  C   UNL     1       6.201  -0.043  -0.004  0.00  0.00    +0.074 A 
ATOM     22  C   UNL     1       6.506  -1.357   0.276  0.00  0.00    +0.021 A 
ATOM     23  C   UNL     1       7.805  -1.714  -0.187  0.00  0.00    +0.008 A 
ATOM     24  C   UNL     1       8.443  -0.661  -0.803  0.00  0.00    +0.046 A 
ENDBRANCH  15  18
ENDBRANCH  12   7
ENDBRANCH  10  12
TORSDOF 8
