REMARK  Name = 56775661
REMARK  8 active torsions:
REMARK  status: ('A' for Active; 'I' for Inactive)
REMARK    1  A    between atoms: O_5  and  C_22
REMARK    2  A    between atoms: O_5  and  C_24
REMARK    3  A    between atoms: N_6  and  C_8
REMARK    4  A    between atoms: N_6  and  C_12
REMARK    5  A    between atoms: C_8  and  C_11
REMARK    6  A    between atoms: C_11  and  C_13
REMARK    7  A    between atoms: C_12  and  C_14
REMARK    8  A    between atoms: C_16  and  C_22
REMARK                            x       y       z     vdW  Elec       q    Type
REMARK                         _______ _______ _______ _____ _____    ______ ____
ROOT
ATOM      1  O   UNL     1      -2.241  -4.192   1.758  0.00  0.00    -0.376 OA
ATOM      8  C   UNL     1      -1.508  -2.903   0.222  0.00  0.00    +0.072 C 
ATOM      9  C   UNL     1      -2.758  -3.735   0.487  0.00  0.00    +0.184 C 
ATOM     10  C   UNL     1      -0.992  -3.502   1.526  0.00  0.00    +0.184 C 
ENDROOT
BRANCH   8   6
ATOM      6  N   UNL     1      -1.827  -1.491   0.445  0.00  0.00    -0.302 NA
ATOM     30  H   UNL     1      -1.027  -0.893   0.649  0.00  0.00    +0.123 HD
BRANCH   6  12
ATOM     12  C   UNL     1      -2.547  -0.971  -0.719  0.00  0.00    +0.117 C 
BRANCH  12  14
ATOM      3  O   UNL     1      -3.532   3.867  -0.664  0.00  0.00    -0.453 OA
ATOM      4  O   UNL     1      -5.622   3.545   0.492  0.00  0.00    -0.453 OA
ATOM     14  C   UNL     1      -3.392   0.211  -0.381  0.00  0.00    -0.030 A 
ATOM     17  C   UNL     1      -2.966   1.493  -0.737  0.00  0.00    +0.054 A 
ATOM     18  C   UNL     1      -4.612   0.024   0.293  0.00  0.00    +0.009 A 
ATOM     19  C   UNL     1      -3.782   2.555  -0.402  0.00  0.00    +0.167 A 
ATOM     20  C   UNL     1      -5.419   1.116   0.620  0.00  0.00    +0.050 A 
ATOM     21  C   UNL     1      -4.975   2.371   0.258  0.00  0.00    +0.166 A 
ATOM     23  C   UNL     1      -4.703   4.489  -0.095  0.00  0.00    +0.466 C 
ENDBRANCH  12  14
ENDBRANCH   6  12
ENDBRANCH   8   6
BRANCH   8  11
ATOM     11  C   UNL     1      -0.736  -3.135  -1.040  0.00  0.00    +0.085 C 
BRANCH  11  13
ATOM      2  O   UNL     1       2.793  -2.620  -0.464  0.00  0.00    -0.356 OA
ATOM      7  N   UNL     1       1.646  -3.405  -0.453  0.00  0.00    -0.083 NA
ATOM     13  C   UNL     1       0.677  -2.607  -0.911  0.00  0.00    +0.086 A 
ATOM     15  C   UNL     1       1.149  -1.321  -1.226  0.00  0.00    +0.074 A 
ATOM     16  C   UNL     1       2.484  -1.382  -0.926  0.00  0.00    +0.175 A 
BRANCH  16  22
ATOM     22  C   UNL     1       3.588  -0.418  -1.005  0.00  0.00    +0.306 C 
BRANCH  22   5
ATOM      5  O   UNL     1       3.925   0.058   0.301  0.00  0.00    -0.484 OA
BRANCH   5  24
ATOM     24  C   UNL     1       4.898   1.015   0.368  0.00  0.00    +0.121 A 
ATOM     25  C   UNL     1       5.506   1.476  -0.800  0.00  0.00    +0.045 A 
ATOM     26  C   UNL     1       5.284   1.532   1.605  0.00  0.00    +0.045 A 
ATOM     27  C   UNL     1       6.499   2.452  -0.732  0.00  0.00    +0.004 A 
ATOM     28  C   UNL     1       6.278   2.509   1.674  0.00  0.00    +0.004 A 
ATOM     29  C   UNL     1       6.885   2.969   0.505  0.00  0.00    +0.000 A 
ENDBRANCH   5  24
ENDBRANCH  22   5
ENDBRANCH  16  22
ENDBRANCH  11  13
ENDBRANCH   8  11
TORSDOF 8
