REMARK  Name = 7113917
REMARK  6 active torsions:
REMARK  status: ('A' for Active; 'I' for Inactive)
REMARK    1  A    between atoms: S_2  and  N_11
REMARK    2  A    between atoms: S_2  and  C_29
REMARK    3  A    between atoms: O_7  and  C_33
REMARK    4  A    between atoms: N_11  and  C_22
REMARK    5  A    between atoms: C_21  and  C_24
REMARK    6  A    between atoms: C_27  and  C_33
REMARK                            x       y       z     vdW  Elec       q    Type
REMARK                         _______ _______ _______ _____ _____    ______ ____
ROOT
ATOM      3  O   UNL     1      -0.836   3.464  -1.031  0.00  0.00    -0.266 OA
ATOM      4  O   UNL     1       2.833   0.128  -2.533  0.00  0.00    -0.270 OA
ATOM      9  N   UNL     1       3.421   0.921  -0.411  0.00  0.00    -0.297 N 
ATOM     10  N   UNL     1       0.953   2.776   0.316  0.00  0.00    -0.310 N 
ATOM     12  C   UNL     1       3.388   3.398  -0.173  0.00  0.00    +0.027 C 
ATOM     13  C   UNL     1       2.854   1.976   1.764  0.00  0.00    +0.054 C 
ATOM     14  C   UNL     1       3.581   3.248   1.332  0.00  0.00    +0.018 C 
ATOM     15  C   UNL     1       3.970   2.180  -0.914  0.00  0.00    +0.113 C 
ATOM     16  C   UNL     1       1.895   3.591  -0.463  0.00  0.00    +0.130 C 
ATOM     17  C   UNL     1       3.476   0.758   1.050  0.00  0.00    +0.117 C 
ATOM     18  C   UNL     1       1.374   2.055   1.442  0.00  0.00    +0.027 A 
ATOM     19  C   UNL     1       0.479   1.407   2.210  0.00  0.00    +0.024 A 
ATOM     20  C   UNL     1      -0.404   2.837  -0.064  0.00  0.00    +0.274 A 
ATOM     21  C   UNL     1       2.882  -0.002  -1.311  0.00  0.00    +0.247 C 
ATOM     22  C   UNL     1      -1.339   2.082   0.807  0.00  0.00    +0.112 A 
ATOM     23  C   UNL     1      -0.921   1.417   1.885  0.00  0.00    +0.031 A 
ENDROOT
BRANCH  21  24
ATOM     24  C   UNL     1       2.301  -1.234  -0.766  0.00  0.00    +0.038 A 
ATOM     25  C   UNL     1       3.102  -2.361  -0.594  0.00  0.00    +0.028 A 
ATOM     26  C   UNL     1       0.952  -1.271  -0.424  0.00  0.00    +0.013 A 
ATOM     27  C   UNL     1       2.549  -3.532  -0.077  0.00  0.00    +0.060 A 
ATOM     28  C   UNL     1       0.399  -2.442   0.093  0.00  0.00    +0.002 A 
ATOM     30  C   UNL     1       1.197  -3.572   0.267  0.00  0.00    +0.015 A 
BRANCH  27  33
ATOM      8  O   UNL     1       4.583  -4.787  -0.164  0.00  0.00    -0.245 OA
ATOM     33  C   UNL     1       3.380  -4.711   0.105  0.00  0.00    +0.337 C 
BRANCH  33   7
ATOM      7  O   UNL     1       2.687  -5.763   0.620  0.00  0.00    -0.477 OA
ATOM     38  H   UNL     1       3.256  -6.552   0.740  0.00  0.00    +0.295 HD
ENDBRANCH  33   7
ENDBRANCH  27  33
ENDBRANCH  21  24
BRANCH  22  11
ATOM     11  N   UNL     1      -2.714   2.058   0.517  0.00  0.00    -0.211 N 
ATOM     37  H   UNL     1      -3.286   1.752   1.317  0.00  0.00    +0.174 HD
BRANCH  11   2
ATOM      2  S   UNL     1      -3.176   1.400  -0.973  0.00  0.00    +0.072 S 
ATOM      5  O   UNL     1      -4.024   2.340  -1.681  0.00  0.00    -0.150 OA
ATOM      6  O   UNL     1      -2.019   0.821  -1.630  0.00  0.00    -0.150 OA
BRANCH   2  29
ATOM      1 CL   UNL     1      -6.810  -3.328   0.921  0.00  0.00    -0.084 Cl
ATOM     29  C   UNL     1      -4.203   0.064  -0.437  0.00  0.00    +0.109 A 
ATOM     31  C   UNL     1      -5.557   0.284  -0.257  0.00  0.00    +0.030 A 
ATOM     32  C   UNL     1      -3.633  -1.176  -0.209  0.00  0.00    +0.030 A 
ATOM     34  C   UNL     1      -6.367  -0.770   0.165  0.00  0.00    +0.022 A 
ATOM     35  C   UNL     1      -4.443  -2.230   0.214  0.00  0.00    +0.022 A 
ATOM     36  C   UNL     1      -5.810  -2.027   0.401  0.00  0.00    +0.041 A 
ENDBRANCH   2  29
ENDBRANCH  11   2
ENDBRANCH  22  11
TORSDOF 6
