REMARK  Name = 7134268
REMARK  9 active torsions:
REMARK  status: ('A' for Active; 'I' for Inactive)
REMARK    1  A    between atoms: N_9  and  C_14
REMARK    2  A    between atoms: N_10  and  C_21
REMARK    3  A    between atoms: C_15  and  C_19
REMARK    4  A    between atoms: C_20  and  C_23
REMARK    5  A    between atoms: C_21  and  C_24
REMARK    6  A    between atoms: C_21  and  C_26
REMARK    7  A    between atoms: C_22  and  C_25
REMARK    8  A    between atoms: C_24  and  C_28
REMARK    9  A    between atoms: C_29  and  C_33
REMARK                            x       y       z     vdW  Elec       q    Type
REMARK                         _______ _______ _______ _____ _____    ______ ____
ROOT
ATOM      4  O   UNL     1      -0.058   4.208   1.106  0.00  0.00    -0.267 OA
ATOM      8  N   UNL     1      -1.158   2.444   0.074  0.00  0.00    -0.283 N 
ATOM     14  C   UNL     1      -1.836  -0.376  -0.320  0.00  0.00    +0.077 C 
ATOM     15  C   UNL     1      -0.382   1.415   0.777  0.00  0.00    +0.164 C 
ATOM     16  C   UNL     1      -1.127   0.092   0.954  0.00  0.00    +0.054 C 
ATOM     17  C   UNL     1      -2.716   0.745  -0.867  0.00  0.00    +0.041 C 
ATOM     18  C   UNL     1      -1.906   2.011  -1.120  0.00  0.00    +0.111 C 
ATOM     20  C   UNL     1      -1.044   3.788   0.497  0.00  0.00    +0.283 C 
ENDROOT
BRANCH  20  23
ATOM      5  O   UNL     1      -3.389   4.154   0.109  0.00  0.00    -0.458 OA
ATOM     23  C   UNL     1      -2.148   4.690   0.187  0.00  0.00    +0.189 A 
ATOM     27  C   UNL     1      -2.172   6.037  -0.051  0.00  0.00    +0.054 A 
ATOM     30  C   UNL     1      -3.527   6.361  -0.295  0.00  0.00    +0.042 A 
ATOM     31  C   UNL     1      -4.228   5.182  -0.187  0.00  0.00    +0.196 A 
ENDBRANCH  20  23
BRANCH  15  19
ATOM      3  O   UNL     1       1.112   1.863  -1.032  0.00  0.00    -0.274 OA
ATOM     10  N   UNL     1       1.747   0.330   0.601  0.00  0.00    -0.302 N 
ATOM     19  C   UNL     1       0.897   1.248   0.009  0.00  0.00    +0.234 C 
ATOM     37  H   UNL     1       1.478  -0.116   1.473  0.00  0.00    +0.150 HD
BRANCH  10  21
ATOM     21  C   UNL     1       3.033  -0.028   0.047  0.00  0.00    +0.163 C 
BRANCH  21  26
ATOM      7  O   UNL     1       1.940  -2.025  -0.803  0.00  0.00    -0.274 OA
ATOM     11  N   UNL     1       3.601  -1.061  -2.063  0.00  0.00    -0.328 N 
ATOM     26  C   UNL     1       2.793  -1.153  -0.949  0.00  0.00    +0.231 C 
ATOM     38  H   UNL     1       4.295  -0.329  -2.177  0.00  0.00    +0.145 HD
ATOM     39  H   UNL     1       3.533  -1.742  -2.812  0.00  0.00    +0.145 HD
ENDBRANCH  21  26
BRANCH  21  24
ATOM     24  C   UNL     1       4.028  -0.473   1.126  0.00  0.00    +0.074 C 
BRANCH  24  28
ATOM      2  S   UNL     1       6.430  -1.763   0.700  0.00  0.00    -0.102 S 
ATOM     28  C   UNL     1       5.462  -0.369   0.662  0.00  0.00    -0.008 A 
ATOM     32  C   UNL     1       6.103   0.737   0.202  0.00  0.00    +0.011 A 
ATOM     34  C   UNL     1       7.454   0.439  -0.140  0.00  0.00    +0.008 A 
ATOM     35  C   UNL     1       7.764  -0.885   0.082  0.00  0.00    +0.045 A 
ENDBRANCH  24  28
ENDBRANCH  21  24
ENDBRANCH  10  21
ENDBRANCH  15  19
BRANCH  14   9
ATOM      6  O   UNL     1      -0.936  -3.096  -0.503  0.00  0.00    -0.270 OA
ATOM      9  N   UNL     1      -2.618  -1.562  -0.063  0.00  0.00    -0.308 N 
ATOM     22  C   UNL     1      -2.092  -2.841  -0.179  0.00  0.00    +0.254 C 
ATOM     36  H   UNL     1      -3.577  -1.448   0.251  0.00  0.00    +0.149 HD
BRANCH  22  25
ATOM      1  S   UNL     1      -4.627  -3.609   0.510  0.00  0.00    +0.041 S 
ATOM     12  N   UNL     1      -3.959  -6.020   0.379  0.00  0.00    -0.146 NA
ATOM     13  N   UNL     1      -4.994  -5.238   0.640  0.00  0.00    -0.110 NA
ATOM     25  C   UNL     1      -3.034  -3.957   0.094  0.00  0.00    +0.117 A 
ATOM     29  C   UNL     1      -2.830  -5.280   0.065  0.00  0.00    +0.081 A 
ATOM     33  C   UNL     1      -1.585  -6.009  -0.253  0.00  0.00    +0.069 C 
ENDBRANCH  22  25
ENDBRANCH  14   9
TORSDOF 8
