REMARK  Name = 11886270
REMARK  9 active torsions:
REMARK  status: ('A' for Active; 'I' for Inactive)
REMARK    1  A    between atoms: S_1  and  N_8
REMARK    2  A    between atoms: S_1  and  C_24
REMARK    3  A    between atoms: O_4  and  C_23
REMARK    4  A    between atoms: O_4  and  C_27
REMARK    5  A    between atoms: N_8  and  C_19
REMARK    6  A    between atoms: N_9  and  C_20
REMARK    7  A    between atoms: N_13  and  C_30
REMARK    8  A    between atoms: N_14  and  C_35
REMARK    9  A    between atoms: C_36  and  C_37
REMARK                            x       y       z     vdW  Elec       q    Type
REMARK                         _______ _______ _______ _____ _____    ______ ____
ROOT
ATOM      2  O   UNL     1      -5.110   0.827   0.202  0.00  0.00    -0.370 OA
ATOM      3  O   UNL     1      -2.524   0.516  -1.585  0.00  0.00    -0.370 OA
ATOM     17  C   UNL     1      -2.858   0.184  -0.228  0.00  0.00    +0.170 C 
ATOM     18  C   UNL     1      -3.751   1.286   0.310  0.00  0.00    +0.175 C 
ATOM     19  C   UNL     1      -3.725  -1.052  -0.193  0.00  0.00    +0.133 C 
ATOM     20  C   UNL     1      -3.526   2.458  -0.626  0.00  0.00    +0.171 C 
ATOM     21  C   UNL     1      -5.122  -0.490  -0.365  0.00  0.00    +0.183 C 
ATOM     22  C   UNL     1      -3.104   1.783  -1.925  0.00  0.00    +0.190 C 
ENDROOT
BRANCH  20   9
ATOM      9  N   UNL     1      -2.566   3.428  -0.091  0.00  0.00    -0.187 N 
ATOM     10  N   UNL     1      -2.972   4.474   0.642  0.00  0.00    -0.041 NA
ATOM     11  N   UNL     1      -0.754   4.505   0.419  0.00  0.00    -0.071 NA
ATOM     12  N   UNL     1      -1.860   5.128   0.952  0.00  0.00    -0.020 NA
ATOM     23  C   UNL     1      -1.214   3.455  -0.222  0.00  0.00    +0.342 A 
BRANCH  23   4
ATOM      4  O   UNL     1      -0.504   2.564  -0.889  0.00  0.00    -0.423 OA
BRANCH   4  27
ATOM     27  C   UNL     1       0.801   2.239  -0.545  0.00  0.00    +0.132 A 
ATOM     31  C   UNL     1       1.778   2.136  -1.536  0.00  0.00    +0.048 A 
ATOM     32  C   UNL     1       1.135   2.016   0.790  0.00  0.00    +0.048 A 
ATOM     33  C   UNL     1       3.089   1.809  -1.190  0.00  0.00    +0.031 A 
ATOM     34  C   UNL     1       2.446   1.689   1.135  0.00  0.00    +0.031 A 
ATOM     35  C   UNL     1       3.423   1.586   0.145  0.00  0.00    +0.067 A 
BRANCH  35  14
ATOM     14  N   UNL     1       4.723   1.261   0.487  0.00  0.00    -0.220 N 
ATOM     15  N   UNL     1       5.084   1.038   1.760  0.00  0.00    -0.154 NA
ATOM     16  N   UNL     1       6.855   0.808   0.331  0.00  0.00    -0.222 NA
ATOM     38  C   UNL     1       5.782   1.123  -0.356  0.00  0.00    +0.225 A 
ATOM     39  C   UNL     1       6.383   0.768   1.611  0.00  0.00    +0.245 A 
ENDBRANCH  35  14
ENDBRANCH   4  27
ENDBRANCH  23   4
ENDBRANCH  20   9
BRANCH  19   8
ATOM      8  N   UNL     1      -3.613  -1.710   1.130  0.00  0.00    -0.182 NA
ATOM     40  H   UNL     1      -3.564  -1.107   1.960  0.00  0.00    +0.148 HD
BRANCH   8   1
ATOM      1  S   UNL     1      -3.172  -3.347   1.224  0.00  0.00    +0.059 S 
ATOM      5  O   UNL     1      -4.066  -4.136   0.398  0.00  0.00    -0.153 OA
ATOM      6  O   UNL     1      -2.967  -3.696   2.617  0.00  0.00    -0.153 OA
BRANCH   1  24
ATOM     24  C   UNL     1      -1.581  -3.341   0.454  0.00  0.00    +0.105 A 
ATOM     25  C   UNL     1      -1.471  -3.540  -0.922  0.00  0.00    +0.030 A 
ATOM     26  C   UNL     1      -0.435  -3.138   1.223  0.00  0.00    +0.030 A 
ATOM     28  C   UNL     1      -0.215  -3.536  -1.529  0.00  0.00    +0.025 A 
ATOM     29  C   UNL     1       0.821  -3.134   0.616  0.00  0.00    +0.025 A 
ATOM     30  C   UNL     1       0.931  -3.333  -0.760  0.00  0.00    +0.033 A 
BRANCH  30  13
ATOM      7  O   UNL     1       3.673  -2.949   0.423  0.00  0.00    -0.276 OA
ATOM     13  N   UNL     1       2.187  -3.328  -1.368  0.00  0.00    -0.286 N 
ATOM     36  C   UNL     1       3.438  -3.143  -0.766  0.00  0.00    +0.214 C 
ATOM     37  C   UNL     1       4.559  -3.209  -1.773  0.00  0.00    +0.109 C 
ATOM     41  H   UNL     1       2.183  -3.479  -2.374  0.00  0.00    +0.155 HD
ENDBRANCH  30  13
ENDBRANCH   1  24
ENDBRANCH   8   1
ENDBRANCH  19   8
TORSDOF 8
