REMARK  Name = 7144180
REMARK  4 active torsions:
REMARK  status: ('A' for Active; 'I' for Inactive)
REMARK    1  A    between atoms: O_6  and  C_32
REMARK    2  A    between atoms: O_6  and  C_33
REMARK    3  A    between atoms: C_16  and  C_17
REMARK    4  A    between atoms: C_20  and  C_27
REMARK                            x       y       z     vdW  Elec       q    Type
REMARK                         _______ _______ _______ _____ _____    ______ ____
ROOT
ATOM      4  O   UNL     1       4.325  -1.347   0.898  0.00  0.00    -0.275 OA
ATOM      5  O   UNL     1       3.668   3.213  -1.655  0.00  0.00    -0.268 OA
ATOM      7  N   UNL     1       2.360  -0.330   1.605  0.00  0.00    -0.300 N 
ATOM      8  N   UNL     1       2.093   2.283  -0.193  0.00  0.00    -0.311 N 
ATOM      9  C   UNL     1       2.567   2.048   2.316  0.00  0.00    +0.027 C 
ATOM     10  C   UNL     1       0.439   1.239   1.388  0.00  0.00    +0.054 C 
ATOM     11  C   UNL     1       1.055   2.133   2.462  0.00  0.00    +0.018 C 
ATOM     12  C   UNL     1       3.052   0.601   2.497  0.00  0.00    +0.113 C 
ATOM     13  C   UNL     1       0.896  -0.219   1.610  0.00  0.00    +0.117 C 
ATOM     14  C   UNL     1       2.955   2.615   0.950  0.00  0.00    +0.130 C 
ATOM     15  C   UNL     1       0.819   1.704  -0.021  0.00  0.00    +0.034 A 
ATOM     17  C   UNL     1       3.094  -1.274   0.886  0.00  0.00    +0.219 C 
ATOM     20  C   UNL     1      -0.005   1.553  -1.090  0.00  0.00    +0.002 A 
ATOM     23  C   UNL     1       2.572   2.690  -1.450  0.00  0.00    +0.252 A 
ATOM     25  C   UNL     1       0.457   1.959  -2.404  0.00  0.00    +0.015 A 
ATOM     26  C   UNL     1       1.667   2.481  -2.603  0.00  0.00    +0.071 A 
ENDROOT
BRANCH  17  16
ATOM     16  C   UNL     1       2.309  -2.240   0.049  0.00  0.00    +0.075 C 
ATOM     18  C   UNL     1       3.115  -2.626  -1.193  0.00  0.00    +0.013 C 
ATOM     19  C   UNL     1       1.939  -3.469   0.881  0.00  0.00    +0.013 C 
ATOM     21  C   UNL     1       2.392  -3.681  -2.027  0.00  0.00    +0.001 C 
ATOM     22  C   UNL     1       1.220  -4.522   0.042  0.00  0.00    +0.001 C 
ATOM     24  C   UNL     1       2.028  -4.906  -1.194  0.00  0.00    +0.000 C 
ENDBRANCH  17  16
BRANCH  20  27
ATOM     27  C   UNL     1      -1.357   0.968  -0.955  0.00  0.00    -0.016 A 
ATOM     28  C   UNL     1      -1.530  -0.408  -1.071  0.00  0.00    +0.012 A 
ATOM     29  C   UNL     1      -2.447   1.799  -0.713  0.00  0.00    +0.012 A 
ATOM     30  C   UNL     1      -2.806  -0.958  -0.944  0.00  0.00    +0.046 A 
ATOM     31  C   UNL     1      -3.723   1.248  -0.586  0.00  0.00    +0.046 A 
ATOM     32  C   UNL     1      -3.902  -0.130  -0.701  0.00  0.00    +0.130 A 
BRANCH  32   6
ATOM      6  O   UNL     1      -5.146  -0.668  -0.576  0.00  0.00    -0.406 OA
BRANCH   6  33
ATOM      1  F   UNL     1      -6.639  -1.543   0.872  0.00  0.00    -0.133 F 
ATOM      2  F   UNL     1      -4.989  -0.364   1.685  0.00  0.00    -0.133 F 
ATOM      3  F   UNL     1      -6.633   0.623   0.586  0.00  0.00    -0.133 F 
ATOM     33  C   UNL     1      -5.846  -0.471   0.647  0.00  0.00    +0.575 C 
ENDBRANCH   6  33
ENDBRANCH  32   6
ENDBRANCH  20  27
TORSDOF 4
