REMARK  Name = 51137956
REMARK  6 active torsions:
REMARK  status: ('A' for Active; 'I' for Inactive)
REMARK    1  A    between atoms: N_3  and  C_5
REMARK    2  A    between atoms: C_6  and  C_14
REMARK    3  A    between atoms: C_7  and  C_17
REMARK    4  A    between atoms: C_14  and  C_18
REMARK    5  A    between atoms: C_18  and  C_23
REMARK    6  A    between atoms: C_18  and  C_24
REMARK                            x       y       z     vdW  Elec       q    Type
REMARK                         _______ _______ _______ _____ _____    ______ ____
ROOT
ATOM      2  N   UNL     1      -0.061  -0.269  -0.755  0.00  0.00    -0.299 NA
ATOM      4  N   UNL     1       4.358   2.054   0.009  0.00  0.00    -0.360 N 
ATOM      6  C   UNL     1       0.724  -1.175   0.094  0.00  0.00    +0.085 C 
ATOM      7  C   UNL     1      -0.240   1.070  -0.212  0.00  0.00    +0.145 C 
ATOM     12  C   UNL     1       0.781   2.050  -0.788  0.00  0.00    +0.065 C 
ATOM     13  C   UNL     1       2.186  -0.780   0.322  0.00  0.00    -0.021 A 
ATOM     15  C   UNL     1       2.734   0.512   0.079  0.00  0.00    +0.008 A 
ATOM     16  C   UNL     1       2.190   1.757  -0.393  0.00  0.00    -0.020 A 
ATOM     19  C   UNL     1       4.089   0.748   0.342  0.00  0.00    +0.047 A 
ATOM     20  C   UNL     1       3.223   2.671  -0.428  0.00  0.00    +0.087 A 
ATOM     21  C   UNL     1       3.067  -1.736   0.891  0.00  0.00    +0.006 A 
ATOM     22  C   UNL     1       4.951  -0.221   0.859  0.00  0.00    +0.026 A 
ATOM     25  C   UNL     1       4.411  -1.469   1.143  0.00  0.00    +0.002 A 
ATOM     26  H   UNL     1       0.318  -0.236  -1.700  0.00  0.00    +0.123 HD
ATOM     28  H   UNL     1       5.262   2.496   0.093  0.00  0.00    +0.165 HD
ENDROOT
BRANCH   7  17
ATOM      1  O   UNL     1      -1.813   2.084  -1.692  0.00  0.00    -0.274 OA
ATOM      3  N   UNL     1      -2.579   1.139   0.292  0.00  0.00    -0.311 N 
ATOM     17  C   UNL     1      -1.614   1.487  -0.638  0.00  0.00    +0.231 C 
ATOM     27  H   UNL     1      -2.304   0.595   1.105  0.00  0.00    +0.149 HD
BRANCH   3   5
ATOM      5  C   UNL     1      -3.979   1.447   0.130  0.00  0.00    +0.073 C 
ATOM      8  C   UNL     1      -4.684   1.581   1.473  0.00  0.00    +0.022 C 
ATOM      9  C   UNL     1      -4.738   0.307  -0.538  0.00  0.00    +0.022 C 
ATOM     10  C   UNL     1      -4.994   0.145   1.889  0.00  0.00    +0.002 C 
ATOM     11  C   UNL     1      -5.069  -0.664   0.594  0.00  0.00    +0.002 C 
ENDBRANCH   3   5
ENDBRANCH   7  17
BRANCH   6  14
ATOM     14  C   UNL     1       0.583  -2.555  -0.575  0.00  0.00    +0.026 C 
BRANCH  14  18
ATOM     18  C   UNL     1      -0.775  -3.212  -0.309  0.00  0.00    -0.015 C 
ATOM     23  C   UNL     1      -1.946  -2.374  -0.824  0.00  0.00    +0.007 C 
ATOM     24  C   UNL     1      -0.802  -4.596  -0.963  0.00  0.00    +0.007 C 
ENDBRANCH  14  18
ENDBRANCH   6  14
TORSDOF 4
