REMARK  Name = 11884219
REMARK  6 active torsions:
REMARK  status: ('A' for Active; 'I' for Inactive)
REMARK    1  A    between atoms: O_5  and  C_20
REMARK    2  A    between atoms: O_5  and  C_27
REMARK    3  A    between atoms: O_6  and  C_25
REMARK    4  A    between atoms: O_6  and  C_35
REMARK    5  A    between atoms: C_17  and  C_20
REMARK    6  A    between atoms: C_22  and  C_24
REMARK                            x       y       z     vdW  Elec       q    Type
REMARK                         _______ _______ _______ _____ _____    ______ ____
ROOT
ATOM      2  O   UNL     1      -1.783  -0.486   1.922  0.00  0.00    -0.273 OA
ATOM      3  O   UNL     1       1.467   1.698  -1.629  0.00  0.00    -0.270 OA
ATOM      4  O   UNL     1      -4.521  -2.280  -0.282  0.00  0.00    -0.272 OA
ATOM      7  N   UNL     1      -0.187   0.275  -0.860  0.00  0.00    -0.283 N 
ATOM      8  N   UNL     1      -2.927  -0.681  -0.836  0.00  0.00    -0.295 N 
ATOM      9  N   UNL     1       0.462  -0.123   2.000  0.00  0.00    -0.283 N 
ATOM     10  C   UNL     1      -0.545  -0.918  -0.106  0.00  0.00    +0.180 C 
ATOM     11  C   UNL     1      -1.805  -1.605  -0.649  0.00  0.00    +0.140 C 
ATOM     12  C   UNL     1      -1.182   0.804  -1.793  0.00  0.00    +0.128 C 
ATOM     13  C   UNL     1      -2.596   0.688  -1.243  0.00  0.00    +0.127 C 
ATOM     14  C   UNL     1      -0.697  -0.467   1.338  0.00  0.00    +0.239 C 
ATOM     15  C   UNL     1       1.098   0.811  -0.857  0.00  0.00    +0.249 C 
ATOM     16  C   UNL     1       2.082   0.318   0.143  0.00  0.00    +0.059 A 
ATOM     17  C   UNL     1      -4.232  -1.131  -0.624  0.00  0.00    +0.253 C 
ATOM     18  C   UNL     1       1.765  -0.004   1.473  0.00  0.00    +0.046 A 
ATOM     19  C   UNL     1       3.432   0.362  -0.252  0.00  0.00    +0.023 A 
ATOM     21  C   UNL     1       2.810  -0.206   2.392  0.00  0.00    +0.024 A 
ATOM     22  C   UNL     1       4.454   0.110   0.662  0.00  0.00    -0.014 A 
ATOM     23  C   UNL     1       4.144  -0.160   1.988  0.00  0.00    +0.010 A 
ATOM     37  H   UNL     1       0.380  -0.040   3.010  0.00  0.00    +0.155 HD
ENDROOT
BRANCH  22  24
ATOM      1 CL   UNL     1       8.711   2.924  -0.056  0.00  0.00    -0.084 Cl
ATOM     24  C   UNL     1       5.836   0.155   0.235  0.00  0.00    +0.025 A 
ATOM     25  C   UNL     1       6.482  -0.994  -0.225  0.00  0.00    +0.128 A 
ATOM     26  C   UNL     1       6.527   1.367   0.286  0.00  0.00    +0.032 A 
ATOM     28  C   UNL     1       7.815  -0.932  -0.632  0.00  0.00    +0.047 A 
ATOM     29  C   UNL     1       7.860   1.429  -0.121  0.00  0.00    +0.042 A 
ATOM     30  C   UNL     1       8.504   0.280  -0.580  0.00  0.00    +0.023 A 
BRANCH  25   6
ATOM      6  O   UNL     1       5.833  -2.192  -0.286  0.00  0.00    -0.495 OA
ATOM     35  C   UNL     1       5.151  -2.497  -1.500  0.00  0.00    +0.277 C 
ENDBRANCH  25   6
ENDBRANCH  22  24
BRANCH  17  20
ATOM     20  C   UNL     1      -5.329  -0.118  -0.841  0.00  0.00    +0.324 C 
BRANCH  20   5
ATOM      5  O   UNL     1      -6.544  -0.788  -0.610  0.00  0.00    -0.483 OA
BRANCH   5  27
ATOM     27  C   UNL     1      -7.611  -0.031  -0.178  0.00  0.00    +0.121 A 
ATOM     31  C   UNL     1      -7.703   1.298  -0.561  0.00  0.00    +0.045 A 
ATOM     32  C   UNL     1      -8.573  -0.613   0.634  0.00  0.00    +0.045 A 
ATOM     33  C   UNL     1      -8.783   2.064  -0.122  0.00  0.00    +0.004 A 
ATOM     34  C   UNL     1      -9.653   0.153   1.073  0.00  0.00    +0.004 A 
ATOM     36  C   UNL     1      -9.758   1.492   0.695  0.00  0.00    +0.000 A 
ENDBRANCH   5  27
ENDBRANCH  20   5
ENDBRANCH  17  20
TORSDOF 5
