REMARK  Name = 25313072
REMARK  10 active torsions:
REMARK  status: ('A' for Active; 'I' for Inactive)
REMARK    1  A    between atoms: O_2  and  C_21
REMARK    2  A    between atoms: O_4  and  C_22
REMARK    3  A    between atoms: O_4  and  C_28
REMARK    4  A    between atoms: N_6  and  C_14
REMARK    5  A    between atoms: N_7  and  C_23
REMARK    6  A    between atoms: C_8  and  C_12
REMARK    7  A    between atoms: C_9  and  C_15
REMARK    8  A    between atoms: C_12  and  C_14
REMARK    9  A    between atoms: C_15  and  C_21
REMARK   10  A    between atoms: C_18  and  C_22
REMARK                            x       y       z     vdW  Elec       q    Type
REMARK                         _______ _______ _______ _____ _____    ______ ____
ROOT
ATOM      1  O   UNL     1       2.607   3.365   1.322  0.00  0.00    -0.272 OA
ATOM      5  N   UNL     1       3.395   1.714  -0.111  0.00  0.00    -0.298 N 
ATOM      8  C   UNL     1       3.360  -0.606  -0.999  0.00  0.00    +0.011 C 
ATOM      9  C   UNL     1       4.644  -0.899  -0.182  0.00  0.00    +0.006 C 
ATOM     10  C   UNL     1       3.278   0.896  -1.325  0.00  0.00    +0.111 C 
ATOM     11  C   UNL     1       4.751   0.014   1.051  0.00  0.00    +0.023 C 
ATOM     13  C   UNL     1       4.613   1.485   0.666  0.00  0.00    +0.108 C 
ATOM     18  C   UNL     1       2.473   2.671   0.310  0.00  0.00    +0.253 C 
ENDROOT
BRANCH   8  12
ATOM     12  C   UNL     1       2.068  -1.074  -0.317  0.00  0.00    +0.020 C 
BRANCH  12  14
ATOM     14  C   UNL     1       0.980  -1.350  -1.345  0.00  0.00    +0.085 C 
BRANCH  14   6
ATOM      6  N   UNL     1      -0.245  -1.777  -0.670  0.00  0.00    -0.299 NA
ATOM      7  N   UNL     1      -3.058  -1.867  -0.182  0.00  0.00    -0.327 N 
ATOM     16  C   UNL     1      -1.141  -2.459  -1.611  0.00  0.00    +0.103 C 
ATOM     17  C   UNL     1      -0.931  -0.625  -0.072  0.00  0.00    +0.103 C 
ATOM     19  C   UNL     1      -2.403  -2.961  -0.905  0.00  0.00    +0.120 C 
ATOM     20  C   UNL     1      -2.185  -1.067   0.686  0.00  0.00    +0.120 C 
BRANCH   7  23
ATOM     23  C   UNL     1      -4.410  -1.974   0.163  0.00  0.00    +0.030 A 
ATOM     24  C   UNL     1      -4.968  -3.227   0.415  0.00  0.00    +0.023 A 
ATOM     25  C   UNL     1      -5.199  -0.828   0.256  0.00  0.00    +0.023 A 
ATOM     26  C   UNL     1      -6.315  -3.334   0.759  0.00  0.00    +0.002 A 
ATOM     27  C   UNL     1      -6.546  -0.935   0.600  0.00  0.00    +0.002 A 
ATOM     29  C   UNL     1      -7.105  -2.188   0.851  0.00  0.00    +0.000 A 
ENDBRANCH   7  23
ENDBRANCH  14   6
ENDBRANCH  12  14
ENDBRANCH   8  12
BRANCH   9  15
ATOM     15  C   UNL     1       4.779  -2.367   0.221  0.00  0.00    +0.124 C 
BRANCH  15  21
ATOM      3  O   UNL     1       7.177  -1.994   0.445  0.00  0.00    -0.251 OA
ATOM     21  C   UNL     1       6.208  -2.736   0.507  0.00  0.00    +0.305 C 
BRANCH  21   2
ATOM      2  O   UNL     1       6.282  -4.046   0.855  0.00  0.00    -0.481 OA
ATOM     35  H   UNL     1       7.203  -4.322   1.049  0.00  0.00    +0.295 HD
ENDBRANCH  21   2
ENDBRANCH  15  21
ENDBRANCH   9  15
BRANCH  18  22
ATOM     22  C   UNL     1       1.242   2.845  -0.543  0.00  0.00    +0.324 C 
BRANCH  22   4
ATOM      4  O   UNL     1       0.451   3.823   0.086  0.00  0.00    -0.483 OA
BRANCH   4  28
ATOM     28  C   UNL     1      -0.916   3.704  -0.034  0.00  0.00    +0.121 A 
ATOM     30  C   UNL     1      -1.468   3.114  -1.171  0.00  0.00    +0.045 A 
ATOM     31  C   UNL     1      -1.749   4.174   0.982  0.00  0.00    +0.045 A 
ATOM     32  C   UNL     1      -2.852   2.993  -1.293  0.00  0.00    +0.004 A 
ATOM     33  C   UNL     1      -3.133   4.053   0.860  0.00  0.00    +0.004 A 
ATOM     34  C   UNL     1      -3.685   3.463  -0.277  0.00  0.00    +0.000 A 
ENDBRANCH   4  28
ENDBRANCH  22   4
ENDBRANCH  18  22
TORSDOF 10
