REMARK  Name = 7135154
REMARK  12 active torsions:
REMARK  status: ('A' for Active; 'I' for Inactive)
REMARK    1  A    between atoms: O_2  and  C_15
REMARK    2  A    between atoms: O_3  and  C_20
REMARK    3  A    between atoms: N_8  and  C_26
REMARK    4  A    between atoms: N_8  and  C_27
REMARK    5  A    between atoms: C_10  and  C_18
REMARK    6  A    between atoms: C_12  and  C_20
REMARK    7  A    between atoms: C_12  and  C_21
REMARK    8  A    between atoms: C_13  and  C_23
REMARK    9  A    between atoms: C_23  and  C_24
REMARK   10  A    between atoms: C_26  and  C_29
REMARK   11  A    between atoms: C_27  and  C_30
REMARK   12  A    between atoms: C_28  and  C_31
REMARK                            x       y       z     vdW  Elec       q    Type
REMARK                         _______ _______ _______ _____ _____    ______ ____
ROOT
ATOM      1  S   UNL     1       0.690   2.848   0.252  0.00  0.00    -0.057 S 
ATOM      5  O   UNL     1       3.976  -0.360  -0.276  0.00  0.00    -0.266 OA
ATOM      7  N   UNL     1       1.146   0.328  -0.118  0.00  0.00    -0.229 NA
ATOM      9  N   UNL     1       3.072   1.769   0.050  0.00  0.00    -0.258 N 
ATOM     10  C   UNL     1      -2.640  -0.282   0.278  0.00  0.00    -0.019 C 
ATOM     11  C   UNL     1      -3.013   1.143  -0.326  0.00  0.00    +0.011 C 
ATOM     12  C   UNL     1      -4.537   1.549  -0.315  0.00  0.00    +0.021 C 
ATOM     13  C   UNL     1      -1.171  -0.662  -0.224  0.00  0.00    +0.054 C 
ATOM     14  C   UNL     1      -3.631  -1.346  -0.262  0.00  0.00    +0.010 C 
ATOM     15  C   UNL     1      -5.388   0.358  -0.840  0.00  0.00    +0.123 C 
ATOM     16  C   UNL     1      -2.064   2.254   0.210  0.00  0.00    +0.049 C 
ATOM     17  C   UNL     1      -5.095  -0.953  -0.121  0.00  0.00    +0.032 C 
ATOM     18  C   UNL     1      -2.678  -0.308   1.826  0.00  0.00    +0.012 C 
ATOM     19  C   UNL     1      -0.224   0.498  -0.055  0.00  0.00    +0.058 A 
ATOM     21  C   UNL     1      -4.753   2.738  -1.293  0.00  0.00    +0.016 C 
ATOM     22  C   UNL     1      -0.646   1.801   0.120  0.00  0.00    +0.015 A 
ATOM     25  C   UNL     1       1.729   1.497   0.038  0.00  0.00    +0.165 A 
ATOM     28  C   UNL     1       4.131   0.847  -0.105  0.00  0.00    +0.285 C 
ATOM     37  H   UNL     1       3.310   2.747   0.192  0.00  0.00    +0.157 HD
ENDROOT
BRANCH  28  31
ATOM      6  O   UNL     1       5.586   2.762   0.228  0.00  0.00    -0.458 OA
ATOM     31  C   UNL     1       5.483   1.427  -0.002  0.00  0.00    +0.189 A 
ATOM     32  C   UNL     1       6.730   0.855  -0.096  0.00  0.00    +0.054 A 
ATOM     33  C   UNL     1       7.659   1.906   0.088  0.00  0.00    +0.042 A 
ATOM     34  C   UNL     1       6.914   3.046   0.281  0.00  0.00    +0.196 A 
ENDBRANCH  28  31
BRANCH  15   2
ATOM      2  O   UNL     1      -6.782   0.645  -0.721  0.00  0.00    -0.391 OA
ATOM     35  H   UNL     1      -7.270  -0.103  -1.103  0.00  0.00    +0.210 HD
ENDBRANCH  15   2
BRANCH  12  20
ATOM     20  C   UNL     1      -5.059   2.038   1.054  0.00  0.00    +0.165 C 
BRANCH  20   3
ATOM      3  O   UNL     1      -6.421   2.371   0.903  0.00  0.00    -0.394 OA
ATOM     36  H   UNL     1      -6.740   2.687   1.765  0.00  0.00    +0.209 HD
ENDBRANCH  20   3
ENDBRANCH  12  20
BRANCH  13  23
ATOM     23  C   UNL     1      -0.600  -1.947   0.389  0.00  0.00    +0.106 C 
BRANCH  23  24
ATOM      4  O   UNL     1       0.718  -2.113  -1.607  0.00  0.00    -0.276 OA
ATOM      8  N   UNL     1       0.989  -3.791  -0.028  0.00  0.00    -0.302 N 
ATOM     24  C   UNL     1       0.422  -2.608  -0.516  0.00  0.00    +0.216 C 
BRANCH   8  26
ATOM     26  C   UNL     1       0.622  -4.358   1.267  0.00  0.00    +0.104 C 
ATOM     29  C   UNL     1      -0.542  -5.319   1.143  0.00  0.00    +0.024 C 
ENDBRANCH   8  26
BRANCH   8  27
ATOM     27  C   UNL     1       1.987  -4.546  -0.776  0.00  0.00    +0.104 C 
ATOM     30  C   UNL     1       3.392  -4.088  -0.445  0.00  0.00    +0.024 C 
ENDBRANCH   8  27
ENDBRANCH  23  24
ENDBRANCH  13  23
TORSDOF 8
