REMARK  Name = 75536526
REMARK  11 active torsions:
REMARK  status: ('A' for Active; 'I' for Inactive)
REMARK    1  A    between atoms: O_2  and  C_8
REMARK    2  A    between atoms: N_4  and  C_7
REMARK    3  A    between atoms: N_4  and  C_14
REMARK    4  A    between atoms: N_5  and  C_11
REMARK    5  A    between atoms: C_9  and  C_11
REMARK    6  A    between atoms: C_12  and  C_13
REMARK    7  A    between atoms: C_12  and  C_16
REMARK    8  A    between atoms: C_12  and  C_17
REMARK    9  A    between atoms: C_12  and  C_18
REMARK   10  A    between atoms: C_13  and  C_15
REMARK   11  A    between atoms: C_14  and  C_19
REMARK                            x       y       z     vdW  Elec       q    Type
REMARK                         _______ _______ _______ _____ _____    ______ ____
ROOT
ATOM      1  O   UNL     1       1.149   0.195   0.012  0.00  0.00    -0.371 OA
ATOM      7  C   UNL     1      -1.056  -0.546   0.493  0.00  0.00    +0.111 C 
ATOM      8  C   UNL     1      -0.267  -1.696  -0.105  0.00  0.00    +0.164 C 
ATOM      9  C   UNL     1       1.162  -1.236   0.150  0.00  0.00    +0.165 C 
ATOM     10  C   UNL     1      -0.215   0.648   0.070  0.00  0.00    +0.181 C 
ENDROOT
BRANCH   8   2
ATOM      2  O   UNL     1      -0.543  -2.933   0.523  0.00  0.00    -0.388 OA
ATOM     26  H   UNL     1      -0.366  -2.838   1.474  0.00  0.00    +0.210 HD
ENDBRANCH   8   2
BRANCH   7   4
ATOM      4  N   UNL     1      -2.428  -0.469   0.016  0.00  0.00    -0.305 NA
ATOM     24  H   UNL     1      -2.840  -1.403   0.038  0.00  0.00    +0.123 HD
BRANCH   4  14
ATOM     14  C   UNL     1      -3.226   0.418   0.853  0.00  0.00    +0.118 C 
BRANCH  14  19
ATOM      6  N   UNL     1      -6.969  -0.095   0.621  0.00  0.00    -0.263 NA
ATOM     19  C   UNL     1      -4.646   0.523   0.365  0.00  0.00    -0.015 A 
ATOM     20  C   UNL     1      -4.966   1.294  -0.748  0.00  0.00    +0.008 A 
ATOM     21  C   UNL     1      -5.675  -0.145   1.008  0.00  0.00    +0.115 A 
ATOM     22  C   UNL     1      -6.286   1.371  -1.176  0.00  0.00    +0.020 A 
ATOM     23  C   UNL     1      -7.242   0.664  -0.464  0.00  0.00    +0.111 A 
ENDBRANCH  14  19
ENDBRANCH   4  14
ENDBRANCH   7   4
BRANCH   9  11
ATOM     11  C   UNL     1       2.168  -1.836  -0.815  0.00  0.00    +0.138 C 
BRANCH  11   5
ATOM      3  O   UNL     1       3.476   0.502  -1.916  0.00  0.00    -0.276 OA
ATOM      5  N   UNL     1       3.508  -1.370  -0.540  0.00  0.00    -0.313 N 
ATOM     15  C   UNL     1       4.050  -0.234  -1.117  0.00  0.00    +0.214 C 
ATOM     25  H   UNL     1       4.064  -1.907   0.118  0.00  0.00    +0.149 HD
BRANCH  15  13
ATOM     13  C   UNL     1       5.478   0.036  -0.671  0.00  0.00    +0.102 C 
BRANCH  13  12
ATOM     12  C   UNL     1       5.606   0.971   0.555  0.00  0.00    -0.029 C 
ATOM     16  C   UNL     1       7.081   1.199   0.926  0.00  0.00    +0.011 C 
ATOM     17  C   UNL     1       4.982   2.331   0.185  0.00  0.00    +0.011 C 
ATOM     18  C   UNL     1       4.858   0.408   1.774  0.00  0.00    +0.011 C 
ENDBRANCH  13  12
ENDBRANCH  15  13
ENDBRANCH  11   5
ENDBRANCH   9  11
TORSDOF 8
