REMARK  Name = 45783353
REMARK  9 active torsions:
REMARK  status: ('A' for Active; 'I' for Inactive)
REMARK    1  A    between atoms: O_2  and  C_24
REMARK    2  A    between atoms: O_2  and  C_26
REMARK    3  A    between atoms: O_3  and  C_27
REMARK    4  A    between atoms: O_3  and  C_28
REMARK    5  A    between atoms: N_4  and  C_9
REMARK    6  A    between atoms: N_5  and  C_19
REMARK    7  A    between atoms: C_10  and  C_18
REMARK    8  A    between atoms: C_20  and  C_21
REMARK    9  A    between atoms: C_26  and  C_27
REMARK                            x       y       z     vdW  Elec       q    Type
REMARK                         _______ _______ _______ _____ _____    ______ ____
ROOT
ATOM      1  O   UNL     1      -1.693   2.882  -0.607  0.00  0.00    -0.336 OA
ATOM      6  N   UNL     1      -0.522   1.198   0.292  0.00  0.00    -0.190 NA
ATOM      7  N   UNL     1      -0.409   2.960  -1.163  0.00  0.00    -0.056 NA
ATOM     18  C   UNL     1      -1.673   1.819   0.238  0.00  0.00    +0.245 A 
ATOM     20  C   UNL     1       0.222   1.934  -0.584  0.00  0.00    +0.202 A 
ENDROOT
BRANCH  20  21
ATOM      8  N   UNL     1       4.268   1.004  -1.390  0.00  0.00    -0.221 NA
ATOM     21  C   UNL     1       1.594   1.618  -0.857  0.00  0.00    +0.029 A 
ATOM     22  C   UNL     1       2.202   0.539  -0.225  0.00  0.00    +0.079 A 
ATOM     23  C   UNL     1       2.322   2.390  -1.756  0.00  0.00    +0.031 A 
ATOM     24  C   UNL     1       3.529   0.277  -0.523  0.00  0.00    +0.215 A 
ATOM     25  C   UNL     1       3.644   2.045  -1.986  0.00  0.00    +0.115 A 
BRANCH  24   2
ATOM      2  O   UNL     1       4.151  -0.781   0.088  0.00  0.00    -0.474 OA
BRANCH   2  26
ATOM     26  C   UNL     1       5.513  -1.007  -0.254  0.00  0.00    +0.258 C 
BRANCH  26  27
ATOM     27  C   UNL     1       6.031  -2.195   0.533  0.00  0.00    +0.200 C 
BRANCH  27   3
ATOM      3  O   UNL     1       5.939  -1.907   1.923  0.00  0.00    -0.380 OA
ATOM     28  C   UNL     1       6.392  -2.998   2.712  0.00  0.00    +0.194 C 
ENDBRANCH  27   3
ENDBRANCH  26  27
ENDBRANCH   2  26
ENDBRANCH  24   2
ENDBRANCH  20  21
BRANCH  18  10
ATOM      4  N   UNL     1      -3.093   0.091   1.330  0.00  0.00    -0.288 NA
ATOM     10  C   UNL     1      -2.962   1.518   0.974  0.00  0.00    +0.146 C 
ATOM     11  C   UNL     1      -3.900   0.042   2.549  0.00  0.00    +0.085 C 
ATOM     14  C   UNL     1      -3.070   2.268   2.315  0.00  0.00    +0.030 C 
ATOM     15  C   UNL     1      -3.321   1.186   3.356  0.00  0.00    +0.017 C 
BRANCH   4   9
ATOM      5  N   UNL     1      -3.409  -2.935  -1.637  0.00  0.00    -0.305 NA
ATOM      9  C   UNL     1      -3.665  -0.721   0.258  0.00  0.00    +0.060 C 
ATOM     12  C   UNL     1      -3.760  -2.184   0.695  0.00  0.00    +0.034 C 
ATOM     13  C   UNL     1      -2.828  -0.610  -1.019  0.00  0.00    +0.034 C 
ATOM     16  C   UNL     1      -4.265  -3.067  -0.450  0.00  0.00    +0.085 C 
ATOM     17  C   UNL     1      -3.362  -1.544  -2.108  0.00  0.00    +0.085 C 
ATOM     19  C   UNL     1      -3.874  -3.821  -2.704  0.00  0.00    +0.104 C 
ENDBRANCH   4   9
ENDBRANCH  18  10
TORSDOF 7
