REMARK  Name = 75536625
REMARK  9 active torsions:
REMARK  status: ('A' for Active; 'I' for Inactive)
REMARK    1  A    between atoms: O_2  and  C_9
REMARK    2  A    between atoms: O_4  and  C_24
REMARK    3  A    between atoms: N_6  and  C_8
REMARK    4  A    between atoms: N_6  and  C_13
REMARK    5  A    between atoms: N_7  and  C_12
REMARK    6  A    between atoms: C_10  and  C_12
REMARK    7  A    between atoms: C_13  and  C_14
REMARK    8  A    between atoms: C_15  and  C_18
REMARK    9  A    between atoms: C_21  and  C_24
REMARK                            x       y       z     vdW  Elec       q    Type
REMARK                         _______ _______ _______ _____ _____    ______ ____
ROOT
ATOM      1  O   UNL     1       4.191   0.657   1.009  0.00  0.00    -0.371 OA
ATOM      8  C   UNL     1       3.097  -1.429   0.776  0.00  0.00    +0.111 C 
ATOM      9  C   UNL     1       3.809  -1.127  -0.531  0.00  0.00    +0.164 C 
ATOM     10  C   UNL     1       4.299   0.313  -0.385  0.00  0.00    +0.165 C 
ATOM     11  C   UNL     1       3.827  -0.516   1.747  0.00  0.00    +0.181 C 
ENDROOT
BRANCH   9   2
ATOM      2  O   UNL     1       4.939  -1.997  -0.623  0.00  0.00    -0.388 OA
ATOM     29  H   UNL     1       5.407  -1.779  -1.447  0.00  0.00    +0.210 HD
ENDBRANCH   9   2
BRANCH   8   6
ATOM      6  N   UNL     1       1.679  -1.086   0.709  0.00  0.00    -0.305 NA
ATOM     28  H   UNL     1       1.339  -0.877   1.648  0.00  0.00    +0.123 HD
BRANCH   6  13
ATOM     13  C   UNL     1       0.896  -2.192   0.170  0.00  0.00    +0.116 C 
BRANCH  13  14
ATOM     14  C   UNL     1      -0.568  -1.851   0.079  0.00  0.00    -0.034 A 
ATOM     16  C   UNL     1      -1.357  -1.846   1.229  0.00  0.00    +0.006 A 
ATOM     17  C   UNL     1      -1.135  -1.540  -1.157  0.00  0.00    +0.006 A 
ATOM     19  C   UNL     1      -2.712  -1.530   1.144  0.00  0.00    +0.015 A 
ATOM     20  C   UNL     1      -2.491  -1.224  -1.242  0.00  0.00    +0.015 A 
ATOM     21  C   UNL     1      -3.280  -1.219  -0.092  0.00  0.00    +0.059 A 
BRANCH  21  24
ATOM      5  O   UNL     1      -5.481  -0.853   0.770  0.00  0.00    -0.245 OA
ATOM     24  C   UNL     1      -4.693  -0.888  -0.181  0.00  0.00    +0.337 C 
BRANCH  24   4
ATOM      4  O   UNL     1      -5.083  -0.611  -1.455  0.00  0.00    -0.477 OA
ATOM     31  H   UNL     1      -6.038  -0.388  -1.504  0.00  0.00    +0.295 HD
ENDBRANCH  24   4
ENDBRANCH  21  24
ENDBRANCH  13  14
ENDBRANCH   6  13
ENDBRANCH   8   6
BRANCH  10  12
ATOM     12  C   UNL     1       3.486   1.317  -1.188  0.00  0.00    +0.138 C 
BRANCH  12   7
ATOM      3  O   UNL     1       0.819   0.932  -2.181  0.00  0.00    -0.270 OA
ATOM      7  N   UNL     1       2.264   1.656  -0.516  0.00  0.00    -0.309 N 
ATOM     15  C   UNL     1       1.010   1.432  -1.076  0.00  0.00    +0.244 C 
ATOM     30  H   UNL     1       2.352   2.149   0.366  0.00  0.00    +0.149 HD
BRANCH  15  18
ATOM     18  C   UNL     1      -0.157   1.864  -0.264  0.00  0.00    +0.037 A 
ATOM     22  C   UNL     1      -1.353   2.213  -0.891  0.00  0.00    +0.013 A 
ATOM     23  C   UNL     1      -0.057   1.918   1.126  0.00  0.00    +0.013 A 
ATOM     25  C   UNL     1      -2.449   2.616  -0.128  0.00  0.00    +0.001 A 
ATOM     26  C   UNL     1      -1.152   2.321   1.889  0.00  0.00    +0.001 A 
ATOM     27  C   UNL     1      -2.349   2.670   1.262  0.00  0.00    +0.000 A 
ENDBRANCH  15  18
ENDBRANCH  12   7
ENDBRANCH  10  12
TORSDOF 9
