REMARK  Name = 45783833
REMARK  4 active torsions:
REMARK  status: ('A' for Active; 'I' for Inactive)
REMARK    1  A    between atoms: N_2  and  C_11
REMARK    2  A    between atoms: C_7  and  C_12
REMARK    3  A    between atoms: C_11  and  C_17
REMARK    4  A    between atoms: C_19  and  C_20
REMARK                            x       y       z     vdW  Elec       q    Type
REMARK                         _______ _______ _______ _____ _____    ______ ____
ROOT
ATOM      1  O   UNL     1      -1.086   3.623  -0.425  0.00  0.00    -0.336 OA
ATOM      4  N   UNL     1      -0.409   1.513  -0.103  0.00  0.00    -0.190 NA
ATOM      5  N   UNL     1       0.314   3.655  -0.456  0.00  0.00    -0.056 NA
ATOM     12  C   UNL     1      -1.429   2.326  -0.212  0.00  0.00    +0.245 A 
ATOM     19  C   UNL     1       0.639   2.373  -0.260  0.00  0.00    +0.202 A 
ENDROOT
BRANCH  19  20
ATOM      3  N   UNL     1       3.873  -1.149   0.239  0.00  0.00    -0.315 N 
ATOM      6  N   UNL     1       4.650   1.038  -0.124  0.00  0.00    -0.240 NA
ATOM     13  C   UNL     1       4.986  -3.131   0.841  0.00  0.00    +0.020 C 
ATOM     14  C   UNL     1       3.609  -3.485   0.306  0.00  0.00    +0.020 C 
ATOM     15  C   UNL     1       5.215  -1.721   0.303  0.00  0.00    +0.106 C 
ATOM     16  C   UNL     1       2.843  -2.169   0.422  0.00  0.00    +0.106 C 
ATOM     18  C   UNL     1       3.610   0.188   0.031  0.00  0.00    +0.122 A 
ATOM     20  C   UNL     1       1.999   1.920  -0.212  0.00  0.00    +0.027 A 
ATOM     21  C   UNL     1       2.280   0.575  -0.005  0.00  0.00    +0.055 A 
ATOM     24  C   UNL     1       3.042   2.825  -0.376  0.00  0.00    +0.031 A 
ATOM     27  C   UNL     1       4.338   2.338  -0.324  0.00  0.00    +0.113 A 
ENDBRANCH  19  20
BRANCH  12   7
ATOM      2  N   UNL     1      -3.186   0.603   0.157  0.00  0.00    -0.287 NA
ATOM      7  C   UNL     1      -2.911   2.023  -0.137  0.00  0.00    +0.146 C 
ATOM      8  C   UNL     1      -3.620   2.800   0.988  0.00  0.00    +0.030 C 
ATOM      9  C   UNL     1      -4.315   1.738   1.828  0.00  0.00    +0.017 C 
ATOM     10  C   UNL     1      -4.460   0.568   0.875  0.00  0.00    +0.085 C 
BRANCH   2  11
ATOM     11  C   UNL     1      -3.204  -0.237  -1.033  0.00  0.00    +0.120 C 
BRANCH  11  17
ATOM     17  C   UNL     1      -2.992  -1.690  -0.698  0.00  0.00    -0.033 A 
ATOM     22  C   UNL     1      -1.701  -2.217  -0.665  0.00  0.00    +0.005 A 
ATOM     23  C   UNL     1      -4.087  -2.509  -0.421  0.00  0.00    +0.005 A 
ATOM     25  C   UNL     1      -1.505  -3.562  -0.354  0.00  0.00    +0.000 A 
ATOM     26  C   UNL     1      -3.891  -3.854  -0.111  0.00  0.00    +0.000 A 
ATOM     28  C   UNL     1      -2.600  -4.381  -0.077  0.00  0.00    +0.000 A 
ENDBRANCH  11  17
ENDBRANCH   2  11
ENDBRANCH  12   7
TORSDOF 4
