REMARK  Name = 40777145
REMARK  9 active torsions:
REMARK  status: ('A' for Active; 'I' for Inactive)
REMARK    1  A    between atoms: O_5  and  C_36
REMARK    2  A    between atoms: N_8  and  C_18
REMARK    3  A    between atoms: C_12  and  C_19
REMARK    4  A    between atoms: C_13  and  C_18
REMARK    5  A    between atoms: C_21  and  C_24
REMARK    6  A    between atoms: C_22  and  C_26
REMARK    7  A    between atoms: C_23  and  C_25
REMARK    8  A    between atoms: C_29  and  C_36
REMARK    9  A    between atoms: C_34  and  C_38
REMARK                            x       y       z     vdW  Elec       q    Type
REMARK                         _______ _______ _______ _____ _____    ______ ____
ROOT
ATOM      7  N   UNL     1      -1.310  -2.423   1.508  0.00  0.00    -0.297 NA
ATOM     11  C   UNL     1      -0.996  -2.550  -1.075  0.00  0.00    +0.002 C 
ATOM     12  C   UNL     1       0.370  -2.321  -0.372  0.00  0.00    +0.055 C 
ATOM     13  C   UNL     1      -2.276  -1.516   0.833  0.00  0.00    +0.074 C 
ATOM     14  C   UNL     1      -1.970  -1.421  -0.677  0.00  0.00    +0.024 C 
ATOM     15  C   UNL     1      -1.573  -3.866  -0.509  0.00  0.00    +0.019 C 
ATOM     16  C   UNL     1       0.079  -2.055   1.133  0.00  0.00    +0.094 C 
ATOM     17  C   UNL     1      -1.569  -3.801   1.028  0.00  0.00    +0.085 C 
ENDROOT
BRANCH  12  19
ATOM      9  N   UNL     1       0.895  -0.638  -2.067  0.00  0.00    -0.237 NA
ATOM     10  N   UNL     1       2.983   0.565  -2.079  0.00  0.00    -0.232 NA
ATOM     19  C   UNL     1       1.321  -1.292  -0.966  0.00  0.00    +0.050 A 
ATOM     20  C   UNL     1       2.548  -1.076  -0.373  0.00  0.00    +0.052 A 
ATOM     21  C   UNL     1       3.345  -0.127  -0.978  0.00  0.00    +0.075 A 
ATOM     22  C   UNL     1       1.764   0.263  -2.564  0.00  0.00    +0.127 A 
ATOM     26  C   UNL     1       1.329   1.006  -3.782  0.00  0.00    +0.088 C 
BRANCH  21  24
ATOM     24  C   UNL     1       4.653   0.192  -0.456  0.00  0.00    +0.000 A 
ATOM     27  C   UNL     1       4.785   0.681   0.843  0.00  0.00    +0.010 A 
ATOM     28  C   UNL     1       5.785   0.008  -1.251  0.00  0.00    +0.010 A 
ATOM     31  C   UNL     1       6.048   0.989   1.348  0.00  0.00    +0.013 A 
ATOM     32  C   UNL     1       7.048   0.315  -0.746  0.00  0.00    +0.013 A 
ATOM     34  C   UNL     1       7.180   0.805   0.554  0.00  0.00    +0.055 A 
BRANCH  34  38
ATOM      1  F   UNL     1       9.383   0.067   1.123  0.00  0.00    -0.166 F 
ATOM      2  F   UNL     1       8.485   1.601   2.375  0.00  0.00    -0.166 F 
ATOM      3  F   UNL     1       9.187   2.094   0.377  0.00  0.00    -0.166 F 
ATOM     38  C   UNL     1       8.531   1.134   1.093  0.00  0.00    +0.417 C 
ENDBRANCH  34  38
ENDBRANCH  21  24
ENDBRANCH  12  19
BRANCH  13  18
ATOM     18  C   UNL     1      -2.337  -0.136   1.491  0.00  0.00    +0.123 C 
BRANCH  18   8
ATOM      4  O   UNL     1      -5.086   0.033   2.303  0.00  0.00    -0.270 OA
ATOM      8  N   UNL     1      -3.356   0.670   0.893  0.00  0.00    -0.310 N 
ATOM     23  C   UNL     1      -4.672   0.692   1.353  0.00  0.00    +0.245 C 
ATOM     39  H   UNL     1      -3.105   1.236   0.087  0.00  0.00    +0.149 HD
BRANCH  23  25
ATOM     25  C   UNL     1      -5.617   1.562   0.606  0.00  0.00    +0.051 A 
ATOM     29  C   UNL     1      -6.749   1.036  -0.015  0.00  0.00    +0.071 A 
ATOM     30  C   UNL     1      -5.353   2.930   0.534  0.00  0.00    +0.014 A 
ATOM     33  C   UNL     1      -7.619   1.878  -0.709  0.00  0.00    +0.016 A 
ATOM     35  C   UNL     1      -6.223   3.772  -0.160  0.00  0.00    +0.001 A 
ATOM     37  C   UNL     1      -7.355   3.246  -0.781  0.00  0.00    +0.001 A 
BRANCH  29  36
ATOM      6  O   UNL     1      -6.217  -1.292   0.126  0.00  0.00    -0.245 OA
ATOM     36  C   UNL     1      -7.052  -0.388   0.043  0.00  0.00    +0.338 C 
BRANCH  36   5
ATOM      5  O   UNL     1      -8.389  -0.635  -0.003  0.00  0.00    -0.477 OA
ATOM     40  H   UNL     1      -8.584  -1.596   0.037  0.00  0.00    +0.295 HD
ENDBRANCH  36   5
ENDBRANCH  29  36
ENDBRANCH  23  25
ENDBRANCH  18   8
ENDBRANCH  13  18
TORSDOF 8
