REMARK  Name = 11883013
REMARK  14 active torsions:
REMARK  status: ('A' for Active; 'I' for Inactive)
REMARK    1  A    between atoms: O_2  and  C_16
REMARK    2  A    between atoms: O_3  and  C_21
REMARK    3  A    between atoms: N_8  and  C_27
REMARK    4  A    between atoms: N_10  and  C_29
REMARK    5  A    between atoms: C_11  and  C_19
REMARK    6  A    between atoms: C_13  and  C_21
REMARK    7  A    between atoms: C_13  and  C_22
REMARK    8  A    between atoms: C_14  and  C_24
REMARK    9  A    between atoms: C_24  and  C_25
REMARK   10  A    between atoms: C_27  and  C_29
REMARK   11  A    between atoms: C_28  and  C_30
REMARK   12  A    between atoms: C_30  and  C_31
REMARK   13  A    between atoms: C_30  and  C_32
REMARK   14  A    between atoms: C_30  and  C_33
REMARK                            x       y       z     vdW  Elec       q    Type
REMARK                         _______ _______ _______ _____ _____    ______ ____
ROOT
ATOM      1  S   UNL     1      -0.609   2.900  -0.840  0.00  0.00    -0.057 S 
ATOM      5  O   UNL     1       3.226   1.033   0.989  0.00  0.00    -0.275 OA
ATOM      7  N   UNL     1       0.342   0.860   0.435  0.00  0.00    -0.229 NA
ATOM      9  N   UNL     1       1.898   2.613  -0.128  0.00  0.00    -0.264 N 
ATOM     11  C   UNL     1      -3.269  -0.450   0.771  0.00  0.00    -0.019 C 
ATOM     12  C   UNL     1      -3.721   0.214  -0.604  0.00  0.00    +0.011 C 
ATOM     13  C   UNL     1      -5.249   0.110  -0.980  0.00  0.00    +0.021 C 
ATOM     14  C   UNL     1      -1.680  -0.618   0.739  0.00  0.00    +0.054 C 
ATOM     15  C   UNL     1      -3.906  -1.858   0.898  0.00  0.00    +0.010 C 
ATOM     16  C   UNL     1      -5.735  -1.350  -0.752  0.00  0.00    +0.123 C 
ATOM     17  C   UNL     1      -3.131   1.645  -0.765  0.00  0.00    +0.049 C 
ATOM     18  C   UNL     1      -5.405  -1.883   0.638  0.00  0.00    +0.032 C 
ATOM     19  C   UNL     1      -3.672   0.391   2.007  0.00  0.00    +0.012 C 
ATOM     20  C   UNL     1      -1.012   0.645   0.257  0.00  0.00    +0.058 A 
ATOM     22  C   UNL     1      -5.421   0.423  -2.493  0.00  0.00    +0.016 C 
ATOM     23  C   UNL     1      -1.678   1.638  -0.432  0.00  0.00    +0.015 A 
ATOM     26  C   UNL     1       0.664   2.020  -0.095  0.00  0.00    +0.165 A 
ATOM     28  C   UNL     1       3.100   2.106   0.404  0.00  0.00    +0.224 C 
ATOM     41  H   UNL     1       1.915   3.515  -0.593  0.00  0.00    +0.157 HD
ENDROOT
BRANCH  28  30
ATOM     30  C   UNL     1       4.319   3.040   0.193  0.00  0.00    +0.039 C 
ATOM     31  C   UNL     1       5.577   2.421   0.822  0.00  0.00    +0.020 C 
ATOM     32  C   UNL     1       4.543   3.290  -1.307  0.00  0.00    +0.020 C 
ATOM     33  C   UNL     1       4.052   4.395   0.876  0.00  0.00    +0.020 C 
ENDBRANCH  28  30
BRANCH  16   2
ATOM      2  O   UNL     1      -7.144  -1.449  -0.960  0.00  0.00    -0.391 OA
ATOM     38  H   UNL     1      -7.309  -1.428  -1.917  0.00  0.00    +0.210 HD
ENDBRANCH  16   2
BRANCH  13  21
ATOM     21  C   UNL     1      -6.161   1.115  -0.241  0.00  0.00    +0.165 C 
BRANCH  21   3
ATOM      3  O   UNL     1      -7.482   0.908  -0.688  0.00  0.00    -0.394 OA
ATOM     39  H   UNL     1      -7.620   1.450  -1.483  0.00  0.00    +0.209 HD
ENDBRANCH  21   3
ENDBRANCH  13  21
BRANCH  14  24
ATOM     24  C   UNL     1      -1.063  -1.112   2.054  0.00  0.00    +0.106 C 
BRANCH  24  25
ATOM      4  O   UNL     1       1.284  -0.823   2.563  0.00  0.00    -0.276 OA
ATOM      8  N   UNL     1       0.642  -2.383   0.965  0.00  0.00    -0.314 N 
ATOM     25  C   UNL     1       0.414  -1.398   1.915  0.00  0.00    +0.214 C 
ATOM     40  H   UNL     1      -0.144  -2.843   0.517  0.00  0.00    +0.149 HD
BRANCH   8  27
ATOM     27  C   UNL     1       1.962  -2.858   0.621  0.00  0.00    +0.119 C 
BRANCH  27  29
ATOM     29  C   UNL     1       2.540  -2.033  -0.519  0.00  0.00    +0.103 C 
BRANCH  29  10
ATOM      6  O   UNL     1       6.674  -2.033  -1.244  0.00  0.00    -0.377 OA
ATOM     10  N   UNL     1       3.888  -2.478  -0.865  0.00  0.00    -0.297 NA
ATOM     34  C   UNL     1       4.802  -2.309   0.274  0.00  0.00    +0.112 C 
ATOM     35  C   UNL     1       4.398  -1.744  -2.031  0.00  0.00    +0.112 C 
ATOM     36  C   UNL     1       6.204  -2.769  -0.114  0.00  0.00    +0.175 C 
ATOM     37  C   UNL     1       5.809  -2.218  -2.365  0.00  0.00    +0.175 C 
ENDBRANCH  29  10
ENDBRANCH  27  29
ENDBRANCH   8  27
ENDBRANCH  24  25
ENDBRANCH  14  24
TORSDOF 9
