REMARK  Name = 51138172
REMARK  9 active torsions:
REMARK  status: ('A' for Active; 'I' for Inactive)
REMARK    1  A    between atoms: O_2  and  C_20
REMARK    2  A    between atoms: N_5  and  C_27
REMARK    3  A    between atoms: C_6  and  C_12
REMARK    4  A    between atoms: C_7  and  C_13
REMARK    5  A    between atoms: C_12  and  C_17
REMARK    6  A    between atoms: C_17  and  C_25
REMARK    7  A    between atoms: C_17  and  C_26
REMARK    8  A    between atoms: C_27  and  C_28
REMARK    9  A    between atoms: C_29  and  C_30
REMARK                            x       y       z     vdW  Elec       q    Type
REMARK                         _______ _______ _______ _____ _____    ______ ____
ROOT
ATOM      3  N   UNL     1      -1.017   1.778   0.492  0.00  0.00    -0.299 NA
ATOM      5  N   UNL     1       3.119  -1.053   1.107  0.00  0.00    -0.335 N 
ATOM      6  C   UNL     1      -0.001   2.361  -0.394  0.00  0.00    +0.085 C 
ATOM      7  C   UNL     1      -1.288   0.367   0.260  0.00  0.00    +0.145 C 
ATOM      8  C   UNL     1      -0.504  -0.520   1.226  0.00  0.00    +0.065 C 
ATOM      9  C   UNL     1       1.414   1.790  -0.256  0.00  0.00    -0.021 A 
ATOM     10  C   UNL     1       1.744   0.559   0.382  0.00  0.00    +0.008 A 
ATOM     11  C   UNL     1       0.974  -0.468   1.031  0.00  0.00    -0.020 A 
ATOM     14  C   UNL     1       3.079   0.142   0.429  0.00  0.00    +0.050 A 
ATOM     21  C   UNL     1       1.860  -1.432   1.468  0.00  0.00    +0.091 A 
ATOM     22  C   UNL     1       2.489   2.483  -0.870  0.00  0.00    +0.006 A 
ATOM     23  C   UNL     1       4.130   0.863  -0.141  0.00  0.00    +0.026 A 
ATOM     24  C   UNL     1       3.808   2.040  -0.806  0.00  0.00    +0.002 A 
ATOM     31  H   UNL     1      -0.792   1.955   1.470  0.00  0.00    +0.123 HD
ENDROOT
BRANCH   7  13
ATOM      1  O   UNL     1      -3.305   0.929   1.349  0.00  0.00    -0.274 OA
ATOM      4  N   UNL     1      -3.409  -0.793  -0.207  0.00  0.00    -0.300 N 
ATOM     13  C   UNL     1      -2.754   0.200   0.521  0.00  0.00    +0.233 C 
ATOM     15  C   UNL     1      -2.779  -1.675  -1.199  0.00  0.00    +0.110 C 
ATOM     16  C   UNL     1      -4.852  -0.986  -0.042  0.00  0.00    +0.110 C 
ATOM     18  C   UNL     1      -3.063  -3.139  -0.878  0.00  0.00    +0.050 C 
ATOM     19  C   UNL     1      -5.171  -2.437   0.301  0.00  0.00    +0.050 C 
ATOM     20  C   UNL     1      -4.562  -3.394  -0.724  0.00  0.00    +0.118 C 
BRANCH  20   2
ATOM      2  O   UNL     1      -4.758  -4.739  -0.305  0.00  0.00    -0.392 OA
ATOM     32  H   UNL     1      -5.716  -4.879  -0.208  0.00  0.00    +0.210 HD
ENDBRANCH  20   2
ENDBRANCH   7  13
BRANCH   6  12
ATOM     12  C   UNL     1      -0.057   3.873  -0.110  0.00  0.00    +0.026 C 
BRANCH  12  17
ATOM     17  C   UNL     1      -1.260   4.560  -0.762  0.00  0.00    -0.015 C 
ATOM     25  C   UNL     1      -1.202   6.062  -0.473  0.00  0.00    +0.007 C 
ATOM     26  C   UNL     1      -2.596   3.993  -0.281  0.00  0.00    +0.007 C 
ENDBRANCH  12  17
ENDBRANCH   6  12
BRANCH   5  27
ATOM     27  C   UNL     1       4.312  -1.823   1.387  0.00  0.00    +0.210 C 
BRANCH  27  28
ATOM     28  C   UNL     1       4.793  -2.546   0.203  0.00  0.00    -0.081 C 
ATOM     29  C   UNL     1       5.188  -3.137  -0.765  0.00  0.00    -0.104 C 
ATOM     30  C   UNL     1       5.667  -3.857  -1.944  0.00  0.00    +0.106 C 
ENDBRANCH  27  28
ENDBRANCH   5  27
TORSDOF 6
