REMARK  Name = 11912176
REMARK  9 active torsions:
REMARK  status: ('A' for Active; 'I' for Inactive)
REMARK    1  A    between atoms: O_3  and  C_24
REMARK    2  A    between atoms: O_3  and  C_30
REMARK    3  A    between atoms: N_5  and  C_17
REMARK    4  A    between atoms: N_6  and  C_18
REMARK    5  A    between atoms: C_7  and  C_13
REMARK    6  A    between atoms: C_8  and  C_12
REMARK    7  A    between atoms: C_12  and  C_14
REMARK    8  A    between atoms: C_13  and  C_16
REMARK    9  A    between atoms: C_17  and  C_19
REMARK                            x       y       z     vdW  Elec       q    Type
REMARK                         _______ _______ _______ _____ _____    ______ ____
ROOT
ATOM      1  O   UNL     1       2.478  -1.676  -1.963  0.00  0.00    -0.252 OA
ATOM      4  N   UNL     1       1.324   0.305  -1.662  0.00  0.00    -0.285 N 
ATOM      6  N   UNL     1       3.609   0.154  -1.094  0.00  0.00    -0.269 N 
ATOM      7  C   UNL     1      -1.180   1.322  -0.628  0.00  0.00    +0.004 C 
ATOM      8  C   UNL     1       0.177   1.928  -0.181  0.00  0.00    +0.010 C 
ATOM      9  C   UNL     1      -1.028  -0.136  -1.100  0.00  0.00    +0.023 C 
ATOM     10  C   UNL     1       1.222   1.724  -1.291  0.00  0.00    +0.113 C 
ATOM     11  C   UNL     1       0.072  -0.273  -2.152  0.00  0.00    +0.109 C 
ATOM     15  C   UNL     1       2.486  -0.494  -1.607  0.00  0.00    +0.306 C 
ATOM     32  H   UNL     1       3.687   1.156  -1.221  0.00  0.00    +0.156 HD
ENDROOT
BRANCH   6  18
ATOM     18  C   UNL     1       4.686  -0.427  -0.380  0.00  0.00    +0.038 A 
ATOM     20  C   UNL     1       5.739   0.373   0.065  0.00  0.00    +0.069 A 
ATOM     21  C   UNL     1       4.694  -1.798  -0.123  0.00  0.00    +0.023 A 
ATOM     24  C   UNL     1       6.800  -0.199   0.767  0.00  0.00    +0.122 A 
ATOM     25  C   UNL     1       5.755  -2.369   0.579  0.00  0.00    +0.005 A 
ATOM     26  C   UNL     1       6.808  -1.570   1.024  0.00  0.00    +0.046 A 
BRANCH  24   3
ATOM      3  O   UNL     1       7.828   0.581   1.201  0.00  0.00    -0.495 OA
ATOM     30  C   UNL     1       8.880  -0.069   1.912  0.00  0.00    +0.277 C 
ENDBRANCH  24   3
ENDBRANCH   6  18
BRANCH   8  12
ATOM     12  C   UNL     1       0.697   1.379   1.153  0.00  0.00    +0.002 C 
ATOM     14  C   UNL     1       1.972   2.079   1.573  0.00  0.00    +0.004 C 
ENDBRANCH   8  12
BRANCH   7  13
ATOM     13  C   UNL     1      -2.268   1.432   0.440  0.00  0.00    +0.099 C 
BRANCH  13  16
ATOM      2  O   UNL     1      -3.881   1.254  -1.354  0.00  0.00    -0.276 OA
ATOM      5  N   UNL     1      -4.628   1.447   0.839  0.00  0.00    -0.311 N 
ATOM     16  C   UNL     1      -3.659   1.365  -0.151  0.00  0.00    +0.214 C 
ATOM     31  H   UNL     1      -4.340   1.520   1.810  0.00  0.00    +0.149 HD
BRANCH   5  17
ATOM     17  C   UNL     1      -6.046   1.411   0.561  0.00  0.00    +0.139 C 
BRANCH  17  19
ATOM     19  C   UNL     1      -6.587   0.011   0.579  0.00  0.00    -0.030 A 
ATOM     22  C   UNL     1      -6.604  -0.745  -0.593  0.00  0.00    +0.005 A 
ATOM     23  C   UNL     1      -7.072  -0.534   1.768  0.00  0.00    +0.005 A 
ATOM     27  C   UNL     1      -7.106  -2.046  -0.577  0.00  0.00    +0.000 A 
ATOM     28  C   UNL     1      -7.574  -1.836   1.784  0.00  0.00    +0.000 A 
ATOM     29  C   UNL     1      -7.591  -2.591   0.612  0.00  0.00    +0.000 A 
ENDBRANCH  17  19
ENDBRANCH   5  17
ENDBRANCH  13  16
ENDBRANCH   7  13
TORSDOF 7
