REMARK  Name = 26742713
REMARK  3 active torsions:
REMARK  status: ('A' for Active; 'I' for Inactive)
REMARK    1  A    between atoms: N_3  and  C_12
REMARK    2  A    between atoms: N_5  and  C_22
REMARK    3  A    between atoms: C_22  and  C_23
REMARK                            x       y       z     vdW  Elec       q    Type
REMARK                         _______ _______ _______ _____ _____    ______ ____
ROOT
ATOM      1  O   UNL     1       2.985  -2.634   0.049  0.00  0.00    -0.276 OA
ATOM      2  O   UNL     1      -4.978  -1.067  -0.464  0.00  0.00    -0.253 OA
ATOM      3  N   UNL     1       2.584  -0.370  -0.280  0.00  0.00    -0.298 N 
ATOM      4  N   UNL     1      -2.702  -0.629  -0.301  0.00  0.00    -0.285 N 
ATOM      5  N   UNL     1      -4.273   1.107  -0.654  0.00  0.00    -0.296 N 
ATOM      6  C   UNL     1      -0.500   0.044   0.678  0.00  0.00    +0.011 C 
ATOM      7  C   UNL     1      -0.104  -1.442   0.825  0.00  0.00    +0.004 C 
ATOM      8  C   UNL     1       0.695   1.004   0.548  0.00  0.00    +0.024 C 
ATOM      9  C   UNL     1      -1.391  -2.265   1.020  0.00  0.00    +0.023 C 
ATOM     10  C   UNL     1      -1.539   0.265  -0.441  0.00  0.00    +0.113 C 
ATOM     11  C   UNL     1       0.725  -1.995  -0.346  0.00  0.00    +0.100 C 
ATOM     13  C   UNL     1       1.651   0.709  -0.603  0.00  0.00    +0.108 C 
ATOM     14  C   UNL     1      -2.388  -2.047  -0.112  0.00  0.00    +0.109 C 
ATOM     15  C   UNL     1       2.205  -1.705  -0.177  0.00  0.00    +0.216 C 
ATOM     21  C   UNL     1      -4.049  -0.253  -0.470  0.00  0.00    +0.302 C 
ATOM     25  H   UNL     1      -3.526   1.784  -0.606  0.00  0.00    +0.151 HD
ENDROOT
BRANCH   3  12
ATOM     12  C   UNL     1       3.958   0.009  -0.056  0.00  0.00    +0.076 C 
ATOM     16  C   UNL     1       4.561   0.632  -1.318  0.00  0.00    +0.022 C 
ATOM     17  C   UNL     1       4.065   0.958   1.140  0.00  0.00    +0.022 C 
ATOM     18  C   UNL     1       5.998   1.091  -1.087  0.00  0.00    +0.002 C 
ATOM     19  C   UNL     1       5.503   1.418   1.367  0.00  0.00    +0.002 C 
ATOM     20  C   UNL     1       6.102   2.035   0.107  0.00  0.00    +0.000 C 
ENDBRANCH   3  12
BRANCH   5  22
ATOM     22  C   UNL     1      -5.598   1.650  -0.850  0.00  0.00    +0.132 C 
BRANCH  22  23
ATOM     23  C   UNL     1      -6.183   1.999   0.478  0.00  0.00    -0.016 C 
ATOM     24  C   UNL     1      -7.326   1.486   0.948  0.00  0.00    +0.005 C 
ENDBRANCH  22  23
ENDBRANCH   5  22
TORSDOF 3
