REMARK  Name = 7664150
REMARK  5 active torsions:
REMARK  status: ('A' for Active; 'I' for Inactive)
REMARK    1  A    between atoms: N_8  and  C_22
REMARK    2  A    between atoms: N_9  and  C_20
REMARK    3  A    between atoms: C_23  and  C_26
REMARK    4  A    between atoms: C_29  and  C_32
REMARK    5  A    between atoms: C_32  and  C_36
REMARK                            x       y       z     vdW  Elec       q    Type
REMARK                         _______ _______ _______ _____ _____    ______ ____
ROOT
ATOM      2  O   UNL     1       0.197   2.591   1.836  0.00  0.00    -0.266 OA
ATOM      3  O   UNL     1      -3.750  -0.833   1.871  0.00  0.00    -0.252 OA
ATOM      6  N   UNL     1      -4.178   0.745   0.233  0.00  0.00    -0.284 N 
ATOM      7  N   UNL     1      -1.590   2.610   0.330  0.00  0.00    -0.310 N 
ATOM      8  N   UNL     1      -3.310  -1.373  -0.340  0.00  0.00    -0.269 N 
ATOM     10  C   UNL     1      -3.998   3.103   1.044  0.00  0.00    +0.027 C 
ATOM     11  C   UNL     1      -3.506   2.584  -1.307  0.00  0.00    +0.054 C 
ATOM     12  C   UNL     1      -4.175   3.600  -0.385  0.00  0.00    +0.018 C 
ATOM     13  C   UNL     1      -4.655   1.723   1.216  0.00  0.00    +0.114 C 
ATOM     14  C   UNL     1      -2.503   3.076   1.382  0.00  0.00    +0.130 C 
ATOM     15  C   UNL     1      -4.200   1.212  -1.165  0.00  0.00    +0.119 C 
ATOM     16  C   UNL     1      -2.029   2.443  -0.987  0.00  0.00    +0.027 A 
ATOM     17  C   UNL     1      -1.153   2.128  -1.956  0.00  0.00    +0.024 A 
ATOM     18  C   UNL     1      -0.239   2.439   0.694  0.00  0.00    +0.273 A 
ATOM     19  C   UNL     1      -3.736  -0.521   0.677  0.00  0.00    +0.306 C 
ATOM     20  C   UNL     1       0.700   2.063  -0.410  0.00  0.00    +0.099 A 
ATOM     21  C   UNL     1       0.238   1.934  -1.659  0.00  0.00    +0.030 A 
ATOM     37  H   UNL     1      -3.711  -1.257  -1.264  0.00  0.00    +0.156 HD
ENDROOT
BRANCH   8  22
ATOM     22  C   UNL     1      -2.394  -2.448  -0.229  0.00  0.00    +0.035 A 
ATOM     24  C   UNL     1      -1.743  -2.682   0.979  0.00  0.00    +0.024 A 
ATOM     25  C   UNL     1      -2.149  -3.265  -1.330  0.00  0.00    +0.024 A 
ATOM     27  C   UNL     1      -0.841  -3.740   1.088  0.00  0.00    +0.013 A 
ATOM     28  C   UNL     1      -1.247  -4.323  -1.221  0.00  0.00    +0.013 A 
ATOM     29  C   UNL     1      -0.593  -4.561  -0.012  0.00  0.00    +0.017 A 
BRANCH  29  32
ATOM      5  O   UNL     1       0.588  -6.416  -0.866  0.00  0.00    -0.292 OA
ATOM     32  C   UNL     1       0.346  -5.665   0.101  0.00  0.00    +0.160 C 
ATOM     36  C   UNL     1       1.064  -5.931   1.419  0.00  0.00    +0.091 C 
ENDBRANCH  29  32
ENDBRANCH   8  22
BRANCH  20   9
ATOM      4  O   UNL     1       2.526   0.346  -1.775  0.00  0.00    -0.270 OA
ATOM      9  N   UNL     1       2.013   1.873  -0.097  0.00  0.00    -0.277 N 
ATOM     23  C   UNL     1       2.853   1.021  -0.802  0.00  0.00    +0.248 C 
ATOM     38  H   UNL     1       2.310   2.282   0.782  0.00  0.00    +0.155 HD
BRANCH  23  26
ATOM      1  F   UNL     1       8.137   0.805   0.989  0.00  0.00    -0.205 F 
ATOM     26  C   UNL     1       4.259   0.963  -0.325  0.00  0.00    +0.037 A 
ATOM     30  C   UNL     1       5.253   0.636  -1.223  0.00  0.00    +0.016 A 
ATOM     31  C   UNL     1       4.525   1.238   1.000  0.00  0.00    +0.016 A 
ATOM     33  C   UNL     1       6.574   0.582  -0.776  0.00  0.00    +0.039 A 
ATOM     34  C   UNL     1       5.845   1.185   1.448  0.00  0.00    +0.039 A 
ATOM     35  C   UNL     1       6.870   0.857   0.559  0.00  0.00    +0.123 A 
ENDBRANCH  23  26
ENDBRANCH  20   9
TORSDOF 4
