REMARK  Name = 51137058
REMARK  3 active torsions:
REMARK  status: ('A' for Active; 'I' for Inactive)
REMARK    1  A    between atoms: N_2  and  C_5
REMARK    2  A    between atoms: C_4  and  C_5
REMARK    3  A    between atoms: C_6  and  C_15
REMARK                            x       y       z     vdW  Elec       q    Type
REMARK                         _______ _______ _______ _____ _____    ______ ____
ROOT
ATOM      2  N   UNL     1      -1.717   1.084  -0.124  0.00  0.00    -0.301 NA
ATOM      6  C   UNL     1       0.479   0.913   0.682  0.00  0.00    +0.090 C 
ATOM      7  C   UNL     1      -0.636   0.104   0.005  0.00  0.00    +0.097 C 
ATOM     10  C   UNL     1      -1.061   2.312  -0.572  0.00  0.00    +0.085 C 
ATOM     11  C   UNL     1       0.179   2.376   0.310  0.00  0.00    +0.029 C 
ENDROOT
BRANCH   6  15
ATOM      1  O   UNL     1       2.642   0.003   1.341  0.00  0.00    -0.439 OA
ATOM      3  N   UNL     1       2.415   0.378  -0.883  0.00  0.00    -0.213 NA
ATOM     15  C   UNL     1       1.863   0.433   0.309  0.00  0.00    +0.201 A 
ATOM     16  C   UNL     1       3.808  -0.362   0.731  0.00  0.00    +0.155 A 
ATOM     17  C   UNL     1       3.665  -0.132  -0.629  0.00  0.00    +0.110 A 
ATOM     18  C   UNL     1       4.951  -0.876   1.332  0.00  0.00    +0.048 A 
ATOM     19  C   UNL     1       4.737  -0.429  -1.483  0.00  0.00    +0.031 A 
ATOM     20  C   UNL     1       6.010  -1.168   0.466  0.00  0.00    +0.004 A 
ATOM     21  C   UNL     1       5.908  -0.950  -0.914  0.00  0.00    +0.002 A 
ENDBRANCH   6  15
BRANCH   2   5
ATOM      5  C   UNL     1      -2.758   0.645  -1.042  0.00  0.00    +0.088 C 
BRANCH   5   4
ATOM      4  C   UNL     1      -3.718  -0.323  -0.353  0.00  0.00    +0.003 C 
ATOM      8  C   UNL     1      -4.413   0.355   0.835  0.00  0.00    +0.005 C 
ATOM      9  C   UNL     1      -4.749  -0.866  -1.352  0.00  0.00    +0.005 C 
ATOM     12  C   UNL     1      -5.418  -0.578   1.507  0.00  0.00    +0.000 C 
ATOM     13  C   UNL     1      -5.753  -1.797  -0.676  0.00  0.00    +0.000 C 
ATOM     14  C   UNL     1      -6.435  -1.122   0.510  0.00  0.00    +0.000 C 
ENDBRANCH   5   4
ENDBRANCH   2   5
TORSDOF 3
