REMARK  Name = 51137063
REMARK  3 active torsions:
REMARK  status: ('A' for Active; 'I' for Inactive)
REMARK    1  A    between atoms: N_3  and  C_9
REMARK    2  A    between atoms: C_5  and  C_10
REMARK    3  A    between atoms: C_9  and  C_11
REMARK                            x       y       z     vdW  Elec       q    Type
REMARK                         _______ _______ _______ _____ _____    ______ ____
ROOT
ATOM      3  N   UNL     1      -2.170   1.428  -0.002  0.00  0.00    -0.297 NA
ATOM      5  C   UNL     1       0.037   1.145   0.738  0.00  0.00    +0.090 C 
ATOM      6  C   UNL     1      -0.187   2.613   0.336  0.00  0.00    +0.029 C 
ATOM      7  C   UNL     1      -1.146   0.388   0.119  0.00  0.00    +0.097 C 
ATOM      8  C   UNL     1      -1.458   2.602  -0.504  0.00  0.00    +0.085 C 
ENDROOT
BRANCH   5  10
ATOM      2  O   UNL     1       2.163   0.124   1.353  0.00  0.00    -0.439 OA
ATOM      4  N   UNL     1       1.885   0.455  -0.872  0.00  0.00    -0.213 NA
ATOM     10  C   UNL     1       1.377   0.574   0.335  0.00  0.00    +0.201 A 
ATOM     12  C   UNL     1       3.284  -0.327   0.717  0.00  0.00    +0.155 A 
ATOM     13  C   UNL     1       3.110  -0.122  -0.644  0.00  0.00    +0.110 A 
ATOM     15  C   UNL     1       4.414  -0.893   1.294  0.00  0.00    +0.048 A 
ATOM     16  C   UNL     1       4.133  -0.506  -1.523  0.00  0.00    +0.031 A 
ATOM     19  C   UNL     1       5.425  -1.270   0.404  0.00  0.00    +0.004 A 
ATOM     20  C   UNL     1       5.290  -1.081  -0.977  0.00  0.00    +0.002 A 
ENDBRANCH   5  10
BRANCH   3   9
ATOM      9  C   UNL     1      -3.265   1.029  -0.874  0.00  0.00    +0.126 C 
BRANCH   9  11
ATOM      1  S   UNL     1      -4.084  -1.593  -1.309  0.00  0.00    -0.100 S 
ATOM     11  C   UNL     1      -3.991  -0.180  -0.346  0.00  0.00    +0.004 A 
ATOM     14  C   UNL     1      -4.630  -0.336   0.864  0.00  0.00    +0.012 A 
ATOM     17  C   UNL     1      -5.204  -1.633   1.002  0.00  0.00    +0.008 A 
ATOM     18  C   UNL     1      -4.982  -2.418  -0.107  0.00  0.00    +0.045 A 
ENDBRANCH   9  11
ENDBRANCH   3   9
TORSDOF 3
