REMARK  Name = 11912250
REMARK  5 active torsions:
REMARK  status: ('A' for Active; 'I' for Inactive)
REMARK    1  A    between atoms: S_1  and  N_9
REMARK    2  A    between atoms: S_1  and  C_26
REMARK    3  A    between atoms: N_10  and  C_24
REMARK    4  A    between atoms: C_12  and  C_18
REMARK    5  A    between atoms: C_13  and  C_23
REMARK                            x       y       z     vdW  Elec       q    Type
REMARK                         _______ _______ _______ _____ _____    ______ ____
ROOT
ATOM      3  O   UNL     1      -3.081  -0.450   1.824  0.00  0.00    -0.275 OA
ATOM      8  N   UNL     1      -1.453  -1.144   0.314  0.00  0.00    -0.298 N 
ATOM      9  N   UNL     1       0.991  -0.613  -1.099  0.00  0.00    -0.162 NA
ATOM     13  C   UNL     1       0.615   0.227   0.074  0.00  0.00    +0.183 C 
ATOM     16  C   UNL     1      -0.366  -0.463   1.018  0.00  0.00    +0.137 C 
ATOM     17  C   UNL     1      -1.086  -1.897  -0.888  0.00  0.00    +0.125 C 
ATOM     18  C   UNL     1      -2.755  -1.078   0.814  0.00  0.00    +0.219 C 
ATOM     19  C   UNL     1       0.420  -1.985  -1.089  0.00  0.00    +0.129 C 
ENDROOT
BRANCH  18  12
ATOM     12  C   UNL     1      -3.795  -1.839   0.046  0.00  0.00    +0.075 C 
ATOM     14  C   UNL     1      -5.147  -1.130   0.155  0.00  0.00    +0.013 C 
ATOM     15  C   UNL     1      -3.874  -3.278   0.559  0.00  0.00    +0.013 C 
ATOM     20  C   UNL     1      -6.255  -1.920  -0.535  0.00  0.00    +0.001 C 
ATOM     21  C   UNL     1      -4.986  -4.063  -0.132  0.00  0.00    +0.001 C 
ATOM     22  C   UNL     1      -6.331  -3.353  -0.017  0.00  0.00    +0.000 C 
ENDBRANCH  18  12
BRANCH  13  23
ATOM      6  O   UNL     1      -0.634   1.417  -1.571  0.00  0.00    -0.274 OA
ATOM     10  N   UNL     1       0.297   2.594   0.208  0.00  0.00    -0.303 N 
ATOM     23  C   UNL     1       0.014   1.457  -0.529  0.00  0.00    +0.234 C 
ATOM     35  H   UNL     1       0.818   2.503   1.076  0.00  0.00    +0.149 HD
BRANCH  10  24
ATOM      7  O   UNL     1       2.139   4.613   0.155  0.00  0.00    -0.274 OA
ATOM     11  N   UNL     1       0.518   6.180   0.524  0.00  0.00    -0.314 N 
ATOM     24  C   UNL     1      -0.147   3.910  -0.171  0.00  0.00    +0.159 C 
ATOM     25  C   UNL     1      -1.514   4.213   0.426  0.00  0.00    +0.033 C 
ATOM     27  C   UNL     1      -1.878   5.665   0.156  0.00  0.00    +0.021 C 
ATOM     28  C   UNL     1       0.942   4.904   0.216  0.00  0.00    +0.233 C 
ATOM     29  C   UNL     1      -0.850   6.564   0.818  0.00  0.00    +0.104 C 
ATOM     36  H   UNL     1       1.239   6.866   0.728  0.00  0.00    +0.149 HD
ENDBRANCH  10  24
ENDBRANCH  13  23
BRANCH   9   1
ATOM      1  S   UNL     1       2.599  -0.471  -1.661  0.00  0.00    +0.062 S 
ATOM      4  O   UNL     1       3.056   0.887  -1.452  0.00  0.00    -0.153 OA
ATOM      5  O   UNL     1       2.700  -1.098  -2.962  0.00  0.00    -0.153 OA
BRANCH   1  26
ATOM      2  F   UNL     1       5.366  -3.922   2.234  0.00  0.00    -0.205 F 
ATOM     26  C   UNL     1       3.428  -1.504  -0.494  0.00  0.00    +0.106 A 
ATOM     30  C   UNL     1       3.586  -2.865  -0.757  0.00  0.00    +0.031 A 
ATOM     31  C   UNL     1       3.924  -0.960   0.690  0.00  0.00    +0.031 A 
ATOM     32  C   UNL     1       4.241  -3.682   0.165  0.00  0.00    +0.040 A 
ATOM     33  C   UNL     1       4.579  -1.777   1.612  0.00  0.00    +0.040 A 
ATOM     34  C   UNL     1       4.737  -3.138   1.349  0.00  0.00    +0.124 A 
ENDBRANCH   1  26
ENDBRANCH   9   1
TORSDOF 5
