REMARK  Name = 71693197
REMARK  15 active torsions:
REMARK  status: ('A' for Active; 'I' for Inactive)
REMARK    1  A    between atoms: O_2  and  C_28
REMARK    2  A    between atoms: O_2  and  C_32
REMARK    3  A    between atoms: O_3  and  C_31
REMARK    4  A    between atoms: N_5  and  C_15
REMARK    5  A    between atoms: C_8  and  C_12
REMARK    6  A    between atoms: C_9  and  C_15
REMARK    7  A    between atoms: C_11  and  C_16
REMARK    8  A    between atoms: C_12  and  C_17
REMARK    9  A    between atoms: C_12  and  C_18
REMARK   10  A    between atoms: C_13  and  C_19
REMARK   11  A    between atoms: C_16  and  C_20
REMARK   12  A    between atoms: C_21  and  C_24
REMARK   13  A    between atoms: C_24  and  C_26
REMARK   14  A    between atoms: C_26  and  C_30
REMARK   15  A    between atoms: C_30  and  C_31
REMARK                            x       y       z     vdW  Elec       q    Type
REMARK                         _______ _______ _______ _____ _____    ______ ____
ROOT
ATOM      8  C   UNL     1       1.896  -1.181   1.185  0.00  0.00    +0.000 C 
ATOM      9  C   UNL     1       3.344  -1.654   0.901  0.00  0.00    +0.032 C 
ATOM     10  C   UNL     1       0.888  -2.267   0.779  0.00  0.00    +0.012 C 
ATOM     11  C   UNL     1       0.997  -2.636  -0.713  0.00  0.00    +0.022 C 
ATOM     13  C   UNL     1       2.436  -2.857  -1.134  0.00  0.00    -0.073 C 
ATOM     14  C   UNL     1       3.471  -2.423  -0.394  0.00  0.00    -0.022 C 
ATOM     19  C   UNL     1       2.658  -3.629  -2.405  0.00  0.00    +0.039 C 
ENDROOT
BRANCH   8  12
ATOM     12  C   UNL     1       1.697  -0.813   2.658  0.00  0.00    -0.013 C 
ATOM     17  C   UNL     1       0.543   0.173   2.809  0.00  0.00    +0.007 C 
ATOM     18  C   UNL     1       1.449  -2.066   3.491  0.00  0.00    +0.007 C 
ENDBRANCH   8  12
BRANCH   9  15
ATOM     15  C   UNL     1       4.320  -0.472   0.891  0.00  0.00    +0.112 C 
BRANCH  15   5
ATOM      1  O   UNL     1       3.608   2.303   1.069  0.00  0.00    -0.276 OA
ATOM      5  N   UNL     1       4.041   0.407  -0.200  0.00  0.00    -0.315 N 
ATOM     21  C   UNL     1       3.702   1.748  -0.022  0.00  0.00    +0.213 C 
ATOM     33  H   UNL     1       4.156   0.052  -1.145  0.00  0.00    +0.149 HD
BRANCH  21  24
ATOM     24  C   UNL     1       3.428   2.450  -1.342  0.00  0.00    +0.096 C 
BRANCH  24  26
ATOM     26  C   UNL     1       2.413   3.587  -1.235  0.00  0.00    +0.020 C 
BRANCH  26  30
ATOM     30  C   UNL     1       1.047   3.103  -0.743  0.00  0.00    +0.121 C 
BRANCH  30  31
ATOM      4  O   UNL     1       0.269   5.401  -0.946  0.00  0.00    -0.251 OA
ATOM     31  C   UNL     1       0.050   4.235  -0.647  0.00  0.00    +0.305 C 
BRANCH  31   3
ATOM      3  O   UNL     1      -1.150   3.801  -0.182  0.00  0.00    -0.481 OA
ATOM     35  H   UNL     1      -1.804   4.530  -0.118  0.00  0.00    +0.295 HD
ENDBRANCH  31   3
ENDBRANCH  30  31
ENDBRANCH  26  30
ENDBRANCH  24  26
ENDBRANCH  21  24
ENDBRANCH  15   5
ENDBRANCH   9  15
BRANCH  11  16
ATOM     16  C   UNL     1       0.324  -1.578  -1.594  0.00  0.00    +0.082 C 
BRANCH  16  20
ATOM      6  N   UNL     1      -1.509  -0.283  -0.489  0.00  0.00    -0.342 N 
ATOM      7  N   UNL     1      -2.122  -2.171  -1.487  0.00  0.00    -0.232 NA
ATOM     20  C   UNL     1      -1.114  -1.376  -1.207  0.00  0.00    +0.109 A 
ATOM     22  C   UNL     1      -2.863  -0.378  -0.292  0.00  0.00    +0.070 A 
ATOM     23  C   UNL     1      -3.222  -1.565  -0.925  0.00  0.00    +0.089 A 
ATOM     25  C   UNL     1      -3.777   0.447   0.364  0.00  0.00    +0.073 A 
ATOM     27  C   UNL     1      -4.567  -1.969  -0.911  0.00  0.00    +0.033 A 
ATOM     28  C   UNL     1      -5.112   0.029   0.368  0.00  0.00    +0.122 A 
ATOM     29  C   UNL     1      -5.502  -1.157  -0.258  0.00  0.00    +0.048 A 
ATOM     34  H   UNL     1      -0.912   0.464  -0.157  0.00  0.00    +0.167 HD
BRANCH  28   2
ATOM      2  O   UNL     1      -6.049   0.796   0.995  0.00  0.00    -0.495 OA
ATOM     32  C   UNL     1      -5.593   1.996   1.616  0.00  0.00    +0.277 C 
ENDBRANCH  28   2
ENDBRANCH  16  20
ENDBRANCH  11  16
TORSDOF 11
