REMARK  Name = 86769126
REMARK  2 active torsions:
REMARK  status: ('A' for Active; 'I' for Inactive)
REMARK    1  A    between atoms: O_2  and  C_17
REMARK    2  A    between atoms: N_9  and  C_26
REMARK                            x       y       z     vdW  Elec       q    Type
REMARK                         _______ _______ _______ _____ _____    ______ ____
ROOT
ATOM      1  O   UNL     1       4.404   2.213   0.275  0.00  0.00    -0.458 OA
ATOM      3  O   UNL     1       0.177   0.887   0.626  0.00  0.00    -0.489 OA
ATOM      4  O   UNL     1       6.202   2.968  -0.895  0.00  0.00    -0.251 OA
ATOM      5  O   UNL     1       2.028  -4.386  -0.278  0.00  0.00    -0.274 OA
ATOM      7  N   UNL     1       2.944  -2.279   0.084  0.00  0.00    -0.300 N 
ATOM      8  N   UNL     1      -0.091  -2.125   0.517  0.00  0.00    -0.304 NA
ATOM     10  C   UNL     1       3.169   0.153  -0.317  0.00  0.00    +0.053 C 
ATOM     11  C   UNL     1       4.549  -0.139  -0.946  0.00  0.00    +0.009 C 
ATOM     12  C   UNL     1       3.077   1.651   0.070  0.00  0.00    +0.213 C 
ATOM     13  C   UNL     1       2.931  -0.942   0.733  0.00  0.00    +0.115 C 
ATOM     14  C   UNL     1       4.481  -1.458  -1.710  0.00  0.00    +0.023 C 
ATOM     15  C   UNL     1       5.015   1.057  -1.760  0.00  0.00    +0.124 C 
ATOM     16  C   UNL     1       4.125  -2.585  -0.737  0.00  0.00    +0.108 C 
ATOM     17  C   UNL     1       2.196   2.121   1.243  0.00  0.00    +0.193 C 
ATOM     18  C   UNL     1       5.275   2.176  -0.776  0.00  0.00    +0.308 C 
ATOM     19  C   UNL     1       1.986  -3.282   0.275  0.00  0.00    +0.229 C 
ATOM     20  C   UNL     1       0.696   2.184   0.917  0.00  0.00    +0.264 C 
ATOM     21  C   UNL     1       0.844  -2.988   1.224  0.00  0.00    +0.178 C 
ATOM     22  C   UNL     1      -1.181   0.815   0.417  0.00  0.00    +0.125 A 
ATOM     23  C   UNL     1      -1.054  -1.522   1.434  0.00  0.00    +0.120 C 
ATOM     24  C   UNL     1      -1.815  -0.394   0.776  0.00  0.00    +0.010 A 
ATOM     25  C   UNL     1      -3.191  -0.542   0.541  0.00  0.00    +0.031 A 
ATOM     26  C   UNL     1      -3.928   0.488  -0.038  0.00  0.00    +0.030 A 
ATOM     27  C   UNL     1      -1.930   1.841  -0.171  0.00  0.00    +0.048 A 
ATOM     28  C   UNL     1      -3.299   1.677  -0.393  0.00  0.00    +0.027 A 
ATOM     34  H   UNL     1      -0.578  -2.650  -0.209  0.00  0.00    +0.123 HD
ENDROOT
BRANCH  26   9
ATOM      6  O   UNL     1      -8.003   0.070  -0.989  0.00  0.00    -0.377 OA
ATOM      9  N   UNL     1      -5.299   0.327  -0.266  0.00  0.00    -0.326 N 
ATOM     29  C   UNL     1      -5.732  -0.768  -1.145  0.00  0.00    +0.133 C 
ATOM     30  C   UNL     1      -6.188   1.494  -0.237  0.00  0.00    +0.133 C 
ATOM     31  C   UNL     1      -7.194  -1.100  -0.871  0.00  0.00    +0.178 C 
ATOM     32  C   UNL     1      -7.626   1.041  -0.013  0.00  0.00    +0.178 C 
ENDBRANCH  26   9
BRANCH  17   2
ATOM      2  O   UNL     1       2.431   1.346   2.410  0.00  0.00    -0.385 OA
ATOM     33  H   UNL     1       1.865   1.697   3.118  0.00  0.00    +0.210 HD
ENDBRANCH  17   2
TORSDOF 2
