REMARK  Name = 40467589
REMARK  3 active torsions:
REMARK  status: ('A' for Active; 'I' for Inactive)
REMARK    1  A    between atoms: S_1  and  N_5
REMARK    2  A    between atoms: S_1  and  C_19
REMARK    3  A    between atoms: C_15  and  C_20
REMARK                            x       y       z     vdW  Elec       q    Type
REMARK                         _______ _______ _______ _____ _____    ______ ____
ROOT
ATOM      4  O   UNL     1      -2.726  -3.991   0.568  0.00  0.00    -0.268 OA
ATOM      5  N   UNL     1       1.167  -0.955   0.171  0.00  0.00    -0.176 NA
ATOM      6  N   UNL     1      -1.743  -2.056  -0.314  0.00  0.00    -0.311 N 
ATOM      8  C   UNL     1       0.321  -2.170  -1.832  0.00  0.00    +0.025 C 
ATOM      9  C   UNL     1      -0.644   0.008  -1.238  0.00  0.00    +0.053 C 
ATOM     10  C   UNL     1      -0.213  -0.871  -2.410  0.00  0.00    +0.017 C 
ATOM     11  C   UNL     1       1.527  -1.907  -0.917  0.00  0.00    +0.114 C 
ATOM     12  C   UNL     1       0.579   0.313  -0.351  0.00  0.00    +0.119 C 
ATOM     13  C   UNL     1      -0.818  -2.884  -1.101  0.00  0.00    +0.130 C 
ATOM     14  C   UNL     1      -1.758  -0.651  -0.419  0.00  0.00    +0.034 A 
ATOM     15  C   UNL     1      -2.726   0.064   0.211  0.00  0.00    +0.003 A 
ATOM     16  C   UNL     1      -2.684  -2.766   0.453  0.00  0.00    +0.252 A 
ATOM     17  C   UNL     1      -3.712  -0.633   1.016  0.00  0.00    +0.015 A 
ATOM     18  C   UNL     1      -3.707  -1.959   1.157  0.00  0.00    +0.071 A 
ENDROOT
BRANCH  15  20
ATOM      7  N   UNL     1      -3.558   3.501  -1.016  0.00  0.00    -0.263 NA
ATOM     20  C   UNL     1      -2.757   1.522   0.117  0.00  0.00    +0.002 A 
ATOM     23  C   UNL     1      -2.054   2.313   1.018  0.00  0.00    +0.011 A 
ATOM     24  C   UNL     1      -3.488   2.159  -0.873  0.00  0.00    +0.119 A 
ATOM     27  C   UNL     1      -2.102   3.698   0.903  0.00  0.00    +0.020 A 
ATOM     29  C   UNL     1      -2.861   4.238  -0.122  0.00  0.00    +0.111 A 
ENDBRANCH  15  20
BRANCH   5   1
ATOM      1  S   UNL     1       2.332  -0.775   1.412  0.00  0.00    +0.061 S 
ATOM      2  O   UNL     1       2.926  -2.064   1.695  0.00  0.00    -0.153 OA
ATOM      3  O   UNL     1       1.769   0.034   2.473  0.00  0.00    -0.153 OA
BRANCH   1  19
ATOM     19  C   UNL     1       3.537   0.201   0.568  0.00  0.00    +0.105 A 
ATOM     21  C   UNL     1       3.459   1.593   0.607  0.00  0.00    +0.028 A 
ATOM     22  C   UNL     1       4.566  -0.420  -0.140  0.00  0.00    +0.028 A 
ATOM     25  C   UNL     1       4.411   2.364  -0.061  0.00  0.00    +0.002 A 
ATOM     26  C   UNL     1       5.518   0.351  -0.807  0.00  0.00    +0.002 A 
ATOM     28  C   UNL     1       5.440   1.743  -0.768  0.00  0.00    +0.000 A 
ENDBRANCH   1  19
ENDBRANCH   5   1
TORSDOF 3
