REMARK  Name = 75536768
REMARK  6 active torsions:
REMARK  status: ('A' for Active; 'I' for Inactive)
REMARK    1  A    between atoms: O_4  and  C_11
REMARK    2  A    between atoms: N_6  and  C_9
REMARK    3  A    between atoms: N_6  and  C_10
REMARK    4  A    between atoms: N_7  and  C_19
REMARK    5  A    between atoms: N_8  and  C_21
REMARK    6  A    between atoms: C_14  and  C_19
REMARK                            x       y       z     vdW  Elec       q    Type
REMARK                         _______ _______ _______ _____ _____    ______ ____
ROOT
ATOM      3  O   UNL     1      -0.023  -0.690  -1.292  0.00  0.00    -0.371 OA
ATOM     10  C   UNL     1      -2.012  -0.602   0.003  0.00  0.00    +0.111 C 
ATOM     11  C   UNL     1      -0.983  -1.444   0.734  0.00  0.00    +0.164 C 
ATOM     14  C   UNL     1       0.306  -0.964   0.080  0.00  0.00    +0.165 C 
ATOM     15  C   UNL     1      -1.454  -0.604  -1.411  0.00  0.00    +0.181 C 
ENDROOT
BRANCH  11   4
ATOM      4  O   UNL     1      -0.983  -1.216   2.130  0.00  0.00    -0.388 OA
ATOM     28  H   UNL     1      -0.841  -0.267   2.285  0.00  0.00    +0.210 HD
ENDBRANCH  11   4
BRANCH  10   6
ATOM      6  N   UNL     1      -3.362  -1.135   0.079  0.00  0.00    -0.306 NA
ATOM     27  H   UNL     1      -3.564  -1.450   1.027  0.00  0.00    +0.123 HD
BRANCH   6   9
ATOM      1  F   UNL     1      -7.841   2.128  -0.431  0.00  0.00    -0.206 F 
ATOM      2  F   UNL     1      -7.538   0.525   1.006  0.00  0.00    -0.206 F 
ATOM      9  C   UNL     1      -4.340  -0.129  -0.331  0.00  0.00    +0.054 C 
ATOM     12  C   UNL     1      -5.630  -0.816  -0.796  0.00  0.00    +0.024 C 
ATOM     13  C   UNL     1      -4.613   0.835   0.831  0.00  0.00    +0.024 C 
ATOM     16  C   UNL     1      -6.702   0.208  -1.165  0.00  0.00    +0.077 C 
ATOM     17  C   UNL     1      -5.684   1.860   0.463  0.00  0.00    +0.077 C 
ATOM     18  C   UNL     1      -6.954   1.184  -0.028  0.00  0.00    +0.249 C 
ENDBRANCH   6   9
ENDBRANCH  10   6
BRANCH  14  19
ATOM     19  C   UNL     1       1.428  -1.985   0.145  0.00  0.00    +0.140 C 
BRANCH  19   7
ATOM      5  O   UNL     1       3.542  -0.510   1.394  0.00  0.00    -0.253 OA
ATOM      7  N   UNL     1       2.619  -1.493  -0.486  0.00  0.00    -0.297 N 
ATOM      8  N   UNL     1       4.652  -0.426  -0.673  0.00  0.00    -0.269 N 
ATOM     20  C   UNL     1       3.614  -0.774   0.196  0.00  0.00    +0.304 C 
ATOM     29  H   UNL     1       2.740  -1.663  -1.479  0.00  0.00    +0.150 HD
ATOM     30  H   UNL     1       4.557  -0.724  -1.640  0.00  0.00    +0.156 HD
BRANCH   8  21
ATOM     21  C   UNL     1       5.831   0.296  -0.371  0.00  0.00    +0.035 A 
ATOM     22  C   UNL     1       6.765   0.555  -1.374  0.00  0.00    +0.023 A 
ATOM     23  C   UNL     1       6.058   0.749   0.928  0.00  0.00    +0.023 A 
ATOM     24  C   UNL     1       7.928   1.267  -1.077  0.00  0.00    +0.002 A 
ATOM     25  C   UNL     1       7.221   1.461   1.225  0.00  0.00    +0.002 A 
ATOM     26  C   UNL     1       8.155   1.720   0.222  0.00  0.00    +0.000 A 
ENDBRANCH   8  21
ENDBRANCH  19   7
ENDBRANCH  14  19
TORSDOF 6
