REMARK  Name = 28961322
REMARK  8 active torsions:
REMARK  status: ('A' for Active; 'I' for Inactive)
REMARK    1  A    between atoms: O_2  and  C_10
REMARK    2  A    between atoms: O_3  and  C_17
REMARK    3  A    between atoms: N_5  and  C_8
REMARK    4  A    between atoms: N_6  and  C_18
REMARK    5  A    between atoms: N_7  and  C_14
REMARK    6  A    between atoms: C_9  and  C_14
REMARK    7  A    between atoms: C_11  and  C_17
REMARK    8  A    between atoms: C_19  and  C_22
REMARK                            x       y       z     vdW  Elec       q    Type
REMARK                         _______ _______ _______ _____ _____    ______ ____
ROOT
ATOM      1  O   UNL     1       2.108   2.230   0.589  0.00  0.00    -0.365 OA
ATOM      8  C   UNL     1      -0.238   1.839   0.688  0.00  0.00    +0.118 C 
ATOM      9  C   UNL     1       1.135   1.162   0.582  0.00  0.00    +0.155 C 
ATOM     10  C   UNL     1       0.014   3.218   0.098  0.00  0.00    +0.165 C 
ATOM     11  C   UNL     1       1.419   3.494   0.619  0.00  0.00    +0.174 C 
ENDROOT
BRANCH   8   5
ATOM      5  N   UNL     1      -1.357   1.114   0.112  0.00  0.00    -0.292 NA
ATOM      6  N   UNL     1      -3.893  -0.200   0.120  0.00  0.00    -0.327 N 
ATOM     12  C   UNL     1      -1.514  -0.192   0.764  0.00  0.00    +0.104 C 
ATOM     13  C   UNL     1      -2.596   1.890   0.245  0.00  0.00    +0.104 C 
ATOM     15  C   UNL     1      -2.655  -0.989   0.128  0.00  0.00    +0.120 C 
ATOM     16  C   UNL     1      -3.774   1.163  -0.408  0.00  0.00    +0.120 C 
BRANCH   6  18
ATOM     18  C   UNL     1      -5.109  -0.884   0.007  0.00  0.00    +0.030 A 
ATOM     20  C   UNL     1      -5.471  -1.827   0.970  0.00  0.00    +0.023 A 
ATOM     21  C   UNL     1      -5.958  -0.624  -1.069  0.00  0.00    +0.023 A 
ATOM     23  C   UNL     1      -6.683  -2.508   0.857  0.00  0.00    +0.002 A 
ATOM     24  C   UNL     1      -7.170  -1.306  -1.181  0.00  0.00    +0.002 A 
ATOM     25  C   UNL     1      -7.532  -2.248  -0.218  0.00  0.00    +0.000 A 
ENDBRANCH   6  18
ENDBRANCH   8   5
BRANCH  10   2
ATOM      2  O   UNL     1       0.011   3.185  -1.323  0.00  0.00    -0.388 OA
ATOM     31  H   UNL     1       0.068   4.103  -1.639  0.00  0.00    +0.210 HD
ENDBRANCH  10   2
BRANCH   9  14
ATOM     14  C   UNL     1       1.390   0.325  -0.666  0.00  0.00    +0.137 C 
BRANCH  14   7
ATOM      4  O   UNL     1       2.134  -2.219   0.437  0.00  0.00    -0.270 OA
ATOM      7  N   UNL     1       2.703  -0.247  -0.644  0.00  0.00    -0.309 N 
ATOM     19  C   UNL     1       2.975  -1.493  -0.086  0.00  0.00    +0.244 C 
ATOM     32  H   UNL     1       3.457   0.333  -0.998  0.00  0.00    +0.149 HD
BRANCH  19  22
ATOM     22  C   UNL     1       4.394  -1.933  -0.119  0.00  0.00    +0.037 A 
ATOM     26  C   UNL     1       4.872  -2.819   0.847  0.00  0.00    +0.013 A 
ATOM     27  C   UNL     1       5.248  -1.460  -1.115  0.00  0.00    +0.013 A 
ATOM     28  C   UNL     1       6.204  -3.232   0.817  0.00  0.00    +0.001 A 
ATOM     29  C   UNL     1       6.580  -1.873  -1.145  0.00  0.00    +0.001 A 
ATOM     30  C   UNL     1       7.058  -2.759  -0.180  0.00  0.00    +0.000 A 
ENDBRANCH  19  22
ENDBRANCH  14   7
ENDBRANCH   9  14
BRANCH  11  17
ATOM     17  C   UNL     1       2.218   4.519  -0.166  0.00  0.00    +0.190 C 
BRANCH  17   3
ATOM      3  O   UNL     1       3.489   4.674   0.443  0.00  0.00    -0.392 OA
ATOM     33  H   UNL     1       3.977   5.336  -0.076  0.00  0.00    +0.210 HD
ENDBRANCH  17   3
ENDBRANCH  11  17
TORSDOF 8
