REMARK  Name = 11884270
REMARK  2 active torsions:
REMARK  status: ('A' for Active; 'I' for Inactive)
REMARK    1  A    between atoms: N_7  and  C_9
REMARK    2  A    between atoms: C_26  and  C_28
REMARK                            x       y       z     vdW  Elec       q    Type
REMARK                         _______ _______ _______ _____ _____    ______ ____
ROOT
ATOM      2  O   UNL     1      -4.658  -0.454  -2.339  0.00  0.00    -0.253 OA
ATOM      3  O   UNL     1      -1.908  -2.062  -0.124  0.00  0.00    -0.273 OA
ATOM      4  O   UNL     1       1.268   1.954   1.189  0.00  0.00    -0.270 OA
ATOM      5  N   UNL     1      -3.107   0.544  -0.927  0.00  0.00    -0.282 N 
ATOM      6  N   UNL     1      -0.368   0.851  -0.019  0.00  0.00    -0.283 N 
ATOM      7  N   UNL     1      -5.409   0.556  -0.413  0.00  0.00    -0.296 N 
ATOM      8  N   UNL     1       0.337  -2.012   0.242  0.00  0.00    -0.283 N 
ATOM     12  C   UNL     1      -0.710  -0.161  -1.008  0.00  0.00    +0.180 C 
ATOM     16  C   UNL     1      -1.980   0.188  -1.794  0.00  0.00    +0.141 C 
ATOM     17  C   UNL     1      -2.785   1.287   0.297  0.00  0.00    +0.128 C 
ATOM     18  C   UNL     1      -1.378   1.867   0.277  0.00  0.00    +0.128 C 
ATOM     19  C   UNL     1      -4.411   0.172  -1.304  0.00  0.00    +0.303 C 
ATOM     20  C   UNL     1      -0.835  -1.468  -0.240  0.00  0.00    +0.239 C 
ATOM     21  C   UNL     1       0.915   0.994   0.502  0.00  0.00    +0.249 C 
ATOM     22  C   UNL     1       1.919  -0.073   0.248  0.00  0.00    +0.059 A 
ATOM     23  C   UNL     1       1.629  -1.447   0.235  0.00  0.00    +0.046 A 
ATOM     24  C   UNL     1       3.261   0.348   0.197  0.00  0.00    +0.023 A 
ATOM     25  C   UNL     1       2.692  -2.367   0.244  0.00  0.00    +0.024 A 
ATOM     26  C   UNL     1       4.302  -0.579   0.157  0.00  0.00    -0.017 A 
ATOM     27  C   UNL     1       4.018  -1.938   0.195  0.00  0.00    +0.010 A 
ATOM     34  H   UNL     1      -5.156   0.942   0.489  0.00  0.00    +0.151 HD
ATOM     35  H   UNL     1       0.274  -2.979   0.553  0.00  0.00    +0.155 HD
ENDROOT
BRANCH  26  28
ATOM      1 CL   UNL     1       9.955   1.286  -0.072  0.00  0.00    -0.084 Cl
ATOM     28  C   UNL     1       5.675  -0.126   0.101  0.00  0.00    -0.018 A 
ATOM     29  C   UNL     1       6.685  -0.889   0.687  0.00  0.00    +0.010 A 
ATOM     30  C   UNL     1       5.989   1.073  -0.538  0.00  0.00    +0.010 A 
ATOM     31  C   UNL     1       8.009  -0.453   0.634  0.00  0.00    +0.020 A 
ATOM     32  C   UNL     1       7.312   1.510  -0.591  0.00  0.00    +0.020 A 
ATOM     33  C   UNL     1       8.322   0.747  -0.005  0.00  0.00    +0.041 A 
ENDBRANCH  26  28
BRANCH   7   9
ATOM      9  C   UNL     1      -6.804   0.250  -0.638  0.00  0.00    +0.074 C 
ATOM     10  C   UNL     1      -7.166  -1.124  -0.064  0.00  0.00    +0.022 C 
ATOM     11  C   UNL     1      -7.708   1.347  -0.066  0.00  0.00    +0.022 C 
ATOM     13  C   UNL     1      -7.201  -1.128   1.465  0.00  0.00    +0.002 C 
ATOM     14  C   UNL     1      -7.742   1.339   1.462  0.00  0.00    +0.002 C 
ATOM     15  C   UNL     1      -8.116  -0.035   2.010  0.00  0.00    +0.000 C 
ENDBRANCH   7   9
TORSDOF 2
