REMARK  Name = 75536871
REMARK  6 active torsions:
REMARK  status: ('A' for Active; 'I' for Inactive)
REMARK    1  A    between atoms: O_5  and  C_10
REMARK    2  A    between atoms: O_5  and  C_16
REMARK    3  A    between atoms: N_6  and  C_13
REMARK    4  A    between atoms: N_7  and  C_21
REMARK    5  A    between atoms: C_13  and  C_15
REMARK    6  A    between atoms: C_24  and  C_25
REMARK                            x       y       z     vdW  Elec       q    Type
REMARK                         _______ _______ _______ _____ _____    ______ ____
ROOT
ATOM      4  O   UNL     1       2.857   2.983  -1.316  0.00  0.00    -0.375 OA
ATOM      6  N   UNL     1       3.304   0.419  -0.086  0.00  0.00    -0.292 NA
ATOM      9  C   UNL     1       2.317   0.965   0.846  0.00  0.00    +0.131 C 
ATOM     10  C   UNL     1       1.244   1.768   0.101  0.00  0.00    +0.213 C 
ATOM     11  C   UNL     1       4.408   1.331  -0.405  0.00  0.00    +0.113 C 
ATOM     12  C   UNL     1       1.708   3.099  -0.485  0.00  0.00    +0.205 C 
ATOM     14  C   UNL     1       4.051   2.807  -0.562  0.00  0.00    +0.175 C 
ENDROOT
BRANCH  10   5
ATOM      5  O   UNL     1       0.174   2.024   1.012  0.00  0.00    -0.485 OA
BRANCH   5  16
ATOM     16  C   UNL     1      -1.039   1.475   0.699  0.00  0.00    +0.121 A 
ATOM     19  C   UNL     1      -1.168   0.092   0.577  0.00  0.00    +0.046 A 
ATOM     20  C   UNL     1      -2.147   2.300   0.502  0.00  0.00    +0.046 A 
ATOM     22  C   UNL     1      -2.405  -0.467   0.257  0.00  0.00    +0.016 A 
ATOM     23  C   UNL     1      -3.384   1.741   0.182  0.00  0.00    +0.016 A 
ATOM     24  C   UNL     1      -3.513   0.357   0.059  0.00  0.00    +0.055 A 
BRANCH  24  25
ATOM      1  F   UNL     1      -5.334   0.183  -1.483  0.00  0.00    -0.166 F 
ATOM      2  F   UNL     1      -5.815   0.040   0.627  0.00  0.00    -0.166 F 
ATOM      3  F   UNL     1      -4.792  -1.602  -0.365  0.00  0.00    -0.166 F 
ATOM     25  C   UNL     1      -4.836  -0.240  -0.283  0.00  0.00    +0.417 C 
ENDBRANCH  24  25
ENDBRANCH   5  16
ENDBRANCH  10   5
BRANCH   6  13
ATOM     13  C   UNL     1       3.833  -0.862   0.383  0.00  0.00    +0.122 C 
BRANCH  13  15
ATOM      7  N   UNL     1       1.355  -3.412  -0.472  0.00  0.00    -0.274 N 
ATOM      8  N   UNL     1       1.409  -3.669   0.846  0.00  0.00    -0.180 NA
ATOM     15  C   UNL     1       2.816  -1.966   0.265  0.00  0.00    +0.004 A 
ATOM     17  C   UNL     1       2.178  -2.401  -0.872  0.00  0.00    +0.112 A 
ATOM     18  C   UNL     1       2.303  -2.782   1.290  0.00  0.00    +0.139 A 
ATOM     21  C   UNL     1       0.476  -4.185  -1.318  0.00  0.00    +0.172 C 
ENDBRANCH  13  15
ENDBRANCH   6  13
TORSDOF 5
