REMARK  Name = 75536952
REMARK  3 active torsions:
REMARK  status: ('A' for Active; 'I' for Inactive)
REMARK    1  A    between atoms: O_2  and  C_7
REMARK    2  A    between atoms: N_5  and  C_9
REMARK    3  A    between atoms: C_9  and  C_12
REMARK                            x       y       z     vdW  Elec       q    Type
REMARK                         _______ _______ _______ _____ _____    ______ ____
ROOT
ATOM      9  C   UNL     1       0.079   0.938   1.338  0.00  0.00    +0.123 C 
ENDROOT
BRANCH   9  12
ATOM      3  O   UNL     1      -1.103  -1.621   0.389  0.00  0.00    -0.452 OA
ATOM      4  O   UNL     1      -3.278  -1.856  -0.623  0.00  0.00    -0.453 OA
ATOM     12  C   UNL     1      -1.281   0.792   0.708  0.00  0.00    +0.012 A 
ATOM     13  C   UNL     1      -1.759  -0.433   0.292  0.00  0.00    +0.171 A 
ATOM     14  C   UNL     1      -2.103   1.907   0.524  0.00  0.00    +0.009 A 
ATOM     15  C   UNL     1      -3.001  -0.567  -0.286  0.00  0.00    +0.167 A 
ATOM     16  C   UNL     1      -3.372   1.770  -0.067  0.00  0.00    +0.004 A 
ATOM     17  C   UNL     1      -3.833   0.517  -0.479  0.00  0.00    +0.049 A 
ATOM     18  C   UNL     1      -2.071  -2.518  -0.193  0.00  0.00    +0.466 C 
ENDBRANCH   9  12
BRANCH   9   5
ATOM      1  O   UNL     1       3.280   0.331  -1.816  0.00  0.00    -0.376 OA
ATOM      5  N   UNL     1       1.144   0.466   0.452  0.00  0.00    -0.293 NA
ATOM      6  C   UNL     1       2.285  -0.007   1.242  0.00  0.00    +0.118 C 
ATOM      7  C   UNL     1       3.634  -0.173   0.525  0.00  0.00    +0.154 C 
ATOM      8  C   UNL     1       1.483   1.470  -0.558  0.00  0.00    +0.113 C 
ATOM     10  C   UNL     1       3.529  -0.722  -0.891  0.00  0.00    +0.192 C 
ATOM     11  C   UNL     1       1.933   0.781  -1.847  0.00  0.00    +0.175 C 
BRANCH   7   2
ATOM      2  O   UNL     1       4.436  -1.075   1.290  0.00  0.00    -0.388 OA
ATOM     19  H   UNL     1       4.528  -0.700   2.182  0.00  0.00    +0.210 HD
ENDBRANCH   7   2
ENDBRANCH   9   5
TORSDOF 3
