REMARK  Name = 38344332
REMARK  8 active torsions:
REMARK  status: ('A' for Active; 'I' for Inactive)
REMARK    1  A    between atoms: O_3  and  C_19
REMARK    2  A    between atoms: O_3  and  C_24
REMARK    3  A    between atoms: O_4  and  C_29
REMARK    4  A    between atoms: C_11  and  C_16
REMARK    5  A    between atoms: C_17  and  C_19
REMARK    6  A    between atoms: C_20  and  C_21
REMARK    7  A    between atoms: C_24  and  C_29
REMARK    8  A    between atoms: C_25  and  C_28
REMARK                            x       y       z     vdW  Elec       q    Type
REMARK                         _______ _______ _______ _____ _____    ______ ____
ROOT
ATOM      2  O   UNL     1      -2.977   0.592   1.616  0.00  0.00    -0.273 OA
ATOM      6  N   UNL     1      -1.571  -0.758   0.339  0.00  0.00    -0.282 N 
ATOM      7  N   UNL     1      -0.312  -3.691  -1.594  0.00  0.00    -0.347 N 
ATOM      8  N   UNL     1       0.455  -4.390   0.385  0.00  0.00    -0.240 NA
ATOM     11  C   UNL     1      -0.551  -0.876   1.438  0.00  0.00    +0.171 C 
ATOM     12  C   UNL     1      -0.224  -2.368   1.752  0.00  0.00    +0.089 C 
ATOM     13  C   UNL     1      -1.266  -1.413  -0.964  0.00  0.00    +0.163 C 
ATOM     14  C   UNL     1      -0.116  -3.154   0.503  0.00  0.00    +0.066 A 
ATOM     15  C   UNL     1      -0.599  -2.702  -0.701  0.00  0.00    +0.056 A 
ATOM     17  C   UNL     1      -2.703   0.040   0.547  0.00  0.00    +0.242 C 
ATOM     18  C   UNL     1       0.321  -4.686  -0.893  0.00  0.00    +0.197 A 
ATOM     30  H   UNL     1      -0.522  -3.694  -2.584  0.00  0.00    +0.167 HD
ENDROOT
BRANCH  11  16
ATOM      1  O   UNL     1       0.515   1.331   1.571  0.00  0.00    -0.336 OA
ATOM      9  N   UNL     1       1.786  -0.234   0.595  0.00  0.00    -0.190 NA
ATOM     10  N   UNL     1       1.714   1.965   1.220  0.00  0.00    -0.056 NA
ATOM     16  C   UNL     1       0.641   0.040   1.167  0.00  0.00    +0.249 A 
ATOM     20  C   UNL     1       2.411   0.978   0.650  0.00  0.00    +0.202 A 
BRANCH  20  21
ATOM     21  C   UNL     1       3.733   1.168   0.128  0.00  0.00    +0.022 A 
ATOM     22  C   UNL     1       4.413   0.099  -0.456  0.00  0.00    +0.012 A 
ATOM     23  C   UNL     1       4.338   2.422   0.202  0.00  0.00    +0.012 A 
ATOM     25  C   UNL     1       6.304   1.538  -0.889  0.00  0.00    -0.050 A 
ATOM     26  C   UNL     1       5.698   0.283  -0.964  0.00  0.00    +0.004 A 
ATOM     27  C   UNL     1       5.624   2.607  -0.306  0.00  0.00    +0.004 A 
ATOM     28  C   UNL     1       7.678   1.736  -1.433  0.00  0.00    +0.044 C 
ENDBRANCH  20  21
ENDBRANCH  11  16
BRANCH  17  19
ATOM     19  C   UNL     1      -3.631   0.215  -0.630  0.00  0.00    +0.256 C 
BRANCH  19   3
ATOM      3  O   UNL     1      -4.700   1.012  -0.183  0.00  0.00    -0.359 OA
BRANCH   3  24
ATOM     24  C   UNL     1      -5.657   1.253  -1.214  0.00  0.00    +0.280 C 
BRANCH  24  29
ATOM      5  O   UNL     1      -6.876   2.520   0.463  0.00  0.00    -0.248 OA
ATOM     29  C   UNL     1      -6.774   2.107  -0.683  0.00  0.00    +0.331 C 
BRANCH  29   4
ATOM      4  O   UNL     1      -7.673   2.367  -1.666  0.00  0.00    -0.479 OA
ATOM     31  H   UNL     1      -8.414   2.924  -1.346  0.00  0.00    +0.295 HD
ENDBRANCH  29   4
ENDBRANCH  24  29
ENDBRANCH   3  24
ENDBRANCH  19   3
ENDBRANCH  17  19
TORSDOF 7
