REMARK  Name = 45361461
REMARK  12 active torsions:
REMARK  status: ('A' for Active; 'I' for Inactive)
REMARK    1  A    between atoms: O_1  and  C_10
REMARK    2  A    between atoms: N_4  and  C_14
REMARK    3  A    between atoms: N_5  and  C_29
REMARK    4  A    between atoms: N_5  and  C_30
REMARK    5  A    between atoms: C_7  and  C_17
REMARK    6  A    between atoms: C_9  and  C_19
REMARK    7  A    between atoms: C_13  and  C_18
REMARK    8  A    between atoms: C_18  and  C_20
REMARK    9  A    between atoms: C_18  and  C_21
REMARK   10  A    between atoms: C_22  and  C_23
REMARK   11  A    between atoms: C_29  and  C_31
REMARK   12  A    between atoms: C_31  and  C_32
REMARK                            x       y       z     vdW  Elec       q    Type
REMARK                         _______ _______ _______ _____ _____    ______ ____
ROOT
ATOM      7  C   UNL     1      -0.134   2.240   0.250  0.00  0.00    -0.027 C 
ATOM      8  C   UNL     1      -0.115   0.701  -0.036  0.00  0.00    +0.028 C 
ATOM      9  C   UNL     1       1.239   0.275  -0.708  0.00  0.00    +0.012 C 
ATOM     10  C   UNL     1      -1.403   0.251  -0.782  0.00  0.00    +0.122 C 
ATOM     11  C   UNL     1      -1.429   2.607   1.012  0.00  0.00    +0.007 C 
ATOM     12  C   UNL     1       1.065   2.599   1.159  0.00  0.00    +0.009 C 
ATOM     13  C   UNL     1      -2.696   0.711  -0.069  0.00  0.00    +0.029 C 
ATOM     14  C   UNL     1       2.441   0.708   0.178  0.00  0.00    +0.076 C 
ATOM     15  C   UNL     1      -2.693   2.202   0.266  0.00  0.00    +0.007 C 
ATOM     16  C   UNL     1       2.405   2.185   0.570  0.00  0.00    +0.023 C 
ATOM     17  C   UNL     1      -0.063   3.086  -1.046  0.00  0.00    +0.011 C 
ATOM     19  C   UNL     1       1.337  -1.234  -0.991  0.00  0.00    +0.010 C 
ENDROOT
BRANCH  14   4
ATOM      3  O   UNL     1       4.950  -0.001   1.454  0.00  0.00    -0.276 OA
ATOM      4  N   UNL     1       3.708   0.434  -0.465  0.00  0.00    -0.312 N 
ATOM     22  C   UNL     1       4.854   0.103   0.234  0.00  0.00    +0.216 C 
ATOM     33  H   UNL     1       3.756   0.542  -1.474  0.00  0.00    +0.149 HD
BRANCH  22  23
ATOM     23  C   UNL     1       6.019  -0.154  -0.677  0.00  0.00    +0.075 C 
ATOM     24  C   UNL     1       7.338   0.239  -0.008  0.00  0.00    +0.013 C 
ATOM     25  C   UNL     1       6.007  -1.609  -1.150  0.00  0.00    +0.013 C 
ATOM     26  C   UNL     1       7.813  -0.767   1.039  0.00  0.00    +0.001 C 
ATOM     27  C   UNL     1       6.482  -2.591  -0.079  0.00  0.00    +0.001 C 
ATOM     28  C   UNL     1       7.838  -2.189   0.490  0.00  0.00    +0.000 C 
ENDBRANCH  22  23
ENDBRANCH  14   4
BRANCH  10   1
ATOM      1  O   UNL     1      -1.451  -1.176  -0.833  0.00  0.00    -0.391 OA
ATOM     34  H   UNL     1      -1.462  -1.510   0.080  0.00  0.00    +0.210 HD
ENDBRANCH  10   1
BRANCH  13  18
ATOM     18  C   UNL     1      -3.949   0.372  -0.886  0.00  0.00    +0.078 C 
ATOM     20  C   UNL     1      -3.879   1.076  -2.242  0.00  0.00    +0.017 C 
BRANCH  18  21
ATOM      2  O   UNL     1      -5.647   1.935  -0.252  0.00  0.00    -0.275 OA
ATOM      5  N   UNL     1      -5.782  -0.148   0.746  0.00  0.00    -0.303 N 
ATOM     21  C   UNL     1      -5.201   0.791  -0.113  0.00  0.00    +0.219 C 
ATOM     30  C   UNL     1      -6.964   0.227   1.514  0.00  0.00    +0.132 C 
BRANCH   5  29
ATOM     29  C   UNL     1      -5.340  -1.528   0.941  0.00  0.00    +0.122 C 
BRANCH  29  31
ATOM     31  C   UNL     1      -6.018  -2.498  -0.019  0.00  0.00    +0.137 C 
BRANCH  31  32
ATOM      6  N   UNL     1      -5.181  -4.967   0.328  0.00  0.00    -0.197 NA
ATOM     32  C   UNL     1      -5.550  -3.878   0.175  0.00  0.00    +0.064 C 
ENDBRANCH  31  32
ENDBRANCH  29  31
ENDBRANCH   5  29
ENDBRANCH  18  21
ENDBRANCH  13  18
TORSDOF 8
