REMARK  Name = 25390436
REMARK  9 active torsions:
REMARK  status: ('A' for Active; 'I' for Inactive)
REMARK    1  A    between atoms: S_1  and  N_9
REMARK    2  A    between atoms: S_1  and  C_20
REMARK    3  A    between atoms: O_3  and  C_12
REMARK    4  A    between atoms: O_4  and  C_13
REMARK    5  A    between atoms: N_8  and  C_11
REMARK    6  A    between atoms: N_9  and  C_18
REMARK    7  A    between atoms: C_10  and  C_17
REMARK    8  A    between atoms: C_14  and  C_18
REMARK    9  A    between atoms: C_17  and  C_19
REMARK                            x       y       z     vdW  Elec       q    Type
REMARK                         _______ _______ _______ _____ _____    ______ ____
ROOT
ATOM      2  O   UNL     1       0.574   0.727  -0.787  0.00  0.00    -0.366 OA
ATOM     10  C   UNL     1      -0.242   1.631  -0.021  0.00  0.00    +0.158 C 
ATOM     12  C   UNL     1       0.719   2.390   0.877  0.00  0.00    +0.175 C 
ATOM     13  C   UNL     1       1.933   2.521  -0.018  0.00  0.00    +0.175 C 
ATOM     14  C   UNL     1       1.948   1.173  -0.731  0.00  0.00    +0.165 C 
ENDROOT
BRANCH  12   3
ATOM      3  O   UNL     1       0.190   3.633   1.288  0.00  0.00    -0.387 OA
ATOM     22  H   UNL     1       0.896   4.109   1.757  0.00  0.00    +0.210 HD
ENDBRANCH  12   3
BRANCH  13   4
ATOM      4  O   UNL     1       1.720   3.537  -0.997  0.00  0.00    -0.387 OA
ATOM     23  H   UNL     1       2.506   3.560  -1.569  0.00  0.00    +0.210 HD
ENDBRANCH  13   4
BRANCH  10  17
ATOM     17  C   UNL     1      -1.292   0.847   0.745  0.00  0.00    +0.130 C 
BRANCH  17  19
ATOM      5  O   UNL     1      -2.516   0.658  -1.335  0.00  0.00    -0.276 OA
ATOM      8  N   UNL     1      -3.417  -0.269   0.594  0.00  0.00    -0.312 N 
ATOM     19  C   UNL     1      -2.454   0.418  -0.132  0.00  0.00    +0.216 C 
ATOM     21  H   UNL     1      -3.286  -0.418   1.591  0.00  0.00    +0.149 HD
BRANCH   8  11
ATOM     11  C   UNL     1      -4.615  -0.781  -0.006  0.00  0.00    +0.073 C 
ATOM     15  C   UNL     1      -4.629  -2.113  -0.698  0.00  0.00    +0.024 C 
ATOM     16  C   UNL     1      -5.357  -1.935   0.602  0.00  0.00    +0.024 C 
ENDBRANCH   8  11
ENDBRANCH  17  19
ENDBRANCH  10  17
BRANCH  14  18
ATOM     18  C   UNL     1       2.752   0.115   0.011  0.00  0.00    +0.139 C 
BRANCH  18   9
ATOM      9  N   UNL     1       2.714  -1.151  -0.744  0.00  0.00    -0.192 NA
ATOM     24  H   UNL     1       3.205  -1.104  -1.647  0.00  0.00    +0.148 HD
BRANCH   9   1
ATOM      1  S   UNL     1       2.832  -2.629   0.102  0.00  0.00    +0.027 S 
ATOM      6  O   UNL     1       3.077  -3.712  -0.831  0.00  0.00    -0.158 OA
ATOM      7  O   UNL     1       1.739  -2.703   1.053  0.00  0.00    -0.158 OA
ATOM     20  C   UNL     1       4.324  -2.356   1.028  0.00  0.00    +0.214 C 
ENDBRANCH   9   1
ENDBRANCH  18   9
ENDBRANCH  14  18
TORSDOF 8
