REMARK  Name = 7672458
REMARK  4 active torsions:
REMARK  status: ('A' for Active; 'I' for Inactive)
REMARK    1  A    between atoms: N_6  and  C_20
REMARK    2  A    between atoms: C_17  and  C_19
REMARK    3  A    between atoms: C_20  and  C_22
REMARK    4  A    between atoms: C_20  and  C_23
REMARK                            x       y       z     vdW  Elec       q    Type
REMARK                         _______ _______ _______ _____ _____    ______ ____
ROOT
ATOM      2  O   UNL     1      -0.771  -0.533   1.911  0.00  0.00    -0.267 OA
ATOM      3  O   UNL     1       3.453   1.421  -1.860  0.00  0.00    -0.253 OA
ATOM      4  N   UNL     1       3.765  -0.249  -0.278  0.00  0.00    -0.285 N 
ATOM      5  N   UNL     1       0.926  -1.467   0.612  0.00  0.00    -0.311 N 
ATOM      6  N   UNL     1       3.781   2.038   0.325  0.00  0.00    -0.297 N 
ATOM      7  C   UNL     1       3.271  -1.922   1.528  0.00  0.00    +0.027 C 
ATOM      8  C   UNL     1       2.751  -2.466  -0.808  0.00  0.00    +0.054 C 
ATOM      9  C   UNL     1       3.317  -3.034   0.489  0.00  0.00    +0.018 C 
ATOM     10  C   UNL     1       4.106  -0.707   1.078  0.00  0.00    +0.114 C 
ATOM     11  C   UNL     1       1.806  -1.547   1.784  0.00  0.00    +0.130 C 
ATOM     12  C   UNL     1       3.645  -1.309  -1.287  0.00  0.00    +0.119 C 
ATOM     13  C   UNL     1       1.327  -1.976  -0.626  0.00  0.00    +0.027 A 
ATOM     14  C   UNL     1       0.464  -2.004  -1.655  0.00  0.00    +0.022 A 
ATOM     15  C   UNL     1      -0.370  -0.958   0.827  0.00  0.00    +0.260 A 
ATOM     16  C   UNL     1       3.651   1.093  -0.686  0.00  0.00    +0.302 C 
ATOM     17  C   UNL     1      -1.298  -0.969  -0.357  0.00  0.00    +0.053 A 
ATOM     18  C   UNL     1      -0.869  -1.488  -1.516  0.00  0.00    +0.016 A 
ATOM     30  H   UNL     1       4.091   1.776   1.250  0.00  0.00    +0.150 HD
ENDROOT
BRANCH  17  19
ATOM      1  S   UNL     1      -2.905   1.208  -0.600  0.00  0.00    -0.088 S 
ATOM     19  C   UNL     1      -2.621  -0.440  -0.250  0.00  0.00    +0.026 A 
ATOM     21  C   UNL     1      -3.784  -1.088   0.113  0.00  0.00    +0.024 A 
ATOM     24  C   UNL     1      -4.934  -0.229   0.109  0.00  0.00    -0.010 A 
ATOM     25  C   UNL     1      -4.591   1.073  -0.268  0.00  0.00    +0.020 A 
ATOM     26  C   UNL     1      -6.288  -0.503   0.415  0.00  0.00    +0.009 A 
ATOM     27  C   UNL     1      -5.557   2.095  -0.344  0.00  0.00    +0.015 A 
ATOM     28  C   UNL     1      -7.249   0.509   0.340  0.00  0.00    +0.001 A 
ATOM     29  C   UNL     1      -6.885   1.794  -0.036  0.00  0.00    +0.001 A 
ENDBRANCH  17  19
BRANCH   6  20
ATOM     20  C   UNL     1       3.694   3.458   0.067  0.00  0.00    +0.068 C 
ATOM     22  C   UNL     1       5.064   4.016  -0.294  0.00  0.00    +0.027 C 
ATOM     23  C   UNL     1       3.100   4.184   1.267  0.00  0.00    +0.027 C 
ENDBRANCH   6  20
TORSDOF 2
