REMARK  Name = 40780375
REMARK  11 active torsions:
REMARK  status: ('A' for Active; 'I' for Inactive)
REMARK    1  A    between atoms: N_1  and  C_7
REMARK    2  A    between atoms: N_1  and  C_13
REMARK    3  A    between atoms: N_2  and  C_16
REMARK    4  A    between atoms: C_5  and  C_8
REMARK    5  A    between atoms: C_11  and  C_14
REMARK    6  A    between atoms: C_12  and  C_15
REMARK    7  A    between atoms: C_13  and  C_17
REMARK    8  A    between atoms: C_20  and  C_21
REMARK    9  A    between atoms: C_21  and  C_26
REMARK   10  A    between atoms: C_21  and  C_27
REMARK   11  A    between atoms: C_28  and  C_31
REMARK                            x       y       z     vdW  Elec       q    Type
REMARK                         _______ _______ _______ _____ _____    ______ ____
ROOT
ATOM      5  C   UNL     1      -0.531  -0.739  -0.033  0.00  0.00    +0.047 C 
ATOM      6  C   UNL     1      -1.013   0.523   0.708  0.00  0.00    +0.035 C 
ATOM      7  C   UNL     1      -2.098   1.155  -0.182  0.00  0.00    +0.078 C 
ATOM      9  C   UNL     1      -0.920  -0.442  -1.452  0.00  0.00    -0.021 C 
ATOM     10  C   UNL     1      -1.777   0.582  -1.527  0.00  0.00    -0.012 C 
ENDROOT
BRANCH   5   8
ATOM      2  N   UNL     1       3.119  -0.911   0.228  0.00  0.00    -0.236 N 
ATOM      3  N   UNL     1       2.857  -2.112   0.771  0.00  0.00    -0.171 NA
ATOM      8  C   UNL     1       0.938  -1.026   0.172  0.00  0.00    +0.003 A 
ATOM     11  C   UNL     1       2.004  -0.220  -0.147  0.00  0.00    +0.046 A 
ATOM     12  C   UNL     1       1.523  -2.177   0.734  0.00  0.00    +0.064 A 
ATOM     14  C   UNL     1       2.050   1.121  -0.763  0.00  0.00    +0.066 C 
ATOM     15  C   UNL     1       0.842  -3.375   1.255  0.00  0.00    +0.068 C 
BRANCH   2  16
ATOM     16  C   UNL     1       4.441  -0.484   0.097  0.00  0.00    +0.066 A 
ATOM     18  C   UNL     1       5.341  -1.226  -0.669  0.00  0.00    +0.028 A 
ATOM     19  C   UNL     1       4.863   0.682   0.735  0.00  0.00    +0.028 A 
ATOM     20  C   UNL     1       7.085   0.366  -0.158  0.00  0.00    -0.045 A 
ATOM     22  C   UNL     1       6.663  -0.800  -0.796  0.00  0.00    +0.006 A 
ATOM     23  C   UNL     1       6.186   1.107   0.608  0.00  0.00    +0.006 A 
BRANCH  20  21
ATOM     21  C   UNL     1       8.500   0.819  -0.294  0.00  0.00    +0.013 C 
ATOM     26  C   UNL     1       9.241   0.849   1.056  0.00  0.00    +0.012 C 
ATOM     27  C   UNL     1       8.614   2.192  -0.984  0.00  0.00    +0.012 C 
ENDBRANCH  20  21
ENDBRANCH   2  16
ENDBRANCH   5   8
BRANCH   7   1
ATOM      1  N   UNL     1      -3.441   0.786   0.248  0.00  0.00    -0.306 NA
ATOM     32  H   UNL     1      -3.514   0.897   1.260  0.00  0.00    +0.123 HD
BRANCH   1  13
ATOM     13  C   UNL     1      -4.444   1.627  -0.392  0.00  0.00    +0.117 C 
BRANCH  13  17
ATOM     17  C   UNL     1      -5.841   1.254   0.029  0.00  0.00    -0.032 A 
ATOM     24  C   UNL     1      -6.449   0.115  -0.500  0.00  0.00    +0.023 A 
ATOM     25  C   UNL     1      -6.526   2.046   0.950  0.00  0.00    +0.005 A 
ATOM     28  C   UNL     1      -7.741  -0.232  -0.107  0.00  0.00    +0.052 A 
ATOM     29  C   UNL     1      -7.819   1.699   1.343  0.00  0.00    +0.002 A 
ATOM     30  C   UNL     1      -8.427   0.560   0.814  0.00  0.00    +0.019 A 
BRANCH  28  31
ATOM      4  N   UNL     1      -8.874  -2.342  -1.092  0.00  0.00    -0.191 NA
ATOM     31  C   UNL     1      -8.366  -1.397  -0.650  0.00  0.00    +0.099 C 
ENDBRANCH  28  31
ENDBRANCH  13  17
ENDBRANCH   1  13
ENDBRANCH   7   1
TORSDOF 7
