REMARK  Name = 51137387
REMARK  4 active torsions:
REMARK  status: ('A' for Active; 'I' for Inactive)
REMARK    1  A    between atoms: N_2  and  C_5
REMARK    2  A    between atoms: C_7  and  C_15
REMARK    3  A    between atoms: C_16  and  C_17
REMARK    4  A    between atoms: C_17  and  C_18
REMARK                            x       y       z     vdW  Elec       q    Type
REMARK                         _______ _______ _______ _____ _____    ______ ____
ROOT
ATOM      1  O   UNL     1       1.079  -0.822  -0.307  0.00  0.00    -0.424 OA
ATOM      3  N   UNL     1       1.260  -2.907   0.483  0.00  0.00    -0.112 NA
ATOM      4  N   UNL     1       2.386  -2.637  -0.271  0.00  0.00    -0.112 NA
ATOM     15  C   UNL     1       0.525  -1.821   0.434  0.00  0.00    +0.222 A 
ATOM     16  C   UNL     1       2.238  -1.410  -0.713  0.00  0.00    +0.222 A 
ENDROOT
BRANCH  15   7
ATOM      2  N   UNL     1      -2.791  -0.304   0.791  0.00  0.00    -0.299 NA
ATOM      6  C   UNL     1      -1.907  -1.203   0.046  0.00  0.00    +0.097 C 
ATOM      7  C   UNL     1      -0.814  -1.534   1.072  0.00  0.00    +0.092 C 
ATOM      8  C   UNL     1      -1.893   0.598   1.510  0.00  0.00    +0.085 C 
ATOM     11  C   UNL     1      -0.824  -0.345   2.048  0.00  0.00    +0.029 C 
BRANCH   2   5
ATOM      5  C   UNL     1      -3.719   0.413  -0.081  0.00  0.00    +0.057 C 
ATOM      9  C   UNL     1      -4.631  -0.584  -0.804  0.00  0.00    +0.019 C 
ATOM     10  C   UNL     1      -4.538   1.415   0.741  0.00  0.00    +0.019 C 
ATOM     12  C   UNL     1      -5.667   0.133  -1.668  0.00  0.00    +0.002 C 
ATOM     13  C   UNL     1      -5.574   2.130  -0.125  0.00  0.00    +0.002 C 
ATOM     14  C   UNL     1      -6.476   1.140  -0.856  0.00  0.00    +0.000 C 
ENDBRANCH   2   5
ENDBRANCH  15   7
BRANCH  16  17
ATOM     17  C   UNL     1       3.128  -0.606  -1.559  0.00  0.00    +0.132 C 
BRANCH  17  18
ATOM     18  C   UNL     1       3.951   0.437  -0.809  0.00  0.00    -0.038 A 
ATOM     19  C   UNL     1       3.370   1.651  -0.442  0.00  0.00    +0.004 A 
ATOM     20  C   UNL     1       5.284   0.176  -0.491  0.00  0.00    +0.004 A 
ATOM     21  C   UNL     1       4.123   2.605   0.243  0.00  0.00    +0.000 A 
ATOM     22  C   UNL     1       6.036   1.130   0.195  0.00  0.00    +0.000 A 
ATOM     23  C   UNL     1       5.455   2.344   0.562  0.00  0.00    +0.000 A 
ENDBRANCH  17  18
ENDBRANCH  16  17
TORSDOF 4
