REMARK  Name = 11943286
REMARK  5 active torsions:
REMARK  status: ('A' for Active; 'I' for Inactive)
REMARK    1  A    between atoms: N_5  and  C_14
REMARK    2  A    between atoms: C_7  and  C_13
REMARK    3  A    between atoms: C_8  and  C_14
REMARK    4  A    between atoms: C_13  and  C_15
REMARK    5  A    between atoms: C_16  and  C_17
REMARK                            x       y       z     vdW  Elec       q    Type
REMARK                         _______ _______ _______ _____ _____    ______ ____
ROOT
ATOM      3  O   UNL     1      -1.221  -2.129   0.575  0.00  0.00    -0.270 OA
ATOM      5  N   UNL     1      -0.235  -0.063   0.780  0.00  0.00    -0.310 N 
ATOM     16  C   UNL     1      -1.325  -0.903   0.514  0.00  0.00    +0.244 C 
ATOM     23  H   UNL     1      -0.352   0.944   0.793  0.00  0.00    +0.149 HD
ENDROOT
BRANCH  16  17
ATOM      1 CL   UNL     1      -6.488  -1.046   0.495  0.00  0.00    -0.081 Cl
ATOM      2  F   UNL     1      -6.143   1.644  -0.707  0.00  0.00    -0.204 F 
ATOM     17  C   UNL     1      -2.595  -0.237   0.194  0.00  0.00    +0.038 A 
ATOM     18  C   UNL     1      -3.792  -0.884   0.465  0.00  0.00    +0.036 A 
ATOM     19  C   UNL     1      -2.577   1.029  -0.373  0.00  0.00    +0.016 A 
ATOM     20  C   UNL     1      -4.998  -0.251   0.162  0.00  0.00    +0.077 A 
ATOM     21  C   UNL     1      -3.782   1.662  -0.676  0.00  0.00    +0.040 A 
ATOM     22  C   UNL     1      -4.993   1.022  -0.408  0.00  0.00    +0.142 A 
ENDBRANCH  16  17
BRANCH   5  14
ATOM     14  C   UNL     1       1.056  -0.564   1.136  0.00  0.00    +0.123 C 
BRANCH  14   8
ATOM      4  N   UNL     1       3.218  -1.437   0.210  0.00  0.00    -0.298 NA
ATOM      6  C   UNL     1       3.596   0.610  -1.349  0.00  0.00    -0.004 C 
ATOM      7  C   UNL     1       4.498   0.696  -0.097  0.00  0.00    +0.006 C 
ATOM      8  C   UNL     1       1.915  -0.793  -0.109  0.00  0.00    +0.074 C 
ATOM      9  C   UNL     1       2.123   0.511  -0.911  0.00  0.00    +0.024 C 
ATOM     10  C   UNL     1       4.129  -0.462   0.857  0.00  0.00    +0.088 C 
ATOM     11  C   UNL     1       3.948  -0.708  -2.065  0.00  0.00    +0.019 C 
ATOM     12  C   UNL     1       3.837  -1.873  -1.065  0.00  0.00    +0.085 C 
BRANCH   7  13
ATOM     13  C   UNL     1       4.426   2.050   0.606  0.00  0.00    +0.002 C 
ATOM     15  C   UNL     1       5.402   2.125   1.764  0.00  0.00    +0.004 C 
ENDBRANCH   7  13
ENDBRANCH  14   8
ENDBRANCH   5  14
TORSDOF 4
