REMARK  Name = 71693352
REMARK  9 active torsions:
REMARK  status: ('A' for Active; 'I' for Inactive)
REMARK    1  A    between atoms: O_2  and  C_12
REMARK    2  A    between atoms: N_6  and  C_11
REMARK    3  A    between atoms: N_7  and  C_22
REMARK    4  A    between atoms: C_9  and  C_12
REMARK    5  A    between atoms: C_10  and  C_14
REMARK    6  A    between atoms: C_11  and  C_16
REMARK    7  A    between atoms: C_11  and  C_17
REMARK    8  A    between atoms: C_23  and  C_24
REMARK    9  A    between atoms: C_26  and  C_27
REMARK                            x       y       z     vdW  Elec       q    Type
REMARK                         _______ _______ _______ _____ _____    ______ ____
ROOT
ATOM     14  C   UNL     1       1.173  -0.949  -0.299  0.00  0.00    -0.017 A 
ATOM     18  C   UNL     1       0.195  -1.902  -0.018  0.00  0.00    +0.008 A 
ATOM     19  C   UNL     1       0.808   0.375  -0.543  0.00  0.00    +0.008 A 
ATOM     20  C   UNL     1      -1.149  -1.532   0.019  0.00  0.00    +0.023 A 
ATOM     21  C   UNL     1      -0.537   0.745  -0.507  0.00  0.00    +0.023 A 
ATOM     22  C   UNL     1      -1.515  -0.208  -0.226  0.00  0.00    +0.034 A 
ENDROOT
BRANCH  14  10
ATOM      1  O   UNL     1       3.090  -1.156  -1.682  0.00  0.00    -0.361 OA
ATOM      3  O   UNL     1       5.656   1.107  -1.646  0.00  0.00    -0.273 OA
ATOM      6  N   UNL     1       4.248   0.503   0.116  0.00  0.00    -0.289 N 
ATOM      9  C   UNL     1       3.461  -0.576   0.721  0.00  0.00    +0.135 C 
ATOM     10  C   UNL     1       2.635  -1.352  -0.339  0.00  0.00    +0.171 C 
ATOM     13  C   UNL     1       4.866   0.325  -1.120  0.00  0.00    +0.242 C 
ATOM     15  C   UNL     1       4.486  -0.973  -1.790  0.00  0.00    +0.256 C 
BRANCH   6  11
ATOM     11  C   UNL     1       4.476   1.708   0.900  0.00  0.00    +0.070 C 
ATOM     16  C   UNL     1       3.996   2.935   0.136  0.00  0.00    +0.028 C 
ATOM     17  C   UNL     1       5.947   1.832   1.276  0.00  0.00    +0.028 C 
ENDBRANCH   6  11
BRANCH   9  12
ATOM     12  C   UNL     1       4.366  -1.523   1.521  0.00  0.00    +0.181 C 
BRANCH  12   2
ATOM      2  O   UNL     1       4.731  -0.875   2.722  0.00  0.00    -0.393 OA
ATOM     28  H   UNL     1       5.301  -1.486   3.218  0.00  0.00    +0.209 HD
ENDBRANCH  12   2
ENDBRANCH   9  12
ENDBRANCH  14  10
BRANCH  22   7
ATOM      4  O   UNL     1      -3.963  -1.850   0.322  0.00  0.00    -0.268 OA
ATOM      7  N   UNL     1      -2.860   0.162  -0.190  0.00  0.00    -0.280 N 
ATOM     23  C   UNL     1      -3.972  -0.649   0.073  0.00  0.00    +0.270 C 
ATOM     29  H   UNL     1      -3.046   1.146  -0.374  0.00  0.00    +0.155 HD
BRANCH  23  24
ATOM      5  O   UNL     1      -6.693   1.680  -0.105  0.00  0.00    -0.359 OA
ATOM      8  N   UNL     1      -5.342   1.360  -0.175  0.00  0.00    -0.073 NA
ATOM     24  C   UNL     1      -5.285   0.048   0.068  0.00  0.00    +0.168 A 
ATOM     25  C   UNL     1      -6.555  -0.509   0.298  0.00  0.00    +0.080 A 
ATOM     26  C   UNL     1      -7.404   0.559   0.178  0.00  0.00    +0.135 A 
ATOM     27  C   UNL     1      -8.860   0.717   0.290  0.00  0.00    +0.089 C 
ENDBRANCH  23  24
ENDBRANCH  22   7
TORSDOF 6
