REMARK  Name = 7673896
REMARK  8 active torsions:
REMARK  status: ('A' for Active; 'I' for Inactive)
REMARK    1  A    between atoms: N_7  and  C_22
REMARK    2  A    between atoms: N_8  and  C_20
REMARK    3  A    between atoms: N_9  and  C_26
REMARK    4  A    between atoms: N_9  and  C_30
REMARK    5  A    between atoms: N_9  and  C_31
REMARK    6  A    between atoms: C_23  and  C_26
REMARK    7  A    between atoms: C_29  and  C_32
REMARK    8  A    between atoms: C_32  and  C_33
REMARK                            x       y       z     vdW  Elec       q    Type
REMARK                         _______ _______ _______ _____ _____    ______ ____
ROOT
ATOM      1  O   UNL     1      -0.811   2.343   2.216  0.00  0.00    -0.266 OA
ATOM      2  O   UNL     1      -2.642  -2.349   1.538  0.00  0.00    -0.252 OA
ATOM      5  N   UNL     1      -3.633  -1.032  -0.082  0.00  0.00    -0.284 N 
ATOM      6  N   UNL     1      -2.237   1.734   0.467  0.00  0.00    -0.310 N 
ATOM      7  N   UNL     1      -1.750  -2.351  -0.605  0.00  0.00    -0.269 N 
ATOM     10  C   UNL     1      -4.669   1.026   0.849  0.00  0.00    +0.027 C 
ATOM     11  C   UNL     1      -3.740   1.042  -1.433  0.00  0.00    +0.054 C 
ATOM     12  C   UNL     1      -4.892   1.550  -0.566  0.00  0.00    +0.018 C 
ATOM     13  C   UNL     1      -4.631  -0.516   0.858  0.00  0.00    +0.114 C 
ATOM     14  C   UNL     1      -3.373   1.638   1.396  0.00  0.00    +0.130 C 
ATOM     15  C   UNL     1      -3.763  -0.499  -1.450  0.00  0.00    +0.119 C 
ATOM     16  C   UNL     1      -2.404   1.531  -0.907  0.00  0.00    +0.027 A 
ATOM     17  C   UNL     1      -1.377   1.730  -1.750  0.00  0.00    +0.024 A 
ATOM     18  C   UNL     1      -1.002   2.135   1.017  0.00  0.00    +0.273 A 
ATOM     19  C   UNL     1      -2.670  -1.960   0.367  0.00  0.00    +0.306 C 
ATOM     20  C   UNL     1       0.124   2.320   0.047  0.00  0.00    +0.099 A 
ATOM     21  C   UNL     1      -0.088   2.131  -1.260  0.00  0.00    +0.030 A 
ATOM     34  H   UNL     1      -2.047  -2.354  -1.574  0.00  0.00    +0.156 HD
ENDROOT
BRANCH   7  22
ATOM     22  C   UNL     1      -0.405  -2.749  -0.405  0.00  0.00    +0.035 A 
ATOM     24  C   UNL     1       0.130  -2.776   0.883  0.00  0.00    +0.024 A 
ATOM     25  C   UNL     1       0.384  -3.111  -1.497  0.00  0.00    +0.024 A 
ATOM     27  C   UNL     1       1.454  -3.166   1.079  0.00  0.00    +0.013 A 
ATOM     28  C   UNL     1       1.709  -3.501  -1.300  0.00  0.00    +0.013 A 
ATOM     29  C   UNL     1       2.244  -3.529  -0.012  0.00  0.00    +0.017 A 
BRANCH  29  32
ATOM      4  O   UNL     1       4.183  -4.752  -0.568  0.00  0.00    -0.292 OA
ATOM     32  C   UNL     1       3.625  -3.936   0.193  0.00  0.00    +0.160 C 
ATOM     33  C   UNL     1       4.429  -3.368   1.358  0.00  0.00    +0.091 C 
ENDBRANCH  29  32
ENDBRANCH   7  22
BRANCH  20   8
ATOM      3  O   UNL     1       2.677   1.663  -1.064  0.00  0.00    -0.274 OA
ATOM      8  N   UNL     1       1.340   2.690   0.541  0.00  0.00    -0.280 N 
ATOM     23  C   UNL     1       2.550   2.347  -0.051  0.00  0.00    +0.231 C 
ATOM     35  H   UNL     1       1.357   3.038   1.497  0.00  0.00    +0.155 HD
BRANCH  23  26
ATOM     26  C   UNL     1       3.725   2.903   0.729  0.00  0.00    +0.180 C 
BRANCH  26   9
ATOM      9  N   UNL     1       4.824   3.165  -0.188  0.00  0.00    -0.300 NA
ATOM     30  C   UNL     1       4.591   4.404  -0.935  0.00  0.00    +0.105 C 
ATOM     31  C   UNL     1       6.095   3.244   0.537  0.00  0.00    +0.105 C 
ENDBRANCH  26   9
ENDBRANCH  23  26
ENDBRANCH  20   8
TORSDOF 5
