REMARK  Name = 75536622
REMARK  9 active torsions:
REMARK  status: ('A' for Active; 'I' for Inactive)
REMARK    1  A    between atoms: O_2  and  C_8
REMARK    2  A    between atoms: O_4  and  C_20
REMARK    3  A    between atoms: O_4  and  C_26
REMARK    4  A    between atoms: N_5  and  C_7
REMARK    5  A    between atoms: N_5  and  C_12
REMARK    6  A    between atoms: N_6  and  C_11
REMARK    7  A    between atoms: C_9  and  C_11
REMARK    8  A    between atoms: C_12  and  C_13
REMARK    9  A    between atoms: C_14  and  C_17
REMARK                            x       y       z     vdW  Elec       q    Type
REMARK                         _______ _______ _______ _____ _____    ______ ____
ROOT
ATOM      1  O   UNL     1       3.978   0.781   0.927  0.00  0.00    -0.371 OA
ATOM      7  C   UNL     1       2.952  -1.346   0.761  0.00  0.00    +0.111 C 
ATOM      8  C   UNL     1       3.621  -1.045  -0.568  0.00  0.00    +0.164 C 
ATOM      9  C   UNL     1       4.064   0.414  -0.462  0.00  0.00    +0.165 C 
ATOM     10  C   UNL     1       3.673  -0.388   1.696  0.00  0.00    +0.181 C 
ENDROOT
BRANCH   8   2
ATOM      2  O   UNL     1       4.779  -1.878  -0.671  0.00  0.00    -0.388 OA
ATOM     28  H   UNL     1       5.218  -1.660  -1.511  0.00  0.00    +0.210 HD
ENDBRANCH   8   2
BRANCH   7   5
ATOM      5  N   UNL     1       1.521  -1.053   0.723  0.00  0.00    -0.305 NA
ATOM     27  H   UNL     1       1.198  -0.837   1.666  0.00  0.00    +0.123 HD
BRANCH   5  12
ATOM     12  C   UNL     1       0.765  -2.196   0.226  0.00  0.00    +0.116 C 
BRANCH  12  13
ATOM     13  C   UNL     1      -0.712  -1.908   0.164  0.00  0.00    -0.033 A 
ATOM     15  C   UNL     1      -1.472  -1.907   1.334  0.00  0.00    +0.008 A 
ATOM     16  C   UNL     1      -1.319  -1.639  -1.062  0.00  0.00    +0.008 A 
ATOM     18  C   UNL     1      -2.839  -1.637   1.277  0.00  0.00    +0.046 A 
ATOM     19  C   UNL     1      -2.686  -1.369  -1.120  0.00  0.00    +0.046 A 
ATOM     20  C   UNL     1      -3.446  -1.369   0.050  0.00  0.00    +0.120 A 
BRANCH  20   4
ATOM      4  O   UNL     1      -4.780  -1.104  -0.006  0.00  0.00    -0.495 OA
ATOM     26  C   UNL     1      -5.336  -0.837  -1.293  0.00  0.00    +0.277 C 
ENDBRANCH  20   4
ENDBRANCH  12  13
ENDBRANCH   5  12
ENDBRANCH   7   5
BRANCH   9  11
ATOM     11  C   UNL     1       3.196   1.372  -1.264  0.00  0.00    +0.138 C 
BRANCH  11   6
ATOM      3  O   UNL     1       0.522   0.875  -2.183  0.00  0.00    -0.270 OA
ATOM      6  N   UNL     1       1.980   1.682  -0.569  0.00  0.00    -0.309 N 
ATOM     14  C   UNL     1       0.721   1.404  -1.093  0.00  0.00    +0.244 C 
ATOM     29  H   UNL     1       2.072   2.195   0.301  0.00  0.00    +0.149 HD
BRANCH  14  17
ATOM     17  C   UNL     1      -0.440   1.811  -0.260  0.00  0.00    +0.037 A 
ATOM     21  C   UNL     1      -1.662   2.106  -0.864  0.00  0.00    +0.013 A 
ATOM     22  C   UNL     1      -0.308   1.897   1.126  0.00  0.00    +0.013 A 
ATOM     23  C   UNL     1      -2.753   2.486  -0.082  0.00  0.00    +0.001 A 
ATOM     24  C   UNL     1      -1.398   2.277   1.908  0.00  0.00    +0.001 A 
ATOM     25  C   UNL     1      -2.621   2.572   1.304  0.00  0.00    +0.000 A 
ENDBRANCH  14  17
ENDBRANCH  11   6
ENDBRANCH   9  11
TORSDOF 8
