REMARK  Name = 7127917
REMARK  13 active torsions:
REMARK  status: ('A' for Active; 'I' for Inactive)
REMARK    1  A    between atoms: O_2  and  C_12
REMARK    2  A    between atoms: O_3  and  C_14
REMARK    3  A    between atoms: O_7  and  C_29
REMARK    4  A    between atoms: O_7  and  C_35
REMARK    5  A    between atoms: O_8  and  C_33
REMARK    6  A    between atoms: O_8  and  C_36
REMARK    7  A    between atoms: N_9  and  C_13
REMARK    8  A    between atoms: N_10  and  C_19
REMARK    9  A    between atoms: C_16  and  C_18
REMARK   10  A    between atoms: C_19  and  C_21
REMARK   11  A    between atoms: C_19  and  C_24
REMARK   12  A    between atoms: C_20  and  C_22
REMARK   13  A    between atoms: C_21  and  C_23
REMARK                            x       y       z     vdW  Elec       q    Type
REMARK                         _______ _______ _______ _____ _____    ______ ____
ROOT
ATOM     12  C   UNL     1      -0.738   3.458   0.041  0.00  0.00    +0.167 C 
ATOM     13  C   UNL     1      -0.696   1.993  -0.437  0.00  0.00    +0.128 C 
ATOM     14  C   UNL     1       0.638   4.125  -0.068  0.00  0.00    +0.149 C 
ATOM     15  C   UNL     1       1.721   3.346   0.698  0.00  0.00    +0.074 C 
ATOM     16  C   UNL     1       1.574   1.855   0.588  0.00  0.00    +0.015 C 
ATOM     17  C   UNL     1       0.500   1.236   0.074  0.00  0.00    +0.006 C 
ENDROOT
BRANCH  16  18
ATOM      4  O   UNL     1       2.727   0.611   2.214  0.00  0.00    -0.271 OA
ATOM     10  N   UNL     1       3.615   0.758   0.064  0.00  0.00    -0.300 N 
ATOM     18  C   UNL     1       2.682   1.015   1.053  0.00  0.00    +0.241 C 
ATOM     40  H   UNL     1       3.489   1.170  -0.857  0.00  0.00    +0.150 HD
BRANCH  10  19
ATOM     19  C   UNL     1       4.797  -0.045   0.284  0.00  0.00    +0.163 C 
BRANCH  19  24
ATOM      6  O   UNL     1       6.037   1.770  -0.753  0.00  0.00    -0.274 OA
ATOM     11  N   UNL     1       7.030   0.595   0.954  0.00  0.00    -0.328 N 
ATOM     24  C   UNL     1       6.000   0.864   0.076  0.00  0.00    +0.231 C 
ATOM     41  H   UNL     1       7.886   1.139   0.933  0.00  0.00    +0.145 HD
ATOM     42  H   UNL     1       6.984  -0.155   1.636  0.00  0.00    +0.145 HD
ENDBRANCH  19  24
BRANCH  19  21
ATOM     21  C   UNL     1       4.866  -1.247  -0.665  0.00  0.00    +0.067 C 
BRANCH  21  23
ATOM     23  C   UNL     1       3.680  -2.170  -0.524  0.00  0.00    -0.045 A 
ATOM     27  C   UNL     1       2.555  -1.954  -1.303  0.00  0.00    +0.007 A 
ATOM     28  C   UNL     1       3.739  -3.217   0.382  0.00  0.00    +0.007 A 
ATOM     30  C   UNL     1       1.459  -2.808  -1.174  0.00  0.00    +0.046 A 
ATOM     31  C   UNL     1       2.643  -4.071   0.511  0.00  0.00    +0.046 A 
ATOM     33  C   UNL     1       1.504  -3.866  -0.266  0.00  0.00    +0.120 A 
BRANCH  33   8
ATOM      8  O   UNL     1       0.435  -4.699  -0.139  0.00  0.00    -0.495 OA
ATOM     36  C   UNL     1      -0.698  -4.433  -0.964  0.00  0.00    +0.277 C 
ENDBRANCH  33   8
ENDBRANCH  21  23
ENDBRANCH  19  21
ENDBRANCH  10  19
ENDBRANCH  16  18
BRANCH  13   9
ATOM      5  O   UNL     1      -3.117   1.800  -1.966  0.00  0.00    -0.270 OA
ATOM      9  N   UNL     1      -1.893   1.278  -0.068  0.00  0.00    -0.302 N 
ATOM     20  C   UNL     1      -3.019   1.242  -0.877  0.00  0.00    +0.246 C 
ATOM     37  H   UNL     1      -1.924   0.825   0.842  0.00  0.00    +0.150 HD
BRANCH  20  22
ATOM      1 BR   UNL     1      -5.675   2.952  -0.428  0.00  0.00    -0.050 Br
ATOM     22  C   UNL     1      -4.179   0.484  -0.342  0.00  0.00    +0.054 A 
ATOM     25  C   UNL     1      -3.986  -0.863  -0.099  0.00  0.00    +0.059 A 
ATOM     26  C   UNL     1      -5.389   1.105  -0.102  0.00  0.00    +0.030 A 
ATOM     29  C   UNL     1      -5.046  -1.617   0.403  0.00  0.00    +0.121 A 
ATOM     32  C   UNL     1      -6.449   0.350   0.400  0.00  0.00    +0.019 A 
ATOM     34  C   UNL     1      -6.277  -1.011   0.653  0.00  0.00    +0.047 A 
BRANCH  29   7
ATOM      7  O   UNL     1      -4.879  -2.946   0.650  0.00  0.00    -0.495 OA
ATOM     35  C   UNL     1      -6.005  -3.657   1.163  0.00  0.00    +0.277 C 
ENDBRANCH  29   7
ENDBRANCH  20  22
ENDBRANCH  13   9
BRANCH  12   2
ATOM      2  O   UNL     1      -1.165   3.506   1.404  0.00  0.00    -0.387 OA
ATOM     38  H   UNL     1      -0.608   2.909   1.929  0.00  0.00    +0.210 HD
ENDBRANCH  12   2
BRANCH  14   3
ATOM      3  O   UNL     1       1.011   4.262  -1.438  0.00  0.00    -0.389 OA
ATOM     39  H   UNL     1       1.864   4.727  -1.466  0.00  0.00    +0.210 HD
ENDBRANCH  14   3
TORSDOF 11
