REMARK  Name = 71693153
REMARK  12 active torsions:
REMARK  status: ('A' for Active; 'I' for Inactive)
REMARK    1  A    between atoms: N_2  and  C_13
REMARK    2  A    between atoms: N_5  and  C_26
REMARK    3  A    between atoms: C_6  and  C_10
REMARK    4  A    between atoms: C_7  and  C_13
REMARK    5  A    between atoms: C_9  and  C_14
REMARK    6  A    between atoms: C_10  and  C_15
REMARK    7  A    between atoms: C_10  and  C_16
REMARK    8  A    between atoms: C_11  and  C_17
REMARK    9  A    between atoms: C_14  and  C_18
REMARK   10  A    between atoms: C_22  and  C_27
REMARK   11  A    between atoms: C_26  and  C_28
REMARK   12  A    between atoms: C_28  and  C_29
REMARK                            x       y       z     vdW  Elec       q    Type
REMARK                         _______ _______ _______ _____ _____    ______ ____
ROOT
ATOM      6  C   UNL     1       1.403   1.261  -1.072  0.00  0.00    +0.000 C 
ATOM      7  C   UNL     1       2.686   1.985  -0.593  0.00  0.00    +0.032 C 
ATOM      8  C   UNL     1       0.152   2.021  -0.605  0.00  0.00    +0.012 C 
ATOM      9  C   UNL     1       0.092   2.159   0.928  0.00  0.00    +0.022 C 
ATOM     11  C   UNL     1       1.416   2.616   1.505  0.00  0.00    -0.073 C 
ATOM     12  C   UNL     1       2.563   2.543   0.805  0.00  0.00    -0.022 C 
ATOM     17  C   UNL     1       1.386   3.202   2.889  0.00  0.00    +0.039 C 
ENDROOT
BRANCH   6  10
ATOM     10  C   UNL     1       1.375   1.101  -2.595  0.00  0.00    -0.013 C 
ATOM     15  C   UNL     1       0.487  -0.075  -2.990  0.00  0.00    +0.007 C 
ATOM     16  C   UNL     1       0.893   2.388  -3.256  0.00  0.00    +0.007 C 
ENDBRANCH   6  10
BRANCH   7  13
ATOM     13  C   UNL     1       3.905   1.058  -0.667  0.00  0.00    +0.113 C 
BRANCH  13   2
ATOM      1  O   UNL     1       3.855  -1.759  -1.290  0.00  0.00    -0.253 OA
ATOM      2  N   UNL     1       3.775  -0.025   0.256  0.00  0.00    -0.299 N 
ATOM      5  N   UNL     1       3.622  -2.219   0.972  0.00  0.00    -0.299 N 
ATOM     19  C   UNL     1       3.759  -1.373  -0.126  0.00  0.00    +0.300 C 
ATOM     30  H   UNL     1       3.758   0.183   1.249  0.00  0.00    +0.150 HD
ATOM     32  H   UNL     1       3.541  -1.808   1.897  0.00  0.00    +0.150 HD
BRANCH   5  26
ATOM     26  C   UNL     1       3.578  -3.657   0.852  0.00  0.00    +0.105 C 
BRANCH  26  28
ATOM     28  C   UNL     1       2.159  -4.181   0.670  0.00  0.00    +0.015 C 
ATOM     29  C   UNL     1       1.241  -3.806   1.825  0.00  0.00    +0.005 C 
ENDBRANCH  26  28
ENDBRANCH   5  26
ENDBRANCH  13   2
ENDBRANCH   7  13
BRANCH   9  14
ATOM     14  C   UNL     1      -0.369   0.852   1.582  0.00  0.00    +0.082 C 
BRANCH  14  18
ATOM      3  N   UNL     1      -2.862   1.010   1.434  0.00  0.00    -0.342 N 
ATOM      4  N   UNL     1      -1.913  -0.558   0.178  0.00  0.00    -0.232 NA
ATOM     18  C   UNL     1      -1.699   0.407   1.043  0.00  0.00    +0.109 A 
ATOM     20  C   UNL     1      -3.895   0.393   0.778  0.00  0.00    +0.066 A 
ATOM     21  C   UNL     1      -3.277  -0.583  -0.000  0.00  0.00    +0.092 A 
ATOM     22  C   UNL     1      -4.068  -1.412  -0.813  0.00  0.00    -0.023 A 
ATOM     23  C   UNL     1      -5.275   0.598   0.797  0.00  0.00    +0.028 A 
ATOM     24  C   UNL     1      -5.456  -1.225  -0.809  0.00  0.00    +0.005 A 
ATOM     25  C   UNL     1      -6.047  -0.237  -0.018  0.00  0.00    +0.002 A 
ATOM     27  C   UNL     1      -3.484  -2.482  -1.677  0.00  0.00    +0.046 C 
ATOM     31  H   UNL     1      -2.947   1.776   2.090  0.00  0.00    +0.167 HD
ENDBRANCH  14  18
ENDBRANCH   9  14
TORSDOF 7
