REMARK  Name = 28961815
REMARK  11 active torsions:
REMARK  status: ('A' for Active; 'I' for Inactive)
REMARK    1  A    between atoms: S_2  and  N_10
REMARK    2  A    between atoms: S_2  and  C_23
REMARK    3  A    between atoms: O_4  and  C_14
REMARK    4  A    between atoms: O_5  and  C_20
REMARK    5  A    between atoms: O_5  and  C_22
REMARK    6  A    between atoms: O_6  and  C_21
REMARK    7  A    between atoms: N_9  and  C_11
REMARK    8  A    between atoms: N_10  and  C_19
REMARK    9  A    between atoms: C_12  and  C_19
REMARK   10  A    between atoms: C_13  and  C_20
REMARK   11  A    between atoms: C_16  and  C_21
REMARK                            x       y       z     vdW  Elec       q    Type
REMARK                         _______ _______ _______ _____ _____    ______ ____
ROOT
ATOM      3  O   UNL     1       0.824   2.453  -0.883  0.00  0.00    -0.366 OA
ATOM     11  C   UNL     1       2.167   0.835   0.234  0.00  0.00    +0.118 C 
ATOM     12  C   UNL     1       1.101   1.035  -0.852  0.00  0.00    +0.154 C 
ATOM     14  C   UNL     1       1.939   2.020   1.160  0.00  0.00    +0.165 C 
ATOM     16  C   UNL     1       1.591   3.105   0.148  0.00  0.00    +0.174 C 
ENDROOT
BRANCH  11   9
ATOM      9  N   UNL     1       2.186  -0.464   0.883  0.00  0.00    -0.289 NA
ATOM     13  C   UNL     1       2.769  -1.558   0.098  0.00  0.00    +0.083 C 
ATOM     15  C   UNL     1       2.871  -0.449   2.174  0.00  0.00    +0.085 C 
ATOM     17  C   UNL     1       2.872  -2.652   1.158  0.00  0.00    +0.022 C 
ATOM     18  C   UNL     1       3.180  -1.914   2.457  0.00  0.00    +0.017 C 
BRANCH  13  20
ATOM     20  C   UNL     1       4.129  -1.272  -0.547  0.00  0.00    +0.178 C 
BRANCH  20   5
ATOM      5  O   UNL     1       4.604  -2.464  -1.149  0.00  0.00    -0.381 OA
ATOM     22  C   UNL     1       5.869  -2.272  -1.770  0.00  0.00    +0.194 C 
ENDBRANCH  20   5
ENDBRANCH  13  20
ENDBRANCH  11   9
BRANCH  14   4
ATOM      4  O   UNL     1       0.844   1.792   2.038  0.00  0.00    -0.388 OA
ATOM     29  H   UNL     1       0.816   2.529   2.671  0.00  0.00    +0.210 HD
ENDBRANCH  14   4
BRANCH  12  19
ATOM     19  C   UNL     1      -0.229   0.319  -0.644  0.00  0.00    +0.139 C 
BRANCH  19  10
ATOM     10  N   UNL     1      -1.127   0.620  -1.773  0.00  0.00    -0.187 NA
ATOM     30  H   UNL     1      -1.325   1.615  -1.933  0.00  0.00    +0.148 HD
BRANCH  10   2
ATOM      2  S   UNL     1      -2.286  -0.524  -2.271  0.00  0.00    +0.058 S 
ATOM      7  O   UNL     1      -1.628  -1.789  -2.538  0.00  0.00    -0.153 OA
ATOM      8  O   UNL     1      -3.144   0.077  -3.275  0.00  0.00    -0.153 OA
BRANCH   2  23
ATOM      1 CL   UNL     1      -5.739  -1.197   2.928  0.00  0.00    -0.084 Cl
ATOM     23  C   UNL     1      -3.258  -0.714  -0.807  0.00  0.00    +0.105 A 
ATOM     24  C   UNL     1      -4.367   0.106  -0.596  0.00  0.00    +0.030 A 
ATOM     25  C   UNL     1      -2.917  -1.683   0.136  0.00  0.00    +0.030 A 
ATOM     26  C   UNL     1      -5.134  -0.044   0.559  0.00  0.00    +0.022 A 
ATOM     27  C   UNL     1      -3.684  -1.832   1.291  0.00  0.00    +0.022 A 
ATOM     28  C   UNL     1      -4.793  -1.013   1.503  0.00  0.00    +0.041 A 
ENDBRANCH   2  23
ENDBRANCH  10   2
ENDBRANCH  19  10
ENDBRANCH  12  19
BRANCH  16  21
ATOM     21  C   UNL     1       0.798   4.278   0.695  0.00  0.00    +0.190 C 
BRANCH  21   6
ATOM      6  O   UNL     1       0.563   5.202  -0.356  0.00  0.00    -0.392 OA
ATOM     31  H   UNL     1       0.059   5.942   0.022  0.00  0.00    +0.210 HD
ENDBRANCH  21   6
ENDBRANCH  16  21
TORSDOF 10
