REMARK  Name = 56775759
REMARK  8 active torsions:
REMARK  status: ('A' for Active; 'I' for Inactive)
REMARK    1  A    between atoms: O_3  and  C_25
REMARK    2  A    between atoms: O_3  and  C_26
REMARK    3  A    between atoms: N_4  and  C_7
REMARK    4  A    between atoms: N_4  and  C_8
REMARK    5  A    between atoms: N_5  and  C_17
REMARK    6  A    between atoms: C_7  and  C_11
REMARK    7  A    between atoms: C_11  and  C_16
REMARK    8  A    between atoms: C_19  and  C_20
REMARK                            x       y       z     vdW  Elec       q    Type
REMARK                         _______ _______ _______ _____ _____    ______ ____
ROOT
ATOM     11  C   UNL     1       1.559  -1.254  -1.156  0.00  0.00    +0.085 C 
ENDROOT
BRANCH  11  16
ATOM      2  O   UNL     1      -1.113   1.004  -0.249  0.00  0.00    -0.354 OA
ATOM      6  N   UNL     1       0.226   0.712  -0.478  0.00  0.00    -0.083 NA
ATOM     16  C   UNL     1       0.244  -0.578  -0.826  0.00  0.00    +0.086 A 
ATOM     18  C   UNL     1      -1.041  -1.146  -0.834  0.00  0.00    +0.076 A 
ATOM     19  C   UNL     1      -1.858  -0.111  -0.464  0.00  0.00    +0.167 A 
BRANCH  19  20
ATOM     20  C   UNL     1      -3.271   0.037  -0.267  0.00  0.00    +0.020 A 
ATOM     21  C   UNL     1      -4.120  -1.051  -0.466  0.00  0.00    +0.015 A 
ATOM     22  C   UNL     1      -3.795   1.269   0.124  0.00  0.00    +0.015 A 
ATOM     23  C   UNL     1      -5.495  -0.907  -0.274  0.00  0.00    +0.046 A 
ATOM     24  C   UNL     1      -5.169   1.413   0.317  0.00  0.00    +0.046 A 
ATOM     25  C   UNL     1      -6.019   0.325   0.117  0.00  0.00    +0.120 A 
BRANCH  25   3
ATOM      3  O   UNL     1      -7.359   0.465   0.308  0.00  0.00    -0.495 OA
ATOM     26  C   UNL     1      -7.827   1.752   0.707  0.00  0.00    +0.277 C 
ENDBRANCH  25   3
ENDBRANCH  19  20
ENDBRANCH  11  16
BRANCH  11   7
ATOM      1  O   UNL     1       2.495  -3.857   0.730  0.00  0.00    -0.376 OA
ATOM      7  C   UNL     1       2.172  -1.852   0.073  0.00  0.00    +0.072 C 
ATOM      9  C   UNL     1       1.400  -2.919   0.839  0.00  0.00    +0.184 C 
ATOM     10  C   UNL     1       3.244  -2.925  -0.083  0.00  0.00    +0.184 C 
BRANCH   7   4
ATOM      4  N   UNL     1       2.650  -0.842   1.022  0.00  0.00    -0.304 NA
ATOM     27  H   UNL     1       3.209  -1.188   1.801  0.00  0.00    +0.123 HD
BRANCH   4   8
ATOM      5  N   UNL     1       5.531   2.166   0.173  0.00  0.00    -0.305 NA
ATOM      8  C   UNL     1       3.359   0.208   0.294  0.00  0.00    +0.057 C 
ATOM     12  C   UNL     1       4.815  -0.201   0.058  0.00  0.00    +0.034 C 
ATOM     13  C   UNL     1       3.306   1.535   1.057  0.00  0.00    +0.034 C 
ATOM     14  C   UNL     1       5.600   0.927  -0.616  0.00  0.00    +0.085 C 
ATOM     15  C   UNL     1       4.141   2.607   0.350  0.00  0.00    +0.085 C 
ATOM     17  C   UNL     1       6.326   3.219  -0.457  0.00  0.00    +0.104 C 
ENDBRANCH   4   8
ENDBRANCH   7   4
ENDBRANCH  11   7
TORSDOF 6
