REMARK  Name = 25389946
REMARK  7 active torsions:
REMARK  status: ('A' for Active; 'I' for Inactive)
REMARK    1  A    between atoms: O_2  and  C_19
REMARK    2  A    between atoms: O_2  and  C_31
REMARK    3  A    between atoms: N_6  and  C_10
REMARK    4  A    between atoms: N_6  and  C_22
REMARK    5  A    between atoms: C_8  and  C_16
REMARK    6  A    between atoms: C_11  and  C_19
REMARK    7  A    between atoms: C_22  and  C_30
REMARK                            x       y       z     vdW  Elec       q    Type
REMARK                         _______ _______ _______ _____ _____    ______ ____
ROOT
ATOM      4  N   UNL     1      -0.268  -0.223  -0.055  0.00  0.00    -0.274 NA
ATOM      5  N   UNL     1       2.989   1.642   0.100  0.00  0.00    -0.356 N 
ATOM      7  C   UNL     1       0.564   0.906   0.465  0.00  0.00    +0.106 C 
ATOM      8  C   UNL     1      -1.691  -0.096   0.349  0.00  0.00    +0.090 C 
ATOM      9  C   UNL     1       0.019   2.255  -0.028  0.00  0.00    +0.044 C 
ATOM     10  C   UNL     1      -1.433   2.439   0.414  0.00  0.00    +0.058 C 
ATOM     11  C   UNL     1       0.338  -1.557   0.206  0.00  0.00    +0.172 C 
ATOM     12  C   UNL     1      -2.275   1.269  -0.091  0.00  0.00    +0.042 C 
ATOM     13  C   UNL     1       1.994   0.705   0.060  0.00  0.00    +0.038 A 
ATOM     14  C   UNL     1       1.723  -1.724  -0.470  0.00  0.00    +0.068 C 
ATOM     15  C   UNL     1       2.545  -0.489  -0.351  0.00  0.00    -0.016 A 
ATOM     17  C   UNL     1       3.925  -0.265  -0.607  0.00  0.00    +0.003 A 
ATOM     18  C   UNL     1       4.177   1.080  -0.318  0.00  0.00    +0.047 A 
ATOM     23  C   UNL     1       4.990  -1.073  -1.053  0.00  0.00    +0.010 A 
ATOM     24  C   UNL     1       5.445   1.656  -0.455  0.00  0.00    +0.026 A 
ATOM     25  C   UNL     1       6.263  -0.509  -1.196  0.00  0.00    +0.001 A 
ATOM     28  C   UNL     1       6.485   0.835  -0.901  0.00  0.00    +0.002 A 
ATOM     33  H   UNL     1       2.878   2.604   0.388  0.00  0.00    +0.166 HD
ENDROOT
BRANCH   8  16
ATOM      1  F   UNL     1      -5.053  -4.144  -1.722  0.00  0.00    -0.205 F 
ATOM     16  C   UNL     1      -2.599  -1.188  -0.210  0.00  0.00    -0.030 A 
ATOM     20  C   UNL     1      -3.681  -1.648   0.541  0.00  0.00    +0.008 A 
ATOM     21  C   UNL     1      -2.346  -1.728  -1.472  0.00  0.00    +0.008 A 
ATOM     26  C   UNL     1      -4.510  -2.647   0.030  0.00  0.00    +0.038 A 
ATOM     27  C   UNL     1      -3.175  -2.726  -1.982  0.00  0.00    +0.038 A 
ATOM     29  C   UNL     1      -4.257  -3.186  -1.231  0.00  0.00    +0.123 A 
ENDBRANCH   8  16
BRANCH  11  19
ATOM      3  O   UNL     1       0.058  -1.024   2.541  0.00  0.00    -0.249 OA
ATOM     19  C   UNL     1       0.428  -1.815   1.683  0.00  0.00    +0.325 C 
BRANCH  19   2
ATOM      2  O   UNL     1       0.976  -3.045   1.899  0.00  0.00    -0.467 OA
ATOM     31  C   UNL     1       1.120  -3.421   3.273  0.00  0.00    +0.280 C 
ENDBRANCH  19   2
ENDBRANCH  11  19
BRANCH  10   6
ATOM      6  N   UNL     1      -1.953   3.710  -0.087  0.00  0.00    -0.303 NA
ATOM     34  H   UNL     1      -1.226   4.423  -0.018  0.00  0.00    +0.123 HD
BRANCH   6  22
ATOM     22  C   UNL     1      -3.103   4.140   0.693  0.00  0.00    +0.170 C 
BRANCH  22  30
ATOM     30  C   UNL     1      -3.630   5.413   0.192  0.00  0.00    -0.090 C 
ATOM     32  C   UNL     1      -4.066   6.455  -0.215  0.00  0.00    +0.005 C 
ENDBRANCH  22  30
ENDBRANCH   6  22
ENDBRANCH  10   6
TORSDOF 6
