REMARK  Name = 26762246
REMARK  10 active torsions:
REMARK  status: ('A' for Active; 'I' for Inactive)
REMARK    1  A    between atoms: N_7  and  C_12
REMARK    2  A    between atoms: N_8  and  C_24
REMARK    3  A    between atoms: N_9  and  C_27
REMARK    4  A    between atoms: N_9  and  C_31
REMARK    5  A    between atoms: N_9  and  C_32
REMARK    6  A    between atoms: C_11  and  C_17
REMARK    7  A    between atoms: C_17  and  C_18
REMARK    8  A    between atoms: C_18  and  C_20
REMARK    9  A    between atoms: C_19  and  C_21
REMARK   10  A    between atoms: C_24  and  C_28
REMARK                            x       y       z     vdW  Elec       q    Type
REMARK                         _______ _______ _______ _____ _____    ______ ____
ROOT
ATOM      2  O   UNL     1      -0.652  -1.053  -4.174  0.00  0.00    -0.274 OA
ATOM      5  N   UNL     1      -0.755  -1.026  -0.639  0.00  0.00    -0.285 NA
ATOM      6  N   UNL     1      -1.786  -2.442  -2.739  0.00  0.00    -0.313 N 
ATOM     10  C   UNL     1      -0.940  -0.313  -1.906  0.00  0.00    +0.145 C 
ATOM     11  C   UNL     1      -1.958  -1.796  -0.316  0.00  0.00    +0.075 C 
ATOM     12  C   UNL     1       0.608   0.868  -0.486  0.00  0.00    +0.089 C 
ATOM     13  C   UNL     1       0.286   0.587  -1.959  0.00  0.00    +0.052 C 
ATOM     14  C   UNL     1      -0.381   0.016   0.316  0.00  0.00    +0.107 C 
ATOM     15  C   UNL     1      -2.086  -2.888  -1.387  0.00  0.00    +0.123 C 
ATOM     16  C   UNL     1      -1.066  -1.301  -3.042  0.00  0.00    +0.230 C 
ATOM     36  H   UNL     1      -1.958  -3.099  -3.494  0.00  0.00    +0.149 HD
ENDROOT
BRANCH  12   7
ATOM      3  O   UNL     1       2.874   2.626  -0.619  0.00  0.00    -0.270 OA
ATOM      7  N   UNL     1       1.977   0.533  -0.179  0.00  0.00    -0.307 N 
ATOM     19  C   UNL     1       3.009   1.455  -0.273  0.00  0.00    +0.244 C 
ATOM     37  H   UNL     1       2.179  -0.444   0.005  0.00  0.00    +0.149 HD
BRANCH  19  21
ATOM     21  C   UNL     1       4.367   0.947   0.051  0.00  0.00    +0.037 A 
ATOM     22  C   UNL     1       5.491   1.545  -0.518  0.00  0.00    +0.015 A 
ATOM     23  C   UNL     1       4.518  -0.130   0.925  0.00  0.00    +0.015 A 
ATOM     25  C   UNL     1       6.765   1.067  -0.214  0.00  0.00    +0.024 A 
ATOM     26  C   UNL     1       5.792  -0.608   1.229  0.00  0.00    +0.024 A 
ATOM     27  C   UNL     1       6.916  -0.009   0.660  0.00  0.00    +0.029 A 
BRANCH  27   9
ATOM      9  N   UNL     1       8.204  -0.493   0.968  0.00  0.00    -0.336 N 
ATOM     31  C   UNL     1       8.371  -1.607   1.881  0.00  0.00    +0.129 C 
ATOM     32  C   UNL     1       9.379   0.121   0.382  0.00  0.00    +0.129 C 
ENDBRANCH  27   9
ENDBRANCH  19  21
ENDBRANCH  12   7
BRANCH  11  17
ATOM     17  C   UNL     1      -1.902  -2.443   1.070  0.00  0.00    +0.029 C 
BRANCH  17  18
ATOM     18  C   UNL     1      -3.179  -3.216   1.368  0.00  0.00    +0.097 C 
BRANCH  18  20
ATOM      4  O   UNL     1      -5.345  -2.514   0.545  0.00  0.00    -0.276 OA
ATOM      8  N   UNL     1      -4.334  -1.298   2.244  0.00  0.00    -0.311 N 
ATOM     20  C   UNL     1      -4.409  -2.328   1.318  0.00  0.00    +0.213 C 
ATOM     38  H   UNL     1      -3.537  -1.232   2.869  0.00  0.00    +0.149 HD
BRANCH   8  24
ATOM     24  C   UNL     1      -5.382  -0.317   2.392  0.00  0.00    +0.139 C 
BRANCH  24  28
ATOM      1  F   UNL     1      -4.577   4.145  -0.947  0.00  0.00    -0.205 F 
ATOM     28  C   UNL     1      -5.168   0.873   1.502  0.00  0.00    -0.030 A 
ATOM     29  C   UNL     1      -4.437   1.967   1.964  0.00  0.00    +0.008 A 
ATOM     30  C   UNL     1      -5.699   0.884   0.212  0.00  0.00    +0.008 A 
ATOM     33  C   UNL     1      -4.237   3.073   1.138  0.00  0.00    +0.038 A 
ATOM     34  C   UNL     1      -5.499   1.990  -0.615  0.00  0.00    +0.038 A 
ATOM     35  C   UNL     1      -4.769   3.084  -0.152  0.00  0.00    +0.123 A 
ENDBRANCH  24  28
ENDBRANCH   8  24
ENDBRANCH  18  20
ENDBRANCH  17  18
ENDBRANCH  11  17
TORSDOF 8
