REMARK  Name = 11913055
REMARK  11 active torsions:
REMARK  status: ('A' for Active; 'I' for Inactive)
REMARK    1  A    between atoms: O_3  and  C_13
REMARK    2  A    between atoms: O_3  and  C_17
REMARK    3  A    between atoms: O_5  and  C_36
REMARK    4  A    between atoms: O_5  and  C_37
REMARK    5  A    between atoms: N_6  and  C_12
REMARK    6  A    between atoms: N_8  and  C_19
REMARK    7  A    between atoms: C_18  and  C_21
REMARK    8  A    between atoms: C_18  and  C_26
REMARK    9  A    between atoms: C_18  and  C_27
REMARK   10  A    between atoms: C_18  and  C_28
REMARK   11  A    between atoms: C_20  and  C_31
REMARK                            x       y       z     vdW  Elec       q    Type
REMARK                         _______ _______ _______ _____ _____    ______ ____
ROOT
ATOM      1  O   UNL     1       0.377   1.131  -1.931  0.00  0.00    -0.368 OA
ATOM      2  O   UNL     1      -1.388  -1.305  -1.327  0.00  0.00    -0.368 OA
ATOM     10  C   UNL     1      -1.302  -0.007  -0.702  0.00  0.00    +0.173 C 
ATOM     11  C   UNL     1       0.161   0.392  -0.719  0.00  0.00    +0.192 C 
ATOM     12  C   UNL     1      -1.973   1.031  -1.571  0.00  0.00    +0.130 C 
ATOM     13  C   UNL     1       0.863  -0.945  -0.746  0.00  0.00    +0.235 C 
ATOM     14  C   UNL     1      -0.885   1.366  -2.576  0.00  0.00    +0.185 C 
ATOM     15  C   UNL     1      -0.062  -1.774  -1.608  0.00  0.00    +0.207 C 
ENDROOT
BRANCH  12   6
ATOM      6  N   UNL     1      -2.309   2.201  -0.787  0.00  0.00    -0.306 N 
ATOM      7  N   UNL     1      -4.322   1.275  -0.093  0.00  0.00    -0.214 NA
ATOM      9  N   UNL     1      -3.642   3.471   0.627  0.00  0.00    -0.223 NA
ATOM     16  C   UNL     1      -3.475   2.321  -0.052  0.00  0.00    +0.216 A 
ATOM     20  C   UNL     1      -5.449   1.426   0.633  0.00  0.00    +0.076 A 
ATOM     22  C   UNL     1      -4.790   3.555   1.332  0.00  0.00    +0.116 A 
ATOM     23  C   UNL     1      -5.739   2.554   1.373  0.00  0.00    +0.048 A 
ATOM     38  H   UNL     1      -1.643   2.962  -0.719  0.00  0.00    +0.149 HD
BRANCH  20  31
ATOM     31  C   UNL     1      -6.359   0.306   0.593  0.00  0.00    +0.001 A 
ATOM     32  C   UNL     1      -7.657   0.481   0.111  0.00  0.00    +0.013 A 
ATOM     33  C   UNL     1      -5.943  -0.949   1.036  0.00  0.00    +0.013 A 
ATOM     34  C   UNL     1      -8.538  -0.600   0.073  0.00  0.00    +0.046 A 
ATOM     35  C   UNL     1      -6.824  -2.030   0.997  0.00  0.00    +0.046 A 
ATOM     36  C   UNL     1      -8.121  -1.855   0.516  0.00  0.00    +0.120 A 
BRANCH  36   5
ATOM      5  O   UNL     1      -8.981  -2.910   0.476  0.00  0.00    -0.495 OA
ATOM     37  C   UNL     1      -8.490  -4.165   0.944  0.00  0.00    +0.277 C 
ENDBRANCH  36   5
ENDBRANCH  20  31
ENDBRANCH  12   6
BRANCH  13   3
ATOM      3  O   UNL     1       2.169  -0.883  -1.274  0.00  0.00    -0.442 OA
BRANCH   3  17
ATOM      4  O   UNL     1       3.014  -0.617   0.834  0.00  0.00    -0.226 OA
ATOM      8  N   UNL     1       4.403  -0.675  -1.050  0.00  0.00    -0.251 N 
ATOM     17  C   UNL     1       3.199  -0.713  -0.373  0.00  0.00    +0.405 C 
ATOM     39  H   UNL     1       4.354  -0.773  -2.061  0.00  0.00    +0.158 HD
BRANCH   8  19
ATOM     19  C   UNL     1       5.700  -0.515  -0.510  0.00  0.00    +0.036 A 
ATOM     21  C   UNL     1       8.260  -0.202   0.554  0.00  0.00    -0.042 A 
ATOM     24  C   UNL     1       6.809  -0.501  -1.355  0.00  0.00    +0.024 A 
ATOM     25  C   UNL     1       5.870  -0.373   0.867  0.00  0.00    +0.024 A 
ATOM     29  C   UNL     1       8.089  -0.344  -0.823  0.00  0.00    +0.006 A 
ATOM     30  C   UNL     1       7.150  -0.216   1.399  0.00  0.00    +0.006 A 
BRANCH  21  18
ATOM     18  C   UNL     1       9.628  -0.033   1.122  0.00  0.00    -0.013 C 
ATOM     26  C   UNL     1       9.696   0.116   2.678  0.00  0.00    +0.015 C 
ATOM     27  C   UNL     1      10.536  -1.256   0.783  0.00  0.00    +0.015 C 
ATOM     28  C   UNL     1      10.324   1.242   0.552  0.00  0.00    +0.015 C 
ENDBRANCH  21  18
ENDBRANCH   8  19
ENDBRANCH   3  17
ENDBRANCH  13   3
TORSDOF 7
