REMARK  Name = 9421717
REMARK  4 active torsions:
REMARK  status: ('A' for Active; 'I' for Inactive)
REMARK    1  A    between atoms: N_5  and  C_24
REMARK    2  A    between atoms: C_13  and  C_14
REMARK    3  A    between atoms: C_24  and  C_25
REMARK    4  A    between atoms: C_24  and  C_26
REMARK                            x       y       z     vdW  Elec       q    Type
REMARK                         _______ _______ _______ _____ _____    ______ ____
ROOT
ATOM      1  O   UNL     1       1.446   0.160   2.154  0.00  0.00    -0.267 OA
ATOM      2  O   UNL     1      -2.822  -1.191  -1.887  0.00  0.00    -0.253 OA
ATOM      3  N   UNL     1       0.069   1.320   0.668  0.00  0.00    -0.312 N 
ATOM      4  N   UNL     1      -2.882   0.602  -0.413  0.00  0.00    -0.285 N 
ATOM      5  N   UNL     1      -3.422  -1.591   0.290  0.00  0.00    -0.297 N 
ATOM      6  C   UNL     1      -2.210   2.266   1.345  0.00  0.00    +0.027 C 
ATOM      7  C   UNL     1      -1.412   2.545  -0.959  0.00  0.00    +0.054 C 
ATOM      8  C   UNL     1      -1.958   3.295   0.253  0.00  0.00    +0.018 C 
ATOM      9  C   UNL     1      -0.870   1.638   1.751  0.00  0.00    +0.130 C 
ATOM     10  C   UNL     1      -3.226   1.204   0.884  0.00  0.00    +0.114 C 
ATOM     11  C   UNL     1      -2.472   1.549  -1.458  0.00  0.00    +0.119 C 
ATOM     12  C   UNL     1      -0.128   1.811  -0.625  0.00  0.00    +0.027 A 
ATOM     14  C   UNL     1       2.231   0.360  -0.064  0.00  0.00    +0.020 A 
ATOM     15  C   UNL     1       1.223   0.594   1.023  0.00  0.00    +0.255 A 
ATOM     16  C   UNL     1       0.803   1.608  -1.571  0.00  0.00    +0.022 A 
ATOM     19  C   UNL     1       1.998   0.869  -1.281  0.00  0.00    +0.011 A 
ATOM     23  C   UNL     1      -3.026  -0.757  -0.749  0.00  0.00    +0.302 C 
ATOM     27  H   UNL     1      -3.729  -1.214   1.176  0.00  0.00    +0.150 HD
ENDROOT
BRANCH  14  13
ATOM     13  C   UNL     1       3.461  -0.427   0.278  0.00  0.00    +0.024 C 
ATOM     17  C   UNL     1       4.723   0.428   0.098  0.00  0.00    +0.008 C 
ATOM     18  C   UNL     1       3.545  -1.705  -0.569  0.00  0.00    +0.008 C 
ATOM     20  C   UNL     1       5.992  -0.368   0.395  0.00  0.00    +0.001 C 
ATOM     21  C   UNL     1       4.816  -2.497  -0.271  0.00  0.00    +0.001 C 
ATOM     22  C   UNL     1       6.066  -1.641  -0.443  0.00  0.00    +0.000 C 
ENDBRANCH  14  13
BRANCH   5  24
ATOM     24  C   UNL     1      -3.620  -3.011   0.105  0.00  0.00    +0.068 C 
ATOM     25  C   UNL     1      -5.050  -3.293  -0.337  0.00  0.00    +0.027 C 
ATOM     26  C   UNL     1      -3.277  -3.769   1.382  0.00  0.00    +0.027 C 
ENDBRANCH   5  24
TORSDOF 2
