REMARK  Name = 51138121
REMARK  8 active torsions:
REMARK  status: ('A' for Active; 'I' for Inactive)
REMARK    1  A    between atoms: N_3  and  C_5
REMARK    2  A    between atoms: N_4  and  C_26
REMARK    3  A    between atoms: C_6  and  C_16
REMARK    4  A    between atoms: C_7  and  C_17
REMARK    5  A    between atoms: C_16  and  C_19
REMARK    6  A    between atoms: C_19  and  C_24
REMARK    7  A    between atoms: C_19  and  C_25
REMARK    8  A    between atoms: C_26  and  C_27
REMARK                            x       y       z     vdW  Elec       q    Type
REMARK                         _______ _______ _______ _____ _____    ______ ____
ROOT
ATOM      2  N   UNL     1      -0.817  -0.382  -0.727  0.00  0.00    -0.299 NA
ATOM      4  N   UNL     1       3.863   1.258   0.229  0.00  0.00    -0.343 N 
ATOM      6  C   UNL     1      -0.200  -1.411   0.122  0.00  0.00    +0.085 C 
ATOM      7  C   UNL     1      -0.818   0.957  -0.156  0.00  0.00    +0.145 C 
ATOM     10  C   UNL     1       0.352   1.790  -0.675  0.00  0.00    +0.065 C 
ATOM     11  C   UNL     1       1.296  -1.237   0.404  0.00  0.00    -0.021 A 
ATOM     14  C   UNL     1       2.033  -0.033   0.210  0.00  0.00    +0.008 A 
ATOM     15  C   UNL     1       1.689   1.287  -0.246  0.00  0.00    -0.020 A 
ATOM     18  C   UNL     1       3.397  -0.002   0.521  0.00  0.00    +0.050 A 
ATOM     20  C   UNL     1       2.845   2.042  -0.227  0.00  0.00    +0.090 A 
ATOM     21  C   UNL     1       2.009  -2.321   0.975  0.00  0.00    +0.006 A 
ATOM     22  C   UNL     1       4.093  -1.096   1.039  0.00  0.00    +0.026 A 
ATOM     23  C   UNL     1       3.369  -2.257   1.274  0.00  0.00    +0.002 A 
ATOM     29  H   UNL     1      -0.405  -0.385  -1.659  0.00  0.00    +0.123 HD
ENDROOT
BRANCH   7  17
ATOM      1  O   UNL     1      -2.178   2.219  -1.657  0.00  0.00    -0.274 OA
ATOM      3  N   UNL     1      -3.139   1.354   0.279  0.00  0.00    -0.311 N 
ATOM     17  C   UNL     1      -2.103   1.577  -0.612  0.00  0.00    +0.231 C 
ATOM     30  H   UNL     1      -2.973   0.758   1.085  0.00  0.00    +0.149 HD
BRANCH   3   5
ATOM      5  C   UNL     1      -4.473   1.865   0.082  0.00  0.00    +0.073 C 
ATOM      8  C   UNL     1      -5.197   2.071   1.406  0.00  0.00    +0.022 C 
ATOM      9  C   UNL     1      -5.366   0.861  -0.638  0.00  0.00    +0.022 C 
ATOM     12  C   UNL     1      -5.724   0.687   1.775  0.00  0.00    +0.002 C 
ATOM     13  C   UNL     1      -5.872  -0.075   0.458  0.00  0.00    +0.002 C 
ENDBRANCH   3   5
ENDBRANCH   7  17
BRANCH   6  16
ATOM     16  C   UNL     1      -0.516  -2.741  -0.586  0.00  0.00    +0.026 C 
BRANCH  16  19
ATOM     19  C   UNL     1      -1.963  -3.199  -0.378  0.00  0.00    -0.015 C 
ATOM     24  C   UNL     1      -2.168  -4.551  -1.067  0.00  0.00    +0.007 C 
ATOM     25  C   UNL     1      -2.983  -2.190  -0.907  0.00  0.00    +0.007 C 
ENDBRANCH  16  19
ENDBRANCH   6  16
BRANCH   4  26
ATOM     26  C   UNL     1       5.227   1.711   0.393  0.00  0.00    +0.148 C 
BRANCH  26  27
ATOM     27  C   UNL     1       6.118   1.270  -0.731  0.00  0.00    -0.013 C 
ATOM     28  C   UNL     1       7.229   0.545  -0.562  0.00  0.00    +0.005 C 
ENDBRANCH  26  27
ENDBRANCH   4  26
TORSDOF 6
