REMARK  Name = 26743880
REMARK  6 active torsions:
REMARK  status: ('A' for Active; 'I' for Inactive)
REMARK    1  A    between atoms: O_1  and  C_10
REMARK    2  A    between atoms: N_3  and  C_12
REMARK    3  A    between atoms: C_8  and  C_13
REMARK    4  A    between atoms: C_12  and  C_14
REMARK    5  A    between atoms: C_15  and  C_16
REMARK    6  A    between atoms: C_21  and  C_24
REMARK                            x       y       z     vdW  Elec       q    Type
REMARK                         _______ _______ _______ _____ _____    ______ ____
ROOT
ATOM      3  N   UNL     1       2.797   0.204   0.555  0.00  0.00    -0.282 NA
ATOM      8  C   UNL     1       2.477  -0.645  -0.611  0.00  0.00    +0.149 C 
ATOM      9  C   UNL     1       3.102  -2.014  -0.284  0.00  0.00    +0.061 C 
ATOM     10  C   UNL     1       3.790  -1.822   1.062  0.00  0.00    +0.130 C 
ATOM     11  C   UNL     1       4.033  -0.326   1.127  0.00  0.00    +0.117 C 
ENDROOT
BRANCH   8  13
ATOM      2  O   UNL     1       0.618  -0.964  -2.165  0.00  0.00    -0.336 OA
ATOM      4  N   UNL     1      -0.013  -0.609  -0.045  0.00  0.00    -0.190 NA
ATOM      7  N   UNL     1      -0.782  -0.999  -2.164  0.00  0.00    -0.056 NA
ATOM     13  C   UNL     1       0.989  -0.730  -0.879  0.00  0.00    +0.245 A 
ATOM     15  C   UNL     1      -1.079  -0.782  -0.879  0.00  0.00    +0.202 A 
BRANCH  15  16
ATOM     16  C   UNL     1      -2.429  -0.732  -0.397  0.00  0.00    +0.023 A 
ATOM     19  C   UNL     1      -2.679  -0.501   0.956  0.00  0.00    +0.015 A 
ATOM     20  C   UNL     1      -3.492  -0.914  -1.282  0.00  0.00    +0.012 A 
ATOM     21  C   UNL     1      -3.992  -0.452   1.424  0.00  0.00    -0.050 A 
ATOM     22  C   UNL     1      -4.805  -0.864  -0.813  0.00  0.00    +0.001 A 
ATOM     23  C   UNL     1      -5.055  -0.633   0.540  0.00  0.00    +0.003 A 
ATOM     24  C   UNL     1      -4.259  -0.205   2.871  0.00  0.00    +0.044 C 
ENDBRANCH  15  16
ENDBRANCH   8  13
BRANCH  10   1
ATOM      1  O   UNL     1       4.999  -2.554   1.116  0.00  0.00    -0.390 OA
ATOM     25  H   UNL     1       4.778  -3.493   0.994  0.00  0.00    +0.210 HD
ENDBRANCH  10   1
BRANCH   3  12
ATOM     12  C   UNL     1       2.909   1.618   0.222  0.00  0.00    +0.159 C 
BRANCH  12  14
ATOM      5  N   UNL     1       1.169   2.887  -1.059  0.00  0.00    -0.347 N 
ATOM      6  N   UNL     1       0.631   2.346   1.026  0.00  0.00    -0.239 NA
ATOM     14  C   UNL     1       1.560   2.275   0.099  0.00  0.00    +0.121 A 
ATOM     17  C   UNL     1      -0.089   3.381  -0.857  0.00  0.00    +0.104 A 
ATOM     18  C   UNL     1      -0.399   3.035   0.437  0.00  0.00    +0.130 A 
ATOM     26  H   UNL     1       1.709   2.961  -1.911  0.00  0.00    +0.167 HD
ENDBRANCH  12  14
ENDBRANCH   3  12
TORSDOF 5
