REMARK  Name = 11886032
REMARK  4 active torsions:
REMARK  status: ('A' for Active; 'I' for Inactive)
REMARK    1  A    between atoms: S_1  and  C_15
REMARK    2  A    between atoms: S_1  and  C_20
REMARK    3  A    between atoms: O_4  and  C_12
REMARK    4  A    between atoms: N_5  and  C_11
REMARK                            x       y       z     vdW  Elec       q    Type
REMARK                         _______ _______ _______ _____ _____    ______ ____
ROOT
ATOM      5  N   UNL     1      -0.184  -1.274  -0.308  0.00  0.00    -0.212 N 
ATOM      6  N   UNL     1      -0.513  -2.321   0.457  0.00  0.00    -0.043 NA
ATOM      7  N   UNL     1       1.702  -2.164   0.265  0.00  0.00    -0.101 NA
ATOM      8  N   UNL     1       0.647  -2.863   0.805  0.00  0.00    -0.022 NA
ATOM     20  C   UNL     1       1.163  -1.183  -0.422  0.00  0.00    +0.210 A 
ENDROOT
BRANCH   5  11
ATOM      2  O   UNL     1      -3.438  -0.849  -0.070  0.00  0.00    -0.369 OA
ATOM      3  O   UNL     1      -2.064   1.841  -0.728  0.00  0.00    -0.369 OA
ATOM      9  C   UNL     1      -1.640   0.700   0.050  0.00  0.00    +0.176 C 
ATOM     10  C   UNL     1      -2.870   0.174   0.762  0.00  0.00    +0.180 C 
ATOM     11  C   UNL     1      -1.231  -0.424  -0.881  0.00  0.00    +0.168 C 
ATOM     12  C   UNL     1      -3.759   1.393   0.835  0.00  0.00    +0.171 C 
ATOM     13  C   UNL     1      -2.556  -1.123  -1.168  0.00  0.00    +0.190 C 
ATOM     14  C   UNL     1      -3.455   2.086  -0.473  0.00  0.00    +0.194 C 
BRANCH  12   4
ATOM      4  O   UNL     1      -5.128   1.085   0.966  0.00  0.00    -0.387 OA
ATOM     21  H   UNL     1      -5.623   1.921   0.911  0.00  0.00    +0.210 HD
ENDBRANCH  12   4
ENDBRANCH   5  11
BRANCH  20   1
ATOM      1  S   UNL     1       1.973   0.033  -1.328  0.00  0.00    -0.081 S 
BRANCH   1  15
ATOM     15  C   UNL     1       3.525   0.196  -0.410  0.00  0.00    +0.054 C 
ATOM     16  C   UNL     1       3.308   0.667   1.023  0.00  0.00    +0.014 C 
ATOM     17  C   UNL     1       4.434   1.278  -0.981  0.00  0.00    +0.014 C 
ATOM     18  C   UNL     1       4.685   1.171   1.447  0.00  0.00    +0.001 C 
ATOM     19  C   UNL     1       5.404   1.577   0.159  0.00  0.00    +0.001 C 
ENDBRANCH   1  15
ENDBRANCH  20   1
TORSDOF 4
