REMARK  Name = 11911723
REMARK  8 active torsions:
REMARK  status: ('A' for Active; 'I' for Inactive)
REMARK    1  A    between atoms: N_4  and  C_11
REMARK    2  A    between atoms: N_5  and  C_12
REMARK    3  A    between atoms: N_8  and  C_32
REMARK    4  A    between atoms: N_8  and  C_33
REMARK    5  A    between atoms: N_8  and  C_34
REMARK    6  A    between atoms: C_15  and  C_17
REMARK    7  A    between atoms: C_18  and  C_23
REMARK    8  A    between atoms: C_26  and  C_29
REMARK                            x       y       z     vdW  Elec       q    Type
REMARK                         _______ _______ _______ _____ _____    ______ ____
ROOT
ATOM      1  O   UNL     1      -1.745   3.802   1.127  0.00  0.00    -0.370 OA
ATOM      2  O   UNL     1      -0.709   0.964   1.911  0.00  0.00    -0.370 OA
ATOM      9  C   UNL     1      -0.622   1.746   0.708  0.00  0.00    +0.171 C 
ATOM     10  C   UNL     1      -1.933   2.494   0.561  0.00  0.00    +0.171 C 
ATOM     11  C   UNL     1      -2.908   1.695   1.395  0.00  0.00    +0.130 C 
ATOM     12  C   UNL     1       0.410   2.838   0.866  0.00  0.00    +0.130 C 
ATOM     13  C   UNL     1      -0.378   3.946   1.539  0.00  0.00    +0.185 C 
ATOM     14  C   UNL     1      -2.015   1.129   2.485  0.00  0.00    +0.185 C 
ENDROOT
BRANCH  12   5
ATOM      5  N   UNL     1       0.875   3.272  -0.433  0.00  0.00    -0.306 N 
ATOM      6  N   UNL     1       2.482   1.567  -0.551  0.00  0.00    -0.214 NA
ATOM      7  N   UNL     1       2.231   3.156  -2.345  0.00  0.00    -0.223 NA
ATOM     16  C   UNL     1       1.893   2.646  -1.131  0.00  0.00    +0.216 A 
ATOM     18  C   UNL     1       3.471   0.981  -1.258  0.00  0.00    +0.076 A 
ATOM     21  C   UNL     1       3.228   2.522  -2.997  0.00  0.00    +0.116 A 
ATOM     22  C   UNL     1       3.890   1.419  -2.498  0.00  0.00    +0.048 A 
ATOM     36  H   UNL     1       0.407   4.043  -0.897  0.00  0.00    +0.149 HD
BRANCH  18  23
ATOM     23  C   UNL     1       4.082  -0.163  -0.625  0.00  0.00    +0.001 A 
ATOM     27  C   UNL     1       3.336  -0.969   0.237  0.00  0.00    +0.012 A 
ATOM     28  C   UNL     1       5.422  -0.470  -0.874  0.00  0.00    +0.012 A 
ATOM     30  C   UNL     1       3.925  -2.076   0.847  0.00  0.00    +0.024 A 
ATOM     31  C   UNL     1       6.012  -1.577  -0.264  0.00  0.00    +0.024 A 
ATOM     32  C   UNL     1       5.263  -2.380   0.597  0.00  0.00    +0.029 A 
BRANCH  32   8
ATOM      8  N   UNL     1       5.860  -3.499   1.214  0.00  0.00    -0.336 N 
ATOM     33  C   UNL     1       5.417  -3.938   2.522  0.00  0.00    +0.129 C 
ATOM     34  C   UNL     1       6.934  -4.215   0.556  0.00  0.00    +0.129 C 
ENDBRANCH  32   8
ENDBRANCH  18  23
ENDBRANCH  12   5
BRANCH  11   4
ATOM      3  O   UNL     1      -5.455   0.463   1.882  0.00  0.00    -0.270 OA
ATOM      4  N   UNL     1      -3.518   0.642   0.620  0.00  0.00    -0.304 N 
ATOM     15  C   UNL     1      -4.760   0.108   0.935  0.00  0.00    +0.244 C 
ATOM     35  H   UNL     1      -2.950   0.221  -0.108  0.00  0.00    +0.149 HD
BRANCH  15  17
ATOM     17  C   UNL     1      -5.238  -0.988   0.053  0.00  0.00    +0.037 A 
ATOM     19  C   UNL     1      -6.114  -1.921   0.567  0.00  0.00    +0.013 A 
ATOM     20  C   UNL     1      -4.792  -1.037  -1.251  0.00  0.00    +0.013 A 
ATOM     24  C   UNL     1      -6.565  -2.950  -0.262  0.00  0.00    +0.004 A 
ATOM     25  C   UNL     1      -5.242  -2.065  -2.079  0.00  0.00    +0.004 A 
ATOM     26  C   UNL     1      -6.128  -3.021  -1.585  0.00  0.00    -0.050 A 
ATOM     29  C   UNL     1      -6.609  -4.122  -2.469  0.00  0.00    +0.044 C 
ENDBRANCH  15  17
ENDBRANCH  11   4
TORSDOF 5
