REMARK  Name = 25389742
REMARK  9 active torsions:
REMARK  status: ('A' for Active; 'I' for Inactive)
REMARK    1  A    between atoms: O_2  and  C_21
REMARK    2  A    between atoms: O_2  and  C_33
REMARK    3  A    between atoms: N_6  and  C_12
REMARK    4  A    between atoms: N_6  and  C_22
REMARK    5  A    between atoms: N_8  and  C_27
REMARK    6  A    between atoms: C_10  and  C_18
REMARK    7  A    between atoms: C_14  and  C_21
REMARK    8  A    between atoms: C_22  and  C_27
REMARK    9  A    between atoms: C_34  and  C_35
REMARK                            x       y       z     vdW  Elec       q    Type
REMARK                         _______ _______ _______ _____ _____    ______ ____
ROOT
ATOM      5  N   UNL     1       1.142   0.248   1.155  0.00  0.00    -0.274 NA
ATOM      7  N   UNL     1      -1.813  -2.062   0.638  0.00  0.00    -0.356 N 
ATOM      9  C   UNL     1      -0.252  -0.209   1.508  0.00  0.00    +0.106 C 
ATOM     10  C   UNL     1       1.201   0.866  -0.206  0.00  0.00    +0.090 C 
ATOM     11  C   UNL     1      -1.313   0.877   1.294  0.00  0.00    +0.044 C 
ATOM     12  C   UNL     1      -1.284   1.426  -0.129  0.00  0.00    +0.057 C 
ATOM     13  C   UNL     1       0.117   1.955  -0.414  0.00  0.00    +0.042 C 
ATOM     14  C   UNL     1       2.059  -0.921   1.370  0.00  0.00    +0.172 C 
ATOM     15  C   UNL     1      -0.573  -1.518   0.827  0.00  0.00    +0.038 A 
ATOM     16  C   UNL     1       1.823  -2.113   0.414  0.00  0.00    +0.068 C 
ATOM     17  C   UNL     1       0.363  -2.407   0.335  0.00  0.00    -0.016 A 
ATOM     19  C   UNL     1      -0.335  -3.519  -0.206  0.00  0.00    +0.003 A 
ATOM     20  C   UNL     1      -1.698  -3.277  -0.004  0.00  0.00    +0.047 A 
ATOM     25  C   UNL     1       0.054  -4.712  -0.847  0.00  0.00    +0.010 A 
ATOM     26  C   UNL     1      -2.691  -4.175  -0.413  0.00  0.00    +0.026 A 
ATOM     28  C   UNL     1      -0.930  -5.617  -1.263  0.00  0.00    +0.001 A 
ATOM     31  C   UNL     1      -2.280  -5.350  -1.048  0.00  0.00    +0.002 A 
ATOM     37  H   UNL     1      -2.688  -1.641   0.917  0.00  0.00    +0.166 HD
ENDROOT
BRANCH  10  18
ATOM      1 CL   UNL     1       5.378   1.163  -3.340  0.00  0.00    -0.084 Cl
ATOM     18  C   UNL     1       2.538   1.522  -0.546  0.00  0.00    -0.029 A 
ATOM     23  C   UNL     1       3.263   1.094  -1.658  0.00  0.00    +0.025 A 
ATOM     24  C   UNL     1       3.034   2.549   0.257  0.00  0.00    +0.005 A 
ATOM     29  C   UNL     1       4.483   1.693  -1.968  0.00  0.00    +0.041 A 
ATOM     30  C   UNL     1       4.255   3.148  -0.053  0.00  0.00    +0.002 A 
ATOM     32  C   UNL     1       4.980   2.721  -1.166  0.00  0.00    +0.020 A 
ENDBRANCH  10  18
BRANCH  14  21
ATOM      3  O   UNL     1       4.357  -0.979   0.669  0.00  0.00    -0.249 OA
ATOM     21  C   UNL     1       3.491  -0.496   1.386  0.00  0.00    +0.325 C 
BRANCH  21   2
ATOM      2  O   UNL     1       3.662   0.494   2.308  0.00  0.00    -0.467 OA
ATOM     33  C   UNL     1       4.996   0.997   2.428  0.00  0.00    +0.280 C 
ENDBRANCH  21   2
ENDBRANCH  14  21
BRANCH  12   6
ATOM      6  N   UNL     1      -2.268   2.496  -0.293  0.00  0.00    -0.312 NA
ATOM     36  H   UNL     1      -2.027   3.061  -1.107  0.00  0.00    +0.122 HD
BRANCH   6  22
ATOM     22  C   UNL     1      -3.601   1.946  -0.482  0.00  0.00    +0.100 C 
BRANCH  22  27
ATOM     27  C   UNL     1      -4.610   3.065  -0.691  0.00  0.00    +0.119 C 
BRANCH  27   8
ATOM      4  O   UNL     1      -6.630   2.488   1.313  0.00  0.00    -0.276 OA
ATOM      8  N   UNL     1      -5.931   2.541  -0.908  0.00  0.00    -0.314 N 
ATOM     34  C   UNL     1      -6.835   2.295   0.118  0.00  0.00    +0.210 C 
ATOM     35  C   UNL     1      -8.152   1.772  -0.388  0.00  0.00    +0.109 C 
ATOM     38  H   UNL     1      -6.208   2.342  -1.865  0.00  0.00    +0.149 HD
ENDBRANCH  27   8
ENDBRANCH  22  27
ENDBRANCH   6  22
ENDBRANCH  12   6
TORSDOF 7
