REMARK  Name = 11886009
REMARK  5 active torsions:
REMARK  status: ('A' for Active; 'I' for Inactive)
REMARK    1  A    between atoms: S_1  and  C_16
REMARK    2  A    between atoms: S_1  and  C_17
REMARK    3  A    between atoms: O_4  and  C_13
REMARK    4  A    between atoms: N_6  and  C_12
REMARK    5  A    between atoms: C_17  and  C_18
REMARK                            x       y       z     vdW  Elec       q    Type
REMARK                         _______ _______ _______ _____ _____    ______ ____
ROOT
ATOM      6  N   UNL     1       0.755   1.253  -0.190  0.00  0.00    -0.212 N 
ATOM      7  N   UNL     1       1.324   2.422   0.126  0.00  0.00    -0.043 NA
ATOM      8  N   UNL     1      -0.863   2.481   0.554  0.00  0.00    -0.101 NA
ATOM      9  N   UNL     1       0.328   3.171   0.581  0.00  0.00    -0.022 NA
ATOM     16  C   UNL     1      -0.574   1.294   0.072  0.00  0.00    +0.210 A 
ENDROOT
BRANCH   6  12
ATOM      2  O   UNL     1       3.929   0.527  -0.668  0.00  0.00    -0.369 OA
ATOM      3  O   UNL     1       2.319  -2.058  -0.139  0.00  0.00    -0.369 OA
ATOM     10  C   UNL     1       2.172  -0.707   0.351  0.00  0.00    +0.176 C 
ATOM     11  C   UNL     1       3.572  -0.157   0.544  0.00  0.00    +0.180 C 
ATOM     12  C   UNL     1       1.567   0.163  -0.734  0.00  0.00    +0.168 C 
ATOM     13  C   UNL     1       4.396  -1.406   0.743  0.00  0.00    +0.171 C 
ATOM     14  C   UNL     1       2.789   0.596  -1.537  0.00  0.00    +0.190 C 
ATOM     15  C   UNL     1       3.715  -2.386  -0.183  0.00  0.00    +0.194 C 
BRANCH  13   4
ATOM      4  O   UNL     1       5.760  -1.238   0.428  0.00  0.00    -0.387 OA
ATOM     22  H   UNL     1       6.186  -2.109   0.496  0.00  0.00    +0.210 HD
ENDBRANCH  13   4
ENDBRANCH   6  12
BRANCH  16   1
ATOM      1  S   UNL     1      -1.651  -0.017  -0.202  0.00  0.00    -0.077 S 
BRANCH   1  17
ATOM     17  C   UNL     1      -3.233   0.690   0.346  0.00  0.00    +0.151 C 
BRANCH  17  18
ATOM      5  O   UNL     1      -5.358   0.095  -0.605  0.00  0.00    -0.467 OA
ATOM     18  C   UNL     1      -4.352  -0.300   0.196  0.00  0.00    +0.115 A 
ATOM     19  C   UNL     1      -4.551  -1.533   0.718  0.00  0.00    +0.045 A 
ATOM     20  C   UNL     1      -5.797  -1.958   0.199  0.00  0.00    +0.041 A 
ATOM     21  C   UNL     1      -6.247  -0.933  -0.600  0.00  0.00    +0.195 A 
ENDBRANCH  17  18
ENDBRANCH   1  17
ENDBRANCH  16   1
TORSDOF 5
