REMARK  Name = 45784294
REMARK  5 active torsions:
REMARK  status: ('A' for Active; 'I' for Inactive)
REMARK    1  A    between atoms: O_1  and  C_21
REMARK    2  A    between atoms: O_1  and  C_23
REMARK    3  A    between atoms: N_2  and  C_6
REMARK    4  A    between atoms: N_3  and  C_16
REMARK    5  A    between atoms: C_7  and  C_15
REMARK                            x       y       z     vdW  Elec       q    Type
REMARK                         _______ _______ _______ _____ _____    ______ ____
ROOT
ATOM      2  N   UNL     1      -2.468  -0.889  -0.346  0.00  0.00    -0.299 NA
ATOM      7  C   UNL     1      -0.165  -1.171  -0.691  0.00  0.00    +0.070 C 
ATOM      8  C   UNL     1      -1.262  -0.100  -0.606  0.00  0.00    +0.096 C 
ATOM      9  C   UNL     1      -2.063  -1.881   0.650  0.00  0.00    +0.085 C 
ATOM     10  C   UNL     1      -0.712  -2.354   0.127  0.00  0.00    +0.028 C 
ENDROOT
BRANCH   7  15
ATOM      4  N   UNL     1       2.260  -0.666  -1.098  0.00  0.00    -0.341 N 
ATOM      5  N   UNL     1       1.500  -0.186   0.935  0.00  0.00    -0.232 NA
ATOM     15  C   UNL     1       1.188  -0.665  -0.248  0.00  0.00    +0.113 A 
ATOM     17  C   UNL     1       3.334  -0.154  -0.417  0.00  0.00    +0.070 A 
ATOM     18  C   UNL     1       2.835   0.137   0.849  0.00  0.00    +0.089 A 
ATOM     19  C   UNL     1       4.660   0.072  -0.789  0.00  0.00    +0.073 A 
ATOM     20  C   UNL     1       3.695   0.687   1.815  0.00  0.00    +0.033 A 
ATOM     21  C   UNL     1       5.502   0.620   0.185  0.00  0.00    +0.122 A 
ATOM     22  C   UNL     1       5.030   0.923   1.464  0.00  0.00    +0.048 A 
ATOM     24  H   UNL     1       2.263  -0.986  -2.057  0.00  0.00    +0.167 HD
BRANCH  21   1
ATOM      1  O   UNL     1       6.809   0.862  -0.123  0.00  0.00    -0.495 OA
ATOM     23  C   UNL     1       7.233   0.532  -1.444  0.00  0.00    +0.277 C 
ENDBRANCH  21   1
ENDBRANCH   7  15
BRANCH   2   6
ATOM      3  N   UNL     1      -6.326   0.890  -0.253  0.00  0.00    -0.305 NA
ATOM      6  C   UNL     1      -3.584  -0.066   0.111  0.00  0.00    +0.059 C 
ATOM     11  C   UNL     1      -3.949   0.994  -0.933  0.00  0.00    +0.034 C 
ATOM     12  C   UNL     1      -4.802  -0.943   0.411  0.00  0.00    +0.034 C 
ATOM     13  C   UNL     1      -5.187   1.784  -0.504  0.00  0.00    +0.085 C 
ATOM     14  C   UNL     1      -6.013  -0.089   0.797  0.00  0.00    +0.085 C 
ATOM     16  C   UNL     1      -7.514   1.664   0.107  0.00  0.00    +0.104 C 
ENDBRANCH   2   6
TORSDOF 3
