REMARK  Name = 38029736
REMARK  13 active torsions:
REMARK  status: ('A' for Active; 'I' for Inactive)
REMARK    1  A    between atoms: S_1  and  N_6
REMARK    2  A    between atoms: S_1  and  C_20
REMARK    3  A    between atoms: O_2  and  C_19
REMARK    4  A    between atoms: O_2  and  C_21
REMARK    5  A    between atoms: N_6  and  C_14
REMARK    6  A    between atoms: C_7  and  C_11
REMARK    7  A    between atoms: C_8  and  C_14
REMARK    8  A    between atoms: C_10  and  C_15
REMARK    9  A    between atoms: C_11  and  C_16
REMARK   10  A    between atoms: C_11  and  C_17
REMARK   11  A    between atoms: C_12  and  C_18
REMARK   12  A    between atoms: C_15  and  C_19
REMARK   13  A    between atoms: C_21  and  C_24
REMARK                            x       y       z     vdW  Elec       q    Type
REMARK                         _______ _______ _______ _____ _____    ______ ____
ROOT
ATOM      7  C   UNL     1      -1.178  -0.432   1.225  0.00  0.00    +0.000 C 
ATOM      8  C   UNL     1      -0.052  -1.485   1.070  0.00  0.00    +0.030 C 
ATOM      9  C   UNL     1      -2.555  -1.086   1.036  0.00  0.00    +0.012 C 
ATOM     10  C   UNL     1      -2.698  -1.753  -0.345  0.00  0.00    +0.025 C 
ATOM     12  C   UNL     1      -1.492  -2.603  -0.688  0.00  0.00    -0.073 C 
ATOM     13  C   UNL     1      -0.322  -2.479  -0.036  0.00  0.00    -0.023 C 
ATOM     18  C   UNL     1      -1.674  -3.633  -1.768  0.00  0.00    +0.039 C 
ENDROOT
BRANCH   7  11
ATOM     11  C   UNL     1      -1.118   0.267   2.587  0.00  0.00    -0.013 C 
ATOM     16  C   UNL     1      -1.779  -0.596   3.657  0.00  0.00    +0.007 C 
ATOM     17  C   UNL     1      -1.782   1.638   2.512  0.00  0.00    +0.007 C 
ENDBRANCH   7  11
BRANCH   8  14
ATOM     14  C   UNL     1       1.305  -0.813   0.833  0.00  0.00    +0.113 C 
BRANCH  14   6
ATOM      6  N   UNL     1       1.278  -0.118  -0.464  0.00  0.00    -0.189 NA
ATOM     28  H   UNL     1       1.080  -0.700  -1.287  0.00  0.00    +0.148 HD
BRANCH   6   1
ATOM      1  S   UNL     1       2.220   1.281  -0.706  0.00  0.00    +0.058 S 
ATOM      4  O   UNL     1       1.920   2.245   0.336  0.00  0.00    -0.153 OA
ATOM      5  O   UNL     1       2.146   1.668  -2.101  0.00  0.00    -0.153 OA
BRANCH   1  20
ATOM     20  C   UNL     1       3.854   0.667  -0.426  0.00  0.00    +0.105 A 
ATOM     22  C   UNL     1       4.598   0.155  -1.489  0.00  0.00    +0.028 A 
ATOM     23  C   UNL     1       4.398   0.691   0.858  0.00  0.00    +0.028 A 
ATOM     25  C   UNL     1       5.886  -0.333  -1.268  0.00  0.00    +0.002 A 
ATOM     26  C   UNL     1       5.686   0.203   1.079  0.00  0.00    +0.002 A 
ATOM     27  C   UNL     1       6.429  -0.309   0.017  0.00  0.00    +0.000 A 
ENDBRANCH   1  20
ENDBRANCH   6   1
ENDBRANCH  14   6
ENDBRANCH   8  14
BRANCH  10  15
ATOM     15  C   UNL     1      -2.962  -0.710  -1.437  0.00  0.00    +0.128 C 
BRANCH  15  19
ATOM      3  O   UNL     1      -5.297  -0.253  -0.936  0.00  0.00    -0.251 OA
ATOM     19  C   UNL     1      -4.154   0.149  -1.107  0.00  0.00    +0.308 C 
BRANCH  19   2
ATOM      2  O   UNL     1      -3.742   1.449  -1.034  0.00  0.00    -0.465 OA
BRANCH   2  21
ATOM     21  C   UNL     1      -4.763   2.403  -0.726  0.00  0.00    +0.229 C 
ATOM     24  C   UNL     1      -4.149   3.786  -0.681  0.00  0.00    +0.048 C 
ENDBRANCH   2  21
ENDBRANCH  19   2
ENDBRANCH  15  19
ENDBRANCH  10  15
TORSDOF 9
