REMARK  Name = 56774928
REMARK  10 active torsions:
REMARK  status: ('A' for Active; 'I' for Inactive)
REMARK    1  A    between atoms: O_2  and  C_10
REMARK    2  A    between atoms: O_3  and  C_16
REMARK    3  A    between atoms: O_3  and  C_22
REMARK    4  A    between atoms: N_6  and  C_12
REMARK    5  A    between atoms: N_7  and  C_21
REMARK    6  A    between atoms: C_9  and  C_10
REMARK    7  A    between atoms: C_10  and  C_14
REMARK    8  A    between atoms: C_12  and  C_16
REMARK    9  A    between atoms: C_22  and  C_23
REMARK   10  A    between atoms: C_24  and  C_25
REMARK                            x       y       z     vdW  Elec       q    Type
REMARK                         _______ _______ _______ _____ _____    ______ ____
ROOT
ATOM     14  C   UNL     1      -0.615  -0.624   0.794  0.00  0.00    -0.017 A 
ATOM     17  C   UNL     1      -0.179   0.700   0.852  0.00  0.00    +0.008 A 
ATOM     18  C   UNL     1       0.301  -1.650   0.560  0.00  0.00    +0.008 A 
ATOM     19  C   UNL     1       1.172   0.998   0.676  0.00  0.00    +0.023 A 
ATOM     20  C   UNL     1       1.652  -1.352   0.385  0.00  0.00    +0.023 A 
ATOM     21  C   UNL     1       2.088  -0.028   0.443  0.00  0.00    +0.034 A 
ENDROOT
BRANCH  21   7
ATOM      5  O   UNL     1       4.420  -1.839  -0.076  0.00  0.00    -0.270 OA
ATOM      7  N   UNL     1       3.439   0.270   0.268  0.00  0.00    -0.281 N 
ATOM     24  C   UNL     1       4.495  -0.619   0.027  0.00  0.00    +0.250 C 
ATOM     31  H   UNL     1       3.647   1.264   0.288  0.00  0.00    +0.155 HD
BRANCH  24  25
ATOM      8  N   UNL     1       7.324   1.850   0.331  0.00  0.00    -0.263 NA
ATOM     25  C   UNL     1       5.831   0.009  -0.145  0.00  0.00    +0.055 A 
ATOM     26  C   UNL     1       6.821  -0.607  -0.903  0.00  0.00    +0.016 A 
ATOM     27  C   UNL     1       6.130   1.226   0.446  0.00  0.00    +0.123 A 
ATOM     28  C   UNL     1       8.061   0.004  -1.045  0.00  0.00    +0.020 A 
ATOM     29  C   UNL     1       8.261   1.221  -0.414  0.00  0.00    +0.111 A 
ENDBRANCH  24  25
ENDBRANCH  21   7
BRANCH  14  10
ATOM     10  C   UNL     1      -2.075  -0.947   0.984  0.00  0.00    +0.167 C 
BRANCH  10   9
ATOM      1  O   UNL     1      -2.834  -2.027  -1.637  0.00  0.00    -0.369 OA
ATOM      4  O   UNL     1      -6.123  -2.041  -0.147  0.00  0.00    -0.273 OA
ATOM      6  N   UNL     1      -4.372  -0.543   0.178  0.00  0.00    -0.289 N 
ATOM      9  C   UNL     1      -2.954  -0.240  -0.053  0.00  0.00    +0.135 C 
ATOM     11  C   UNL     1      -2.559  -0.641  -1.470  0.00  0.00    +0.185 C 
ATOM     13  C   UNL     1      -4.995  -1.632  -0.428  0.00  0.00    +0.242 C 
ATOM     15  C   UNL     1      -4.219  -2.280  -1.569  0.00  0.00    +0.255 C 
BRANCH   6  12
ATOM     12  C   UNL     1      -5.064   0.223   1.206  0.00  0.00    +0.136 C 
BRANCH  12  16
ATOM     16  C   UNL     1      -5.894   1.341   0.603  0.00  0.00    +0.178 C 
BRANCH  16   3
ATOM      3  O   UNL     1      -5.041   2.242  -0.090  0.00  0.00    -0.378 OA
BRANCH   3  22
ATOM     22  C   UNL     1      -5.774   3.310  -0.674  0.00  0.00    +0.156 C 
ATOM     23  C   UNL     1      -4.814   4.232  -1.395  0.00  0.00    +0.034 C 
ENDBRANCH   3  22
ENDBRANCH  16   3
ENDBRANCH  12  16
ENDBRANCH   6  12
ENDBRANCH  10   9
BRANCH  10   2
ATOM      2  O   UNL     1      -2.482  -0.555   2.291  0.00  0.00    -0.385 OA
ATOM     30  H   UNL     1      -2.190   0.357   2.458  0.00  0.00    +0.210 HD
ENDBRANCH  10   2
ENDBRANCH  14  10
TORSDOF 9
