REMARK  Name = 26745471
REMARK  8 active torsions:
REMARK  status: ('A' for Active; 'I' for Inactive)
REMARK    1  A    between atoms: S_2  and  N_7
REMARK    2  A    between atoms: S_2  and  C_15
REMARK    3  A    between atoms: O_5  and  C_16
REMARK    4  A    between atoms: O_5  and  C_25
REMARK    5  A    between atoms: N_8  and  C_17
REMARK    6  A    between atoms: C_10  and  C_16
REMARK    7  A    between atoms: C_15  and  C_19
REMARK    8  A    between atoms: C_17  and  C_20
REMARK                            x       y       z     vdW  Elec       q    Type
REMARK                         _______ _______ _______ _____ _____    ______ ____
ROOT
ATOM      7  N   UNL     1      -0.922   1.126   0.215  0.00  0.00    -0.161 NA
ATOM      8  N   UNL     1       2.297   0.487   2.010  0.00  0.00    -0.328 N 
ATOM      9  N   UNL     1       2.434   2.716   2.088  0.00  0.00    -0.240 NA
ATOM     10  C   UNL     1      -0.511   2.482  -0.298  0.00  0.00    +0.194 C 
ATOM     11  C   UNL     1       0.197   0.187   0.595  0.00  0.00    +0.165 C 
ATOM     12  C   UNL     1       0.368   3.241   0.720  0.00  0.00    +0.089 C 
ATOM     13  C   UNL     1       1.235   0.963   1.301  0.00  0.00    +0.057 A 
ATOM     14  C   UNL     1       1.343   2.330   1.360  0.00  0.00    +0.066 A 
ATOM     18  C   UNL     1       2.990   1.582   2.465  0.00  0.00    +0.200 A 
ENDROOT
BRANCH   7   2
ATOM      2  S   UNL     1      -2.265   0.390  -0.552  0.00  0.00    +0.037 S 
ATOM      3  O   UNL     1      -1.790  -0.386  -1.676  0.00  0.00    -0.158 OA
ATOM      4  O   UNL     1      -3.314   1.375  -0.696  0.00  0.00    -0.158 OA
BRANCH   2  15
ATOM     15  C   UNL     1      -2.742  -0.737   0.732  0.00  0.00    +0.220 C 
BRANCH  15  19
ATOM     19  C   UNL     1      -4.165  -1.133   0.486  0.00  0.00    -0.025 A 
ATOM     21  C   UNL     1      -4.476  -2.012  -0.551  0.00  0.00    +0.005 A 
ATOM     22  C   UNL     1      -5.181  -0.621   1.294  0.00  0.00    +0.005 A 
ATOM     26  C   UNL     1      -5.803  -2.380  -0.779  0.00  0.00    +0.000 A 
ATOM     27  C   UNL     1      -6.506  -0.989   1.066  0.00  0.00    +0.000 A 
ATOM     30  C   UNL     1      -6.817  -1.868   0.029  0.00  0.00    +0.000 A 
ENDBRANCH  15  19
ENDBRANCH   2  15
ENDBRANCH   7   2
BRANCH  10  16
ATOM      6  O   UNL     1       0.398   1.228  -2.138  0.00  0.00    -0.249 OA
ATOM     16  C   UNL     1       0.176   2.312  -1.616  0.00  0.00    +0.326 C 
BRANCH  16   5
ATOM      5  O   UNL     1       0.502   3.536  -2.121  0.00  0.00    -0.467 OA
ATOM     25  C   UNL     1       1.169   3.521  -3.387  0.00  0.00    +0.280 C 
ENDBRANCH  16   5
ENDBRANCH  10  16
BRANCH   8  17
ATOM     17  C   UNL     1       2.646  -0.893   2.240  0.00  0.00    +0.158 C 
BRANCH  17  20
ATOM      1 CL   UNL     1       5.267  -3.513  -2.504  0.00  0.00    -0.084 Cl
ATOM     20  C   UNL     1       3.304  -1.550   1.052  0.00  0.00    -0.028 A 
ATOM     23  C   UNL     1       2.748  -2.702   0.495  0.00  0.00    +0.007 A 
ATOM     24  C   UNL     1       4.468  -1.005   0.509  0.00  0.00    +0.007 A 
ATOM     28  C   UNL     1       3.355  -3.309  -0.604  0.00  0.00    +0.020 A 
ATOM     29  C   UNL     1       5.076  -1.613  -0.590  0.00  0.00    +0.020 A 
ATOM     31  C   UNL     1       4.519  -2.765  -1.146  0.00  0.00    +0.041 A 
ENDBRANCH  17  20
ENDBRANCH   8  17
TORSDOF 7
