REMARK  Name = 11943278
REMARK  5 active torsions:
REMARK  status: ('A' for Active; 'I' for Inactive)
REMARK    1  A    between atoms: N_4  and  C_13
REMARK    2  A    between atoms: C_6  and  C_12
REMARK    3  A    between atoms: C_7  and  C_13
REMARK    4  A    between atoms: C_12  and  C_14
REMARK    5  A    between atoms: C_15  and  C_16
REMARK                            x       y       z     vdW  Elec       q    Type
REMARK                         _______ _______ _______ _____ _____    ______ ____
ROOT
ATOM      3  N   UNL     1       2.219   1.328  -0.656  0.00  0.00    -0.298 NA
ATOM      5  C   UNL     1       2.696  -0.115   1.454  0.00  0.00    -0.004 C 
ATOM      6  C   UNL     1       3.582  -0.561   0.269  0.00  0.00    +0.006 C 
ATOM      7  C   UNL     1       0.946   0.777  -0.118  0.00  0.00    +0.074 C 
ATOM      8  C   UNL     1       1.214  -0.204   1.045  0.00  0.00    +0.024 C 
ATOM      9  C   UNL     1       3.156   0.228  -0.989  0.00  0.00    +0.088 C 
ATOM     10  C   UNL     1       3.010   1.371   1.713  0.00  0.00    +0.019 C 
ATOM     11  C   UNL     1       2.841   2.160   0.403  0.00  0.00    +0.085 C 
ENDROOT
BRANCH   6  12
ATOM     12  C   UNL     1       3.549  -2.069   0.026  0.00  0.00    +0.002 C 
ATOM     14  C   UNL     1       4.510  -2.473  -1.075  0.00  0.00    +0.004 C 
ENDBRANCH   6  12
BRANCH   7  13
ATOM     13  C   UNL     1       0.078   0.144  -1.207  0.00  0.00    +0.123 C 
BRANCH  13   4
ATOM      1  O   UNL     1      -2.248   1.735  -1.105  0.00  0.00    -0.267 OA
ATOM      4  N   UNL     1      -1.189  -0.260  -0.679  0.00  0.00    -0.307 N 
ATOM     15  C   UNL     1      -2.305   0.587  -0.661  0.00  0.00    +0.279 C 
ATOM     20  H   UNL     1      -1.280  -1.202  -0.309  0.00  0.00    +0.149 HD
BRANCH  15  16
ATOM      2  O   UNL     1      -3.475  -1.251   0.305  0.00  0.00    -0.458 OA
ATOM     16  C   UNL     1      -3.545   0.017  -0.116  0.00  0.00    +0.189 A 
ATOM     17  C   UNL     1      -4.761   0.572   0.031  0.00  0.00    +0.054 A 
ATOM     18  C   UNL     1      -5.553  -0.450   0.608  0.00  0.00    +0.042 A 
ATOM     19  C   UNL     1      -4.725  -1.538   0.754  0.00  0.00    +0.196 A 
ENDBRANCH  15  16
ENDBRANCH  13   4
ENDBRANCH   7  13
TORSDOF 4
