REMARK  Name = 7143045
REMARK  5 active torsions:
REMARK  status: ('A' for Active; 'I' for Inactive)
REMARK    1  A    between atoms: O_3  and  C_26
REMARK    2  A    between atoms: O_3  and  C_29
REMARK    3  A    between atoms: N_7  and  C_19
REMARK    4  A    between atoms: N_8  and  C_21
REMARK    5  A    between atoms: C_18  and  C_26
REMARK                            x       y       z     vdW  Elec       q    Type
REMARK                         _______ _______ _______ _____ _____    ______ ____
ROOT
ATOM      1  O   UNL     1      -0.908   2.771  -1.597  0.00  0.00    -0.266 OA
ATOM      2  O   UNL     1       3.521  -0.161  -2.274  0.00  0.00    -0.272 OA
ATOM      5  N   UNL     1       3.740   1.253  -0.444  0.00  0.00    -0.298 N 
ATOM      6  N   UNL     1       0.935   2.763  -0.162  0.00  0.00    -0.310 N 
ATOM      9  C   UNL     1       3.230   3.665  -0.849  0.00  0.00    +0.027 C 
ATOM     10  C   UNL     1       2.915   2.712   1.396  0.00  0.00    +0.054 C 
ATOM     11  C   UNL     1       3.412   3.942   0.638  0.00  0.00    +0.018 C 
ATOM     12  C   UNL     1       4.038   2.425  -1.269  0.00  0.00    +0.113 C 
ATOM     13  C   UNL     1       1.734   3.506  -1.145  0.00  0.00    +0.130 C 
ATOM     14  C   UNL     1       3.767   1.488   1.008  0.00  0.00    +0.117 C 
ATOM     15  C   UNL     1       1.453   2.439   1.096  0.00  0.00    +0.027 A 
ATOM     16  C   UNL     1       0.669   1.863   2.022  0.00  0.00    +0.024 A 
ATOM     17  C   UNL     1      -0.403   2.489  -0.510  0.00  0.00    +0.273 A 
ATOM     18  C   UNL     1       3.541   0.014  -1.053  0.00  0.00    +0.253 C 
ATOM     19  C   UNL     1      -1.237   1.824   0.541  0.00  0.00    +0.100 A 
ATOM     20  C   UNL     1      -0.703   1.549   1.736  0.00  0.00    +0.030 A 
ENDROOT
BRANCH  19   7
ATOM      4  O   UNL     1      -2.780  -0.335   1.610  0.00  0.00    -0.252 OA
ATOM      7  N   UNL     1      -2.534   1.530   0.238  0.00  0.00    -0.265 N 
ATOM      8  N   UNL     1      -4.540   0.410   0.295  0.00  0.00    -0.296 N 
ATOM     28  C   UNL     1      -3.239   0.461   0.791  0.00  0.00    +0.304 C 
ATOM     35  H   UNL     1      -2.920   1.956  -0.600  0.00  0.00    +0.157 HD
ATOM     36  H   UNL     1      -4.802   1.072  -0.429  0.00  0.00    +0.151 HD
BRANCH   8  21
ATOM     21  C   UNL     1      -5.495  -0.598   0.698  0.00  0.00    +0.074 C 
ATOM     22  C   UNL     1      -5.385  -1.846  -0.186  0.00  0.00    +0.022 C 
ATOM     23  C   UNL     1      -6.922  -0.039   0.693  0.00  0.00    +0.022 C 
ATOM     24  C   UNL     1      -5.920  -1.611  -1.599  0.00  0.00    +0.002 C 
ATOM     25  C   UNL     1      -7.455   0.193  -0.721  0.00  0.00    +0.002 C 
ATOM     27  C   UNL     1      -7.345  -1.065  -1.577  0.00  0.00    +0.000 C 
ENDBRANCH   8  21
ENDBRANCH  19   7
BRANCH  18  26
ATOM     26  C   UNL     1       3.332  -1.164  -0.136  0.00  0.00    +0.324 C 
BRANCH  26   3
ATOM      3  O   UNL     1       3.118  -2.283  -0.961  0.00  0.00    -0.483 OA
BRANCH   3  29
ATOM     29  C   UNL     1       2.849  -3.483  -0.341  0.00  0.00    +0.121 A 
ATOM     30  C   UNL     1       2.796  -3.554   1.051  0.00  0.00    +0.045 A 
ATOM     31  C   UNL     1       2.629  -4.629  -1.106  0.00  0.00    +0.045 A 
ATOM     32  C   UNL     1       2.524  -4.769   1.679  0.00  0.00    +0.004 A 
ATOM     33  C   UNL     1       2.357  -5.845  -0.478  0.00  0.00    +0.004 A 
ATOM     34  C   UNL     1       2.305  -5.915   0.914  0.00  0.00    +0.000 A 
ENDBRANCH   3  29
ENDBRANCH  26   3
ENDBRANCH  18  26
TORSDOF 5
