REMARK  Name = 75536535
REMARK  7 active torsions:
REMARK  status: ('A' for Active; 'I' for Inactive)
REMARK    1  A    between atoms: O_2  and  C_9
REMARK    2  A    between atoms: N_5  and  C_8
REMARK    3  A    between atoms: N_5  and  C_10
REMARK    4  A    between atoms: N_7  and  C_18
REMARK    5  A    between atoms: C_11  and  C_18
REMARK    6  A    between atoms: C_12  and  C_21
REMARK    7  A    between atoms: C_22  and  C_23
REMARK                            x       y       z     vdW  Elec       q    Type
REMARK                         _______ _______ _______ _____ _____    ______ ____
ROOT
ATOM      1  O   UNL     1       1.952  -0.133   1.205  0.00  0.00    -0.371 OA
ATOM      8  C   UNL     1      -0.097   0.468   0.165  0.00  0.00    +0.111 C 
ATOM      9  C   UNL     1       0.993   1.413  -0.306  0.00  0.00    +0.164 C 
ATOM     11  C   UNL     1       2.241   0.598   0.001  0.00  0.00    +0.165 C 
ATOM     15  C   UNL     1       0.531  -0.112   1.422  0.00  0.00    +0.181 C 
ENDROOT
BRANCH   9   2
ATOM      2  O   UNL     1       0.890   1.722  -1.682  0.00  0.00    -0.388 OA
ATOM     26  H   UNL     1       0.899   0.890  -2.184  0.00  0.00    +0.210 HD
ENDBRANCH   9   2
BRANCH   8   5
ATOM      5  N   UNL     1      -1.369   1.124   0.419  0.00  0.00    -0.306 NA
ATOM     24  H   UNL     1      -1.578   1.788  -0.327  0.00  0.00    +0.123 HD
BRANCH   5  10
ATOM      4  O   UNL     1      -6.768  -0.962  -1.656  0.00  0.00    -0.276 OA
ATOM      6  N   UNL     1      -5.180  -0.657   0.012  0.00  0.00    -0.302 N 
ATOM     10  C   UNL     1      -2.446   0.143   0.528  0.00  0.00    +0.057 C 
ATOM     16  C   UNL     1      -3.619   0.735   1.319  0.00  0.00    +0.037 C 
ATOM     17  C   UNL     1      -2.906  -0.292  -0.869  0.00  0.00    +0.037 C 
ATOM     19  C   UNL     1      -4.796  -0.239   1.366  0.00  0.00    +0.109 C 
ATOM     20  C   UNL     1      -4.096  -1.246  -0.778  0.00  0.00    +0.109 C 
ATOM     22  C   UNL     1      -6.463  -0.570  -0.527  0.00  0.00    +0.212 C 
ATOM     23  C   UNL     1      -7.522   0.051   0.349  0.00  0.00    +0.109 C 
ENDBRANCH   5  10
ENDBRANCH   8   5
BRANCH  11  18
ATOM     18  C   UNL     1       3.481   1.451   0.204  0.00  0.00    +0.138 C 
BRANCH  18   7
ATOM      3  O   UNL     1       5.367   0.307  -1.691  0.00  0.00    -0.276 OA
ATOM      7  N   UNL     1       4.629   0.642   0.494  0.00  0.00    -0.313 N 
ATOM     21  C   UNL     1       5.477   0.138  -0.482  0.00  0.00    +0.216 C 
ATOM     25  H   UNL     1       4.824   0.434   1.469  0.00  0.00    +0.149 HD
BRANCH  21  12
ATOM     12  C   UNL     1       6.611  -0.677   0.047  0.00  0.00    +0.075 C 
ATOM     13  C   UNL     1       6.301  -1.840   0.929  0.00  0.00    +0.013 C 
ATOM     14  C   UNL     1       6.792  -2.065  -0.470  0.00  0.00    +0.013 C 
ENDBRANCH  21  12
ENDBRANCH  18   7
ENDBRANCH  11  18
TORSDOF 6
