REMARK  Name = 45783431
REMARK  8 active torsions:
REMARK  status: ('A' for Active; 'I' for Inactive)
REMARK    1  A    between atoms: O_2  and  C_19
REMARK    2  A    between atoms: O_2  and  C_23
REMARK    3  A    between atoms: O_3  and  C_24
REMARK    4  A    between atoms: O_3  and  C_25
REMARK    5  A    between atoms: N_4  and  C_8
REMARK    6  A    between atoms: C_11  and  C_16
REMARK    7  A    between atoms: C_17  and  C_18
REMARK    8  A    between atoms: C_23  and  C_24
REMARK                            x       y       z     vdW  Elec       q    Type
REMARK                         _______ _______ _______ _____ _____    ______ ____
ROOT
ATOM      1  O   UNL     1       0.444   2.627   0.855  0.00  0.00    -0.336 OA
ATOM      5  N   UNL     1      -0.225   0.961  -0.484  0.00  0.00    -0.190 NA
ATOM      6  N   UNL     1      -0.922   2.447   1.109  0.00  0.00    -0.056 NA
ATOM     16  C   UNL     1       0.773   1.713  -0.095  0.00  0.00    +0.245 A 
ATOM     17  C   UNL     1      -1.243   1.448   0.282  0.00  0.00    +0.207 A 
ENDROOT
BRANCH  17  18
ATOM      7  N   UNL     1      -4.047  -0.953  -0.229  0.00  0.00    -0.221 NA
ATOM     18  C   UNL     1      -2.572   0.914   0.196  0.00  0.00    +0.084 A 
ATOM     19  C   UNL     1      -2.813  -0.409  -0.137  0.00  0.00    +0.226 A 
ATOM     20  C   UNL     1      -3.668   1.732   0.451  0.00  0.00    +0.018 A 
ATOM     21  C   UNL     1      -4.953   1.208   0.366  0.00  0.00    +0.021 A 
ATOM     22  C   UNL     1      -5.088  -0.128   0.026  0.00  0.00    +0.114 A 
BRANCH  19   2
ATOM      2  O   UNL     1      -1.765  -1.254  -0.397  0.00  0.00    -0.474 OA
BRANCH   2  23
ATOM     23  C   UNL     1      -2.095  -2.596  -0.732  0.00  0.00    +0.258 C 
BRANCH  23  24
ATOM     24  C   UNL     1      -0.818  -3.366  -1.007  0.00  0.00    +0.200 C 
BRANCH  24   3
ATOM      3  O   UNL     1       0.006  -3.327   0.152  0.00  0.00    -0.380 OA
ATOM     25  C   UNL     1       1.212  -4.054  -0.041  0.00  0.00    +0.194 C 
ENDBRANCH  24   3
ENDBRANCH  23  24
ENDBRANCH   2  23
ENDBRANCH  19   2
ENDBRANCH  17  18
BRANCH  16  11
ATOM      4  N   UNL     1       2.855   0.382  -0.362  0.00  0.00    -0.288 NA
ATOM     11  C   UNL     1       2.218   1.703  -0.549  0.00  0.00    +0.146 C 
ATOM     13  C   UNL     1       3.864   0.255  -1.415  0.00  0.00    +0.085 C 
ATOM     14  C   UNL     1       2.375   2.006  -2.051  0.00  0.00    +0.030 C 
ATOM     15  C   UNL     1       3.134   0.815  -2.619  0.00  0.00    +0.017 C 
BRANCH   4   8
ATOM      8  C   UNL     1       3.479   0.269   0.963  0.00  0.00    +0.057 C 
ATOM      9  C   UNL     1       4.039  -1.157   1.151  0.00  0.00    +0.019 C 
ATOM     10  C   UNL     1       2.406  -0.098   2.010  0.00  0.00    +0.019 C 
ATOM     12  C   UNL     1       3.406  -1.137   2.558  0.00  0.00    +0.003 C 
ENDBRANCH   4   8
ENDBRANCH  16  11
TORSDOF 7
