REMARK  Name = 56775465
REMARK  9 active torsions:
REMARK  status: ('A' for Active; 'I' for Inactive)
REMARK    1  A    between atoms: N_4  and  C_6
REMARK    2  A    between atoms: N_4  and  C_11
REMARK    3  A    between atoms: C_6  and  C_9
REMARK    4  A    between atoms: C_9  and  C_10
REMARK    5  A    between atoms: C_11  and  C_15
REMARK    6  A    between atoms: C_12  and  C_14
REMARK    7  A    between atoms: C_12  and  C_16
REMARK    8  A    between atoms: C_12  and  C_17
REMARK    9  A    between atoms: C_12  and  C_18
REMARK                            x       y       z     vdW  Elec       q    Type
REMARK                         _______ _______ _______ _____ _____    ______ ____
ROOT
ATOM      2  O   UNL     1       0.342   4.010  -0.980  0.00  0.00    -0.376 OA
ATOM      6  C   UNL     1       0.011   2.163   0.037  0.00  0.00    +0.072 C 
ATOM      7  C   UNL     1      -0.487   2.852  -1.228  0.00  0.00    +0.184 C 
ATOM      8  C   UNL     1       0.926   3.375   0.180  0.00  0.00    +0.184 C 
ENDROOT
BRANCH   6   4
ATOM      4  N   UNL     1       0.817   1.010  -0.341  0.00  0.00    -0.302 NA
ATOM     24  H   UNL     1       0.306   0.260  -0.806  0.00  0.00    +0.123 HD
BRANCH   4  11
ATOM     11  C   UNL     1       1.509   0.484   0.833  0.00  0.00    +0.117 C 
BRANCH  11  15
ATOM      1  F   UNL     1       6.185  -2.327  -0.575  0.00  0.00    -0.205 F 
ATOM     15  C   UNL     1       2.759  -0.267   0.457  0.00  0.00    -0.033 A 
ATOM     19  C   UNL     1       2.698  -1.637   0.201  0.00  0.00    +0.008 A 
ATOM     20  C   UNL     1       3.976   0.407   0.364  0.00  0.00    +0.008 A 
ATOM     21  C   UNL     1       3.856  -2.333  -0.147  0.00  0.00    +0.038 A 
ATOM     22  C   UNL     1       5.134  -0.289   0.015  0.00  0.00    +0.038 A 
ATOM     23  C   UNL     1       5.073  -1.659  -0.240  0.00  0.00    +0.123 A 
ENDBRANCH  11  15
ENDBRANCH   4  11
ENDBRANCH   6   4
BRANCH   6   9
ATOM      9  C   UNL     1      -0.989   1.852   1.159  0.00  0.00    +0.085 C 
BRANCH   9  10
ATOM      3  O   UNL     1      -3.985   0.451  -0.188  0.00  0.00    -0.359 OA
ATOM      5  N   UNL     1      -3.184   1.530   0.166  0.00  0.00    -0.083 NA
ATOM     10  C   UNL     1      -2.076   0.985   0.675  0.00  0.00    +0.086 A 
ATOM     13  C   UNL     1      -2.120  -0.420   0.668  0.00  0.00    +0.071 A 
ATOM     14  C   UNL     1      -3.341  -0.705   0.116  0.00  0.00    +0.143 A 
BRANCH  14  12
ATOM     12  C   UNL     1      -4.083  -2.011  -0.209  0.00  0.00    +0.023 C 
ATOM     16  C   UNL     1      -3.251  -2.848  -1.204  0.00  0.00    +0.019 C 
ATOM     17  C   UNL     1      -4.294  -2.825   1.086  0.00  0.00    +0.019 C 
ATOM     18  C   UNL     1      -5.476  -1.797  -0.845  0.00  0.00    +0.019 C 
ENDBRANCH  14  12
ENDBRANCH   9  10
ENDBRANCH   6   9
TORSDOF 6
