REMARK  Name = 44716858
REMARK  9 active torsions:
REMARK  status: ('A' for Active; 'I' for Inactive)
REMARK    1  A    between atoms: O_3  and  C_15
REMARK    2  A    between atoms: O_4  and  C_20
REMARK    3  A    between atoms: N_8  and  C_26
REMARK    4  A    between atoms: C_10  and  C_18
REMARK    5  A    between atoms: C_12  and  C_20
REMARK    6  A    between atoms: C_12  and  C_21
REMARK    7  A    between atoms: C_13  and  C_23
REMARK    8  A    between atoms: C_23  and  C_24
REMARK    9  A    between atoms: C_32  and  C_33
REMARK                            x       y       z     vdW  Elec       q    Type
REMARK                         _______ _______ _______ _____ _____    ______ ____
ROOT
ATOM      1  S   UNL     1      -0.111  -3.031  -0.349  0.00  0.00    -0.057 S 
ATOM      6  O   UNL     1       3.322   0.075   0.346  0.00  0.00    -0.270 OA
ATOM      7  N   UNL     1       0.380  -0.537   0.132  0.00  0.00    -0.229 NA
ATOM      9  N   UNL     1       2.285  -1.999  -0.078  0.00  0.00    -0.261 N 
ATOM     10  C   UNL     1      -3.393   0.149  -0.274  0.00  0.00    -0.019 C 
ATOM     11  C   UNL     1      -3.793  -1.295   0.266  0.00  0.00    +0.011 C 
ATOM     12  C   UNL     1      -5.323  -1.676   0.224  0.00  0.00    +0.021 C 
ATOM     13  C   UNL     1      -1.923   0.484   0.256  0.00  0.00    +0.054 C 
ATOM     14  C   UNL     1      -4.372   1.204   0.302  0.00  0.00    +0.010 C 
ATOM     15  C   UNL     1      -6.161  -0.495   0.791  0.00  0.00    +0.123 C 
ATOM     16  C   UNL     1      -2.856  -2.396  -0.309  0.00  0.00    +0.049 C 
ATOM     17  C   UNL     1      -5.840   0.841   0.131  0.00  0.00    +0.032 C 
ATOM     18  C   UNL     1      -3.416   0.241  -1.819  0.00  0.00    +0.012 C 
ATOM     19  C   UNL     1      -0.992  -0.683   0.048  0.00  0.00    +0.058 A 
ATOM     21  C   UNL     1      -5.566  -2.902   1.149  0.00  0.00    +0.016 C 
ATOM     22  C   UNL     1      -1.432  -1.970  -0.186  0.00  0.00    +0.015 A 
ATOM     25  C   UNL     1       0.947  -1.707  -0.069  0.00  0.00    +0.165 A 
ATOM     32  C   UNL     1       3.385  -1.129   0.122  0.00  0.00    +0.250 C 
ATOM     42  H   UNL     1       2.470  -2.988  -0.217  0.00  0.00    +0.157 HD
ENDROOT
BRANCH  32  33
ATOM      2  F   UNL     1       8.476  -3.494  -0.041  0.00  0.00    -0.205 F 
ATOM     33  C   UNL     1       4.733  -1.755   0.078  0.00  0.00    +0.037 A 
ATOM     34  C   UNL     1       5.791  -1.182   0.783  0.00  0.00    +0.016 A 
ATOM     35  C   UNL     1       4.939  -2.916  -0.667  0.00  0.00    +0.016 A 
ATOM     36  C   UNL     1       7.056  -1.769   0.743  0.00  0.00    +0.039 A 
ATOM     37  C   UNL     1       6.204  -3.503  -0.708  0.00  0.00    +0.039 A 
ATOM     38  C   UNL     1       7.262  -2.929  -0.003  0.00  0.00    +0.123 A 
ENDBRANCH  32  33
BRANCH  15   3
ATOM      3  O   UNL     1      -7.557  -0.755   0.647  0.00  0.00    -0.391 OA
ATOM     39  H   UNL     1      -8.038  -0.015   1.056  0.00  0.00    +0.210 HD
ENDBRANCH  15   3
BRANCH  12  20
ATOM     20  C   UNL     1      -5.840  -2.099  -1.169  0.00  0.00    +0.165 C 
BRANCH  20   4
ATOM      4  O   UNL     1      -7.208  -2.417  -1.044  0.00  0.00    -0.394 OA
ATOM     40  H   UNL     1      -7.522  -2.692  -1.923  0.00  0.00    +0.209 HD
ENDBRANCH  20   4
ENDBRANCH  12  20
BRANCH  13  23
ATOM     23  C   UNL     1      -1.326   1.784  -0.298  0.00  0.00    +0.106 C 
BRANCH  23  24
ATOM      5  O   UNL     1       0.001   1.891   1.722  0.00  0.00    -0.276 OA
ATOM      8  N   UNL     1       0.230   3.550   0.112  0.00  0.00    -0.312 N 
ATOM     24  C   UNL     1      -0.303   2.384   0.639  0.00  0.00    +0.214 C 
ATOM     41  H   UNL     1      -0.053   3.836  -0.821  0.00  0.00    +0.149 HD
BRANCH   8  26
ATOM     26  C   UNL     1       1.232   4.340   0.793  0.00  0.00    +0.073 C 
ATOM     27  C   UNL     1       1.074   5.829   0.470  0.00  0.00    +0.022 C 
ATOM     28  C   UNL     1       2.643   3.846   0.460  0.00  0.00    +0.022 C 
ATOM     29  C   UNL     1       1.491   6.164  -0.962  0.00  0.00    +0.002 C 
ATOM     30  C   UNL     1       3.058   4.184  -0.972  0.00  0.00    +0.002 C 
ATOM     31  C   UNL     1       2.903   5.673  -1.266  0.00  0.00    +0.000 C 
ENDBRANCH   8  26
ENDBRANCH  23  24
ENDBRANCH  13  23
TORSDOF 7
