REMARK  Name = 75536403
REMARK  10 active torsions:
REMARK  status: ('A' for Active; 'I' for Inactive)
REMARK    1  A    between atoms: O_2  and  C_8
REMARK    2  A    between atoms: O_4  and  C_24
REMARK    3  A    between atoms: O_4  and  C_25
REMARK    4  A    between atoms: N_5  and  C_12
REMARK    5  A    between atoms: N_5  and  C_15
REMARK    6  A    between atoms: N_5  and  C_16
REMARK    7  A    between atoms: C_7  and  C_12
REMARK    8  A    between atoms: C_9  and  C_13
REMARK    9  A    between atoms: C_13  and  C_14
REMARK   10  A    between atoms: C_18  and  C_19
REMARK                            x       y       z     vdW  Elec       q    Type
REMARK                         _______ _______ _______ _____ _____    ______ ____
ROOT
ATOM     13  C   UNL     1       2.033  -2.140   0.576  0.00  0.00    +0.090 C 
ENDROOT
BRANCH  13   9
ATOM      1  O   UNL     1       2.860   0.082   0.809  0.00  0.00    -0.369 OA
ATOM      7  C   UNL     1       3.702   1.176   0.422  0.00  0.00    +0.161 C 
ATOM      8  C   UNL     1       5.179   0.764   0.401  0.00  0.00    +0.145 C 
ATOM      9  C   UNL     1       2.999  -1.101   0.019  0.00  0.00    +0.125 C 
ATOM     10  C   UNL     1       5.411  -0.528  -0.378  0.00  0.00    +0.036 C 
ATOM     11  C   UNL     1       4.437  -1.616   0.066  0.00  0.00    +0.034 C 
BRANCH   8   2
ATOM      2  O   UNL     1       5.617   0.547   1.745  0.00  0.00    -0.389 OA
ATOM     26  H   UNL     1       6.565   0.334   1.715  0.00  0.00    +0.210 HD
ENDBRANCH   8   2
BRANCH   7  12
ATOM     12  C   UNL     1       3.235   1.789  -0.896  0.00  0.00    +0.118 C 
BRANCH  12   5
ATOM      5  N   UNL     1       1.837   2.185  -0.818  0.00  0.00    -0.306 NA
ATOM     15  C   UNL     1       1.261   2.321  -2.158  0.00  0.00    +0.104 C 
ATOM     16  C   UNL     1       1.694   3.440  -0.077  0.00  0.00    +0.104 C 
ENDBRANCH  12   5
ENDBRANCH   7  12
ENDBRANCH  13   9
BRANCH  13  14
ATOM      3  O   UNL     1      -1.155  -1.984  -1.098  0.00  0.00    -0.354 OA
ATOM      6  N   UNL     1       0.160  -2.422  -0.996  0.00  0.00    -0.083 NA
ATOM     14  C   UNL     1       0.618  -1.878   0.136  0.00  0.00    +0.087 A 
ATOM     17  C   UNL     1      -0.354  -1.096   0.783  0.00  0.00    +0.076 A 
ATOM     18  C   UNL     1      -1.449  -1.195  -0.033  0.00  0.00    +0.167 A 
BRANCH  18  19
ATOM     19  C   UNL     1      -2.782  -0.666   0.001  0.00  0.00    +0.020 A 
ATOM     20  C   UNL     1      -3.181   0.153   1.057  0.00  0.00    +0.015 A 
ATOM     21  C   UNL     1      -3.679  -0.971  -1.023  0.00  0.00    +0.015 A 
ATOM     22  C   UNL     1      -4.477   0.668   1.089  0.00  0.00    +0.046 A 
ATOM     23  C   UNL     1      -4.975  -0.457  -0.990  0.00  0.00    +0.046 A 
ATOM     24  C   UNL     1      -5.374   0.363   0.066  0.00  0.00    +0.120 A 
BRANCH  24   4
ATOM      4  O   UNL     1      -6.638   0.867   0.096  0.00  0.00    -0.495 OA
ATOM     25  C   UNL     1      -6.978   1.700   1.203  0.00  0.00    +0.277 C 
ENDBRANCH  24   4
ENDBRANCH  18  19
ENDBRANCH  13  14
TORSDOF 7
