REMARK  Name = 11882972
REMARK  8 active torsions:
REMARK  status: ('A' for Active; 'I' for Inactive)
REMARK    1  A    between atoms: O_3  and  C_16
REMARK    2  A    between atoms: O_4  and  C_21
REMARK    3  A    between atoms: C_11  and  C_19
REMARK    4  A    between atoms: C_13  and  C_21
REMARK    5  A    between atoms: C_13  and  C_22
REMARK    6  A    between atoms: C_14  and  C_24
REMARK    7  A    between atoms: C_24  and  C_25
REMARK    8  A    between atoms: C_27  and  C_28
REMARK                            x       y       z     vdW  Elec       q    Type
REMARK                         _______ _______ _______ _____ _____    ______ ____
ROOT
ATOM      1  S   UNL     1       0.491  -3.105   0.467  0.00  0.00    -0.057 S 
ATOM      6  O   UNL     1      -3.469  -0.647   0.206  0.00  0.00    -0.275 OA
ATOM      7  N   UNL     1      -0.496  -0.732   0.172  0.00  0.00    -0.229 NA
ATOM      8  N   UNL     1      -2.069  -2.538   0.435  0.00  0.00    -0.264 N 
ATOM     11  C   UNL     1       3.103   0.644   0.339  0.00  0.00    -0.019 C 
ATOM     12  C   UNL     1       3.720  -0.671  -0.313  0.00  0.00    +0.011 C 
ATOM     13  C   UNL     1       5.292  -0.755  -0.405  0.00  0.00    +0.021 C 
ATOM     14  C   UNL     1       1.558   0.715  -0.063  0.00  0.00    +0.054 C 
ATOM     15  C   UNL     1       3.817   1.891  -0.243  0.00  0.00    +0.010 C 
ATOM     16  C   UNL     1       5.845   0.588  -0.961  0.00  0.00    +0.123 C 
ATOM     17  C   UNL     1       3.056  -1.956   0.263  0.00  0.00    +0.049 C 
ATOM     18  C   UNL     1       5.336   1.808  -0.202  0.00  0.00    +0.032 C 
ATOM     19  C   UNL     1       3.235   0.670   1.881  0.00  0.00    +0.012 C 
ATOM     20  C   UNL     1       0.882  -0.616   0.145  0.00  0.00    +0.058 A 
ATOM     22  C   UNL     1       5.683  -1.870  -1.416  0.00  0.00    +0.016 C 
ATOM     23  C   UNL     1       1.573  -1.804   0.270  0.00  0.00    +0.015 A 
ATOM     26  C   UNL     1      -0.815  -1.996   0.344  0.00  0.00    +0.165 A 
ATOM     28  C   UNL     1      -3.292  -1.851   0.363  0.00  0.00    +0.222 C 
ATOM     39  H   UNL     1      -2.087  -3.547   0.561  0.00  0.00    +0.157 HD
ENDROOT
BRANCH  28  27
ATOM     27  C   UNL     1      -4.462  -2.782   0.501  0.00  0.00    +0.075 C 
ATOM     29  C   UNL     1      -5.635  -2.091   1.199  0.00  0.00    +0.013 C 
ATOM     30  C   UNL     1      -4.842  -3.357  -0.865  0.00  0.00    +0.013 C 
ATOM     32  C   UNL     1      -6.394  -1.119   0.295  0.00  0.00    +0.001 C 
ATOM     33  C   UNL     1      -5.594  -2.361  -1.746  0.00  0.00    +0.001 C 
ATOM     34  C   UNL     1      -6.798  -1.768  -1.023  0.00  0.00    +0.000 C 
ENDBRANCH  28  27
BRANCH  16   3
ATOM      3  O   UNL     1       7.272   0.593  -0.936  0.00  0.00    -0.391 OA
ATOM     37  H   UNL     1       7.571   1.429  -1.334  0.00  0.00    +0.210 HD
ENDBRANCH  16   3
BRANCH  13  21
ATOM     21  C   UNL     1       5.992  -1.132   0.920  0.00  0.00    +0.165 C 
BRANCH  21   4
ATOM      4  O   UNL     1       7.380  -1.177   0.677  0.00  0.00    -0.394 OA
ATOM     38  H   UNL     1       7.813  -1.424   1.512  0.00  0.00    +0.209 HD
ENDBRANCH  21   4
ENDBRANCH  13  21
BRANCH  14  24
ATOM     24  C   UNL     1       0.776   1.852   0.608  0.00  0.00    +0.106 C 
BRANCH  24  25
ATOM      2  S   UNL     1      -3.723   3.728   1.495  0.00  0.00    -0.061 S 
ATOM      5  O   UNL     1      -0.433   2.222  -1.440  0.00  0.00    -0.275 OA
ATOM      9  N   UNL     1      -1.427   2.748   0.627  0.00  0.00    -0.265 N 
ATOM     10  N   UNL     1      -3.141   3.346  -0.994  0.00  0.00    -0.233 NA
ATOM     25  C   UNL     1      -0.420   2.289  -0.216  0.00  0.00    +0.219 C 
ATOM     31  C   UNL     1      -2.676   3.231   0.230  0.00  0.00    +0.164 A 
ATOM     35  C   UNL     1      -4.905   4.138   0.323  0.00  0.00    +0.068 A 
ATOM     36  C   UNL     1      -4.419   3.867  -0.939  0.00  0.00    +0.120 A 
ATOM     40  H   UNL     1      -1.275   2.753   1.633  0.00  0.00    +0.157 HD
ENDBRANCH  24  25
ENDBRANCH  14  24
TORSDOF 6
