REMARK  Name = 45784222
REMARK  5 active torsions:
REMARK  status: ('A' for Active; 'I' for Inactive)
REMARK    1  A    between atoms: N_4  and  C_12
REMARK    2  A    between atoms: C_7  and  C_11
REMARK    3  A    between atoms: C_12  and  C_13
REMARK    4  A    between atoms: C_20  and  C_25
REMARK    5  A    between atoms: C_24  and  C_26
REMARK                            x       y       z     vdW  Elec       q    Type
REMARK                         _______ _______ _______ _____ _____    ______ ____
ROOT
ATOM      4  N   UNL     1      -0.677  -0.201  -0.280  0.00  0.00    -0.297 NA
ATOM      7  C   UNL     1       1.495  -0.809   0.362  0.00  0.00    +0.070 C 
ATOM      8  C   UNL     1       0.756  -0.197   1.564  0.00  0.00    +0.028 C 
ATOM      9  C   UNL     1       0.653  -0.408  -0.857  0.00  0.00    +0.096 C 
ATOM     10  C   UNL     1      -0.438   0.533   0.963  0.00  0.00    +0.085 C 
ENDROOT
BRANCH   7  11
ATOM      5  N   UNL     1       3.948  -1.332   0.259  0.00  0.00    -0.342 N 
ATOM      6  N   UNL     1       3.410   0.818   0.093  0.00  0.00    -0.232 NA
ATOM     11  C   UNL     1       2.946  -0.403   0.235  0.00  0.00    +0.113 A 
ATOM     14  C   UNL     1       5.139  -0.666   0.123  0.00  0.00    +0.066 A 
ATOM     15  C   UNL     1       4.777   0.674   0.021  0.00  0.00    +0.089 A 
ATOM     18  C   UNL     1       6.462  -1.108   0.082  0.00  0.00    +0.031 A 
ATOM     19  C   UNL     1       5.781   1.645  -0.131  0.00  0.00    +0.030 A 
ATOM     20  C   UNL     1       7.448  -0.128  -0.070  0.00  0.00    -0.048 A 
ATOM     21  C   UNL     1       7.116   1.225  -0.175  0.00  0.00    +0.005 A 
ATOM     25  C   UNL     1       8.884  -0.537  -0.122  0.00  0.00    +0.044 C 
ATOM     27  H   UNL     1       3.836  -2.332   0.358  0.00  0.00    +0.167 HD
ENDBRANCH   7  11
BRANCH   4  12
ATOM     12  C   UNL     1      -1.568   0.513  -1.182  0.00  0.00    +0.119 C 
BRANCH  12  13
ATOM     13  C   UNL     1      -3.013   0.344  -0.792  0.00  0.00    -0.033 A 
ATOM     16  C   UNL     1      -3.676  -0.850  -1.073  0.00  0.00    +0.005 A 
ATOM     17  C   UNL     1      -3.688   1.382  -0.149  0.00  0.00    +0.005 A 
ATOM     22  C   UNL     1      -5.014  -1.007  -0.712  0.00  0.00    +0.012 A 
ATOM     23  C   UNL     1      -5.026   1.226   0.212  0.00  0.00    +0.012 A 
ATOM     24  C   UNL     1      -5.689   0.031  -0.069  0.00  0.00    +0.055 A 
BRANCH  24  26
ATOM      1  F   UNL     1      -7.338  -0.017   1.663  0.00  0.00    -0.166 F 
ATOM      2  F   UNL     1      -7.615  -1.362  -0.023  0.00  0.00    -0.166 F 
ATOM      3  F   UNL     1      -7.955   0.772  -0.261  0.00  0.00    -0.166 F 
ATOM     26  C   UNL     1      -7.119  -0.138   0.320  0.00  0.00    +0.417 C 
ENDBRANCH  24  26
ENDBRANCH  12  13
ENDBRANCH   4  12
TORSDOF 4
