REMARK  Name = 75537034
REMARK  4 active torsions:
REMARK  status: ('A' for Active; 'I' for Inactive)
REMARK    1  A    between atoms: N_5  and  C_15
REMARK    2  A    between atoms: N_7  and  C_22
REMARK    3  A    between atoms: C_15  and  C_17
REMARK    4  A    between atoms: C_16  and  C_18
REMARK                            x       y       z     vdW  Elec       q    Type
REMARK                         _______ _______ _______ _____ _____    ______ ____
ROOT
ATOM      2  O   UNL     1      -2.938  -2.630  -0.792  0.00  0.00    -0.252 OA
ATOM      3  O   UNL     1       3.867  -2.416   0.772  0.00  0.00    -0.270 OA
ATOM      4  N   UNL     1      -0.757  -1.789  -0.563  0.00  0.00    -0.278 N 
ATOM      5  N   UNL     1      -2.414  -0.342  -1.022  0.00  0.00    -0.276 N 
ATOM      6  N   UNL     1       1.754  -1.439   0.576  0.00  0.00    -0.294 N 
ATOM      9  C   UNL     1      -0.087  -0.513  -0.754  0.00  0.00    +0.112 C 
ATOM     10  C   UNL     1      -1.235   0.488  -0.850  0.00  0.00    +0.134 C 
ATOM     11  C   UNL     1       0.892  -0.256   0.386  0.00  0.00    +0.132 C 
ATOM     12  C   UNL     1       0.025  -2.979  -0.274  0.00  0.00    +0.128 C 
ATOM     13  C   UNL     1       1.028  -2.688   0.841  0.00  0.00    +0.127 C 
ATOM     14  C   UNL     1      -2.136  -1.705  -0.795  0.00  0.00    +0.306 C 
ATOM     16  C   UNL     1       3.150  -1.438   0.570  0.00  0.00    +0.247 C 
ENDROOT
BRANCH  16  18
ATOM      1  F   UNL     1       5.779   3.386  -0.502  0.00  0.00    -0.205 F 
ATOM     18  C   UNL     1       3.839  -0.172   0.289  0.00  0.00    +0.037 A 
ATOM     20  C   UNL     1       4.162   0.170  -1.025  0.00  0.00    +0.016 A 
ATOM     21  C   UNL     1       4.171   0.689   1.335  0.00  0.00    +0.016 A 
ATOM     24  C   UNL     1       4.817   1.372  -1.292  0.00  0.00    +0.039 A 
ATOM     25  C   UNL     1       4.827   1.891   1.068  0.00  0.00    +0.039 A 
ATOM     26  C   UNL     1       5.149   2.232  -0.245  0.00  0.00    +0.123 A 
ENDBRANCH  16  18
BRANCH   5  15
ATOM     15  C   UNL     1      -3.722   0.225  -1.262  0.00  0.00    +0.183 C 
BRANCH  15  17
ATOM      7  N   UNL     1      -5.251   1.735   0.040  0.00  0.00    -0.336 N 
ATOM      8  N   UNL     1      -4.205   0.157   1.201  0.00  0.00    -0.239 NA
ATOM     17  C   UNL     1      -4.378   0.683   0.009  0.00  0.00    +0.127 A 
ATOM     19  C   UNL     1      -5.661   1.889   1.335  0.00  0.00    +0.106 A 
ATOM     22  C   UNL     1      -5.674   2.545  -1.078  0.00  0.00    +0.150 C 
ATOM     23  C   UNL     1      -5.002   0.904   2.032  0.00  0.00    +0.130 A 
ENDBRANCH  15  17
ENDBRANCH   5  15
TORSDOF 3
