REMARK  Name = 45783765
REMARK  7 active torsions:
REMARK  status: ('A' for Active; 'I' for Inactive)
REMARK    1  A    between atoms: N_2  and  C_12
REMARK    2  A    between atoms: N_6  and  C_26
REMARK    3  A    between atoms: N_6  and  C_27
REMARK    4  A    between atoms: C_8  and  C_13
REMARK    5  A    between atoms: C_12  and  C_14
REMARK    6  A    between atoms: C_17  and  C_20
REMARK    7  A    between atoms: C_18  and  C_24
REMARK                            x       y       z     vdW  Elec       q    Type
REMARK                         _______ _______ _______ _____ _____    ______ ____
ROOT
ATOM      2  N   UNL     1      -3.470  -0.250  -0.694  0.00  0.00    -0.287 NA
ATOM      8  C   UNL     1      -3.112  -1.431   0.116  0.00  0.00    +0.146 C 
ATOM      9  C   UNL     1      -3.608  -2.634  -0.706  0.00  0.00    +0.030 C 
ATOM     10  C   UNL     1      -4.284  -2.030  -1.929  0.00  0.00    +0.017 C 
ATOM     11  C   UNL     1      -4.645  -0.628  -1.480  0.00  0.00    +0.085 C 
ENDROOT
BRANCH   8  13
ATOM      1  O   UNL     1      -1.276  -2.149   1.560  0.00  0.00    -0.336 OA
ATOM      3  N   UNL     1      -0.620  -1.023  -0.262  0.00  0.00    -0.190 NA
ATOM      4  N   UNL     1       0.122  -2.083   1.625  0.00  0.00    -0.056 NA
ATOM     13  C   UNL     1      -1.630  -1.501   0.419  0.00  0.00    +0.245 A 
ATOM     17  C   UNL     1       0.434  -1.405   0.516  0.00  0.00    +0.204 A 
BRANCH  17  20
ATOM      5  N   UNL     1       4.144  -1.227   0.677  0.00  0.00    -0.240 NA
ATOM     20  C   UNL     1       1.787  -1.094   0.157  0.00  0.00    +0.041 A 
ATOM     22  C   UNL     1       2.076  -0.387  -1.005  0.00  0.00    +0.016 A 
ATOM     23  C   UNL     1       2.848  -1.487   0.958  0.00  0.00    +0.124 A 
ATOM     25  C   UNL     1       3.398  -0.100  -1.327  0.00  0.00    +0.044 A 
ATOM     26  C   UNL     1       4.386  -0.538  -0.460  0.00  0.00    +0.118 A 
BRANCH  26   6
ATOM      6  N   UNL     1       5.728  -0.238  -0.803  0.00  0.00    -0.332 N 
ATOM     27  C   UNL     1       6.836  -0.633   0.005  0.00  0.00    +0.127 C 
ATOM     28  H   UNL     1       5.877   0.464  -1.520  0.00  0.00    +0.147 HD
ENDBRANCH  26   6
ENDBRANCH  17  20
ENDBRANCH   8  13
BRANCH   2  12
ATOM     12  C   UNL     1      -3.707   0.945   0.106  0.00  0.00    +0.120 C 
BRANCH  12  14
ATOM     14  C   UNL     1      -2.420   1.607   0.520  0.00  0.00    -0.032 A 
ATOM     15  C   UNL     1      -1.515   2.042  -0.448  0.00  0.00    +0.023 A 
ATOM     16  C   UNL     1      -2.133   1.785   1.874  0.00  0.00    +0.005 A 
ATOM     18  C   UNL     1      -0.323   2.656  -0.062  0.00  0.00    +0.052 A 
ATOM     19  C   UNL     1      -0.942   2.399   2.259  0.00  0.00    +0.002 A 
ATOM     21  C   UNL     1      -0.036   2.834   1.292  0.00  0.00    +0.019 A 
BRANCH  18  24
ATOM      7  N   UNL     1       1.358   3.466  -1.857  0.00  0.00    -0.191 NA
ATOM     24  C   UNL     1       0.605   3.103  -1.053  0.00  0.00    +0.099 C 
ENDBRANCH  18  24
ENDBRANCH  12  14
ENDBRANCH   2  12
TORSDOF 6
