REMARK  Name = 26743403
REMARK  12 active torsions:
REMARK  status: ('A' for Active; 'I' for Inactive)
REMARK    1  A    between atoms: O_2  and  C_24
REMARK    2  A    between atoms: N_4  and  C_9
REMARK    3  A    between atoms: N_5  and  C_23
REMARK    4  A    between atoms: C_7  and  C_10
REMARK    5  A    between atoms: C_12  and  C_14
REMARK    6  A    between atoms: C_12  and  C_18
REMARK    7  A    between atoms: C_12  and  C_19
REMARK    8  A    between atoms: C_12  and  C_20
REMARK    9  A    between atoms: C_14  and  C_16
REMARK   10  A    between atoms: C_15  and  C_21
REMARK   11  A    between atoms: C_17  and  C_22
REMARK   12  A    between atoms: C_18  and  C_24
REMARK                            x       y       z     vdW  Elec       q    Type
REMARK                         _______ _______ _______ _____ _____    ______ ____
ROOT
ATOM      7  C   UNL     1       0.694   1.200   0.085  0.00  0.00    +0.047 C 
ATOM      8  C   UNL     1      -0.153  -0.032  -0.285  0.00  0.00    +0.039 C 
ATOM      9  C   UNL     1      -1.266  -0.121   0.773  0.00  0.00    +0.097 C 
ATOM     11  C   UNL     1       0.386   1.370   1.544  0.00  0.00    -0.021 C 
ATOM     13  C   UNL     1      -0.684   0.657   1.911  0.00  0.00    -0.009 C 
ENDROOT
BRANCH   7  10
ATOM      5  N   UNL     1       4.231   0.342  -0.330  0.00  0.00    -0.236 N 
ATOM      6  N   UNL     1       4.219   1.400  -1.158  0.00  0.00    -0.171 NA
ATOM     10  C   UNL     1       2.162   1.034  -0.236  0.00  0.00    +0.003 A 
ATOM     15  C   UNL     1       3.023   0.080   0.248  0.00  0.00    +0.046 A 
ATOM     17  C   UNL     1       2.952   1.819  -1.097  0.00  0.00    +0.064 A 
ATOM     21  C   UNL     1       2.800  -1.034   1.191  0.00  0.00    +0.066 C 
ATOM     22  C   UNL     1       2.536   2.989  -1.890  0.00  0.00    +0.068 C 
BRANCH   5  23
ATOM     23  C   UNL     1       5.415  -0.371  -0.135  0.00  0.00    +0.066 A 
ATOM     25  C   UNL     1       5.473  -1.727  -0.456  0.00  0.00    +0.028 A 
ATOM     26  C   UNL     1       6.540   0.274   0.380  0.00  0.00    +0.028 A 
ATOM     27  C   UNL     1       6.657  -2.439  -0.262  0.00  0.00    +0.002 A 
ATOM     28  C   UNL     1       7.723  -0.438   0.574  0.00  0.00    +0.002 A 
ATOM     29  C   UNL     1       7.782  -1.795   0.253  0.00  0.00    +0.000 A 
ENDBRANCH   5  23
ENDBRANCH   7  10
BRANCH   9   4
ATOM      1  O   UNL     1      -3.466  -1.485  -0.504  0.00  0.00    -0.276 OA
ATOM      4  N   UNL     1      -2.514   0.470   0.305  0.00  0.00    -0.309 N 
ATOM     16  C   UNL     1      -3.514  -0.274  -0.298  0.00  0.00    +0.214 C 
ATOM     30  H   UNL     1      -2.635   1.474   0.406  0.00  0.00    +0.149 HD
BRANCH  16  14
ATOM     14  C   UNL     1      -4.722   0.559  -0.695  0.00  0.00    +0.102 C 
BRANCH  14  12
ATOM     12  C   UNL     1      -5.854   0.609   0.363  0.00  0.00    -0.017 C 
ATOM     19  C   UNL     1      -5.330   1.213   1.683  0.00  0.00    +0.012 C 
ATOM     20  C   UNL     1      -6.958   1.548  -0.167  0.00  0.00    +0.012 C 
BRANCH  12  18
ATOM     18  C   UNL     1      -6.446  -0.785   0.677  0.00  0.00    +0.127 C 
BRANCH  18  24
ATOM      3  O   UNL     1      -6.340  -2.219  -1.272  0.00  0.00    -0.251 OA
ATOM     24  C   UNL     1      -7.008  -1.521  -0.519  0.00  0.00    +0.305 C 
BRANCH  24   2
ATOM      2  O   UNL     1      -8.340  -1.322  -0.683  0.00  0.00    -0.481 OA
ATOM     31  H   UNL     1      -8.688  -1.800  -1.465  0.00  0.00    +0.295 HD
ENDBRANCH  24   2
ENDBRANCH  18  24
ENDBRANCH  12  18
ENDBRANCH  14  12
ENDBRANCH  16  14
ENDBRANCH   9   4
TORSDOF 8
