REMARK  Name = 40780200
REMARK  5 active torsions:
REMARK  status: ('A' for Active; 'I' for Inactive)
REMARK    1  A    between atoms: N_4  and  C_14
REMARK    2  A    between atoms: N_6  and  C_21
REMARK    3  A    between atoms: N_7  and  C_29
REMARK    4  A    between atoms: C_9  and  C_14
REMARK    5  A    between atoms: C_11  and  C_21
REMARK                            x       y       z     vdW  Elec       q    Type
REMARK                         _______ _______ _______ _____ _____    ______ ____
ROOT
ATOM      3  N   UNL     1       0.647   3.442  -0.614  0.00  0.00    -0.298 NA
ATOM      8  C   UNL     1      -1.046   1.499  -0.967  0.00  0.00    -0.003 C 
ATOM      9  C   UNL     1      -1.602   2.542   0.030  0.00  0.00    +0.020 C 
ATOM     10  C   UNL     1       0.305   0.971  -0.451  0.00  0.00    +0.024 C 
ATOM     11  C   UNL     1       1.321   2.134  -0.395  0.00  0.00    +0.074 C 
ATOM     12  C   UNL     1      -0.503   3.591   0.310  0.00  0.00    +0.089 C 
ATOM     13  C   UNL     1      -0.770   2.245  -2.287  0.00  0.00    +0.019 C 
ATOM     15  C   UNL     1       0.129   3.461  -2.004  0.00  0.00    +0.085 C 
ENDROOT
BRANCH   9  14
ATOM     14  C   UNL     1      -2.127   1.923   1.314  0.00  0.00    +0.089 C 
BRANCH  14   4
ATOM      1  O   UNL     1      -4.385  -1.984  -2.870  0.00  0.00    -0.268 OA
ATOM      4  N   UNL     1      -3.149   0.916   1.036  0.00  0.00    -0.301 NA
ATOM      5  N   UNL     1      -4.408  -1.534  -0.573  0.00  0.00    -0.312 N 
ATOM     16  C   UNL     1      -5.553   0.516   0.449  0.00  0.00    +0.024 C 
ATOM     17  C   UNL     1      -4.387  -1.074   1.903  0.00  0.00    +0.050 C 
ATOM     18  C   UNL     1      -4.431   1.546   0.697  0.00  0.00    +0.089 C 
ATOM     19  C   UNL     1      -3.289  -0.017   2.164  0.00  0.00    +0.094 C 
ATOM     20  C   UNL     1      -5.724  -0.374   1.673  0.00  0.00    +0.017 C 
ATOM     22  C   UNL     1      -5.280  -0.370  -0.774  0.00  0.00    +0.130 C 
ATOM     23  C   UNL     1      -4.020  -1.937   0.710  0.00  0.00    +0.026 A 
ATOM     24  C   UNL     1      -3.313  -3.068   0.878  0.00  0.00    +0.022 A 
ATOM     25  C   UNL     1      -4.064  -2.276  -1.718  0.00  0.00    +0.251 A 
ATOM     26  C   UNL     1      -2.927  -3.867  -0.250  0.00  0.00    +0.007 A 
ATOM     27  C   UNL     1      -3.260  -3.510  -1.493  0.00  0.00    +0.070 A 
ENDBRANCH  14   4
ENDBRANCH   9  14
BRANCH  11  21
ATOM     21  C   UNL     1       2.142   2.109   0.896  0.00  0.00    +0.124 C 
BRANCH  21   6
ATOM      2  O   UNL     1       4.796   1.659  -0.081  0.00  0.00    -0.253 OA
ATOM      6  N   UNL     1       2.908   0.878   0.997  0.00  0.00    -0.298 N 
ATOM      7  N   UNL     1       4.681  -0.540   0.732  0.00  0.00    -0.269 N 
ATOM     28  C   UNL     1       4.199   0.749   0.490  0.00  0.00    +0.304 C 
ATOM     35  H   UNL     1       2.476   0.080   1.453  0.00  0.00    +0.150 HD
ATOM     36  H   UNL     1       4.056  -1.177   1.220  0.00  0.00    +0.156 HD
BRANCH   7  29
ATOM     29  C   UNL     1       5.942  -1.076   0.380  0.00  0.00    +0.035 A 
ATOM     30  C   UNL     1       6.254  -2.397   0.704  0.00  0.00    +0.023 A 
ATOM     31  C   UNL     1       6.873  -0.284  -0.292  0.00  0.00    +0.023 A 
ATOM     32  C   UNL     1       7.497  -2.925   0.357  0.00  0.00    +0.002 A 
ATOM     33  C   UNL     1       8.117  -0.813  -0.639  0.00  0.00    +0.002 A 
ATOM     34  C   UNL     1       8.428  -2.133  -0.315  0.00  0.00    +0.000 A 
ENDBRANCH   7  29
ENDBRANCH  21   6
ENDBRANCH  11  21
TORSDOF 5
