REMARK  Name = 45783775
REMARK  6 active torsions:
REMARK  status: ('A' for Active; 'I' for Inactive)
REMARK    1  A    between atoms: N_2  and  C_8
REMARK    2  A    between atoms: N_3  and  C_18
REMARK    3  A    between atoms: N_7  and  C_24
REMARK    4  A    between atoms: N_7  and  C_25
REMARK    5  A    between atoms: C_9  and  C_17
REMARK    6  A    between atoms: C_19  and  C_20
REMARK                            x       y       z     vdW  Elec       q    Type
REMARK                         _______ _______ _______ _____ _____    ______ ____
ROOT
ATOM      1  O   UNL     1      -0.190  -1.868   1.877  0.00  0.00    -0.336 OA
ATOM      4  N   UNL     1       0.188  -0.980  -0.145  0.00  0.00    -0.190 NA
ATOM      5  N   UNL     1       1.148  -1.453   1.878  0.00  0.00    -0.056 NA
ATOM     17  C   UNL     1      -0.681  -1.554   0.649  0.00  0.00    +0.245 A 
ATOM     19  C   UNL     1       1.295  -0.940   0.652  0.00  0.00    +0.204 A 
ENDROOT
BRANCH  19  20
ATOM      6  N   UNL     1       4.845   0.167   0.644  0.00  0.00    -0.240 NA
ATOM     20  C   UNL     1       2.533  -0.381   0.194  0.00  0.00    +0.041 A 
ATOM     21  C   UNL     1       2.651   0.143  -1.089  0.00  0.00    +0.016 A 
ATOM     22  C   UNL     1       3.650  -0.345   1.014  0.00  0.00    +0.124 A 
ATOM     23  C   UNL     1       3.865   0.679  -1.506  0.00  0.00    +0.044 A 
ATOM     24  C   UNL     1       4.922   0.667  -0.610  0.00  0.00    +0.118 A 
BRANCH  24   7
ATOM      7  N   UNL     1       6.152   1.215  -1.050  0.00  0.00    -0.332 N 
ATOM     25  C   UNL     1       7.314   1.262  -0.223  0.00  0.00    +0.127 C 
ATOM     26  H   UNL     1       6.258   1.373  -2.046  0.00  0.00    +0.147 HD
ENDBRANCH  24   7
ENDBRANCH  19  20
BRANCH  17   9
ATOM      2  N   UNL     1      -2.760  -1.023  -0.610  0.00  0.00    -0.288 NA
ATOM      9  C   UNL     1      -2.131  -1.906   0.392  0.00  0.00    +0.146 C 
ATOM     10  C   UNL     1      -3.797  -1.817  -1.269  0.00  0.00    +0.085 C 
ATOM     13  C   UNL     1      -2.306  -3.327  -0.175  0.00  0.00    +0.030 C 
ATOM     14  C   UNL     1      -3.096  -3.147  -1.463  0.00  0.00    +0.017 C 
BRANCH   2   8
ATOM      3  N   UNL     1      -3.299   3.134   0.098  0.00  0.00    -0.305 NA
ATOM      8  C   UNL     1      -3.295   0.210  -0.036  0.00  0.00    +0.060 C 
ATOM     11  C   UNL     1      -3.921   1.077  -1.131  0.00  0.00    +0.034 C 
ATOM     12  C   UNL     1      -2.199   0.997   0.690  0.00  0.00    +0.034 C 
ATOM     15  C   UNL     1      -4.397   2.417  -0.565  0.00  0.00    +0.085 C 
ATOM     16  C   UNL     1      -2.732   2.340   1.196  0.00  0.00    +0.085 C 
ATOM     18  C   UNL     1      -3.757   4.433   0.588  0.00  0.00    +0.104 C 
ENDBRANCH   2   8
ENDBRANCH  17   9
TORSDOF 4
