REMARK  Name = 44716888
REMARK  14 active torsions:
REMARK  status: ('A' for Active; 'I' for Inactive)
REMARK    1  A    between atoms: O_1  and  C_14
REMARK    2  A    between atoms: O_1  and  C_23
REMARK    3  A    between atoms: O_2  and  C_15
REMARK    4  A    between atoms: O_3  and  C_19
REMARK    5  A    between atoms: N_6  and  C_24
REMARK    6  A    between atoms: N_7  and  C_25
REMARK    7  A    between atoms: C_8  and  C_18
REMARK    8  A    between atoms: C_10  and  C_19
REMARK    9  A    between atoms: C_10  and  C_20
REMARK   10  A    between atoms: C_11  and  C_21
REMARK   11  A    between atoms: C_21  and  C_22
REMARK   12  A    between atoms: C_24  and  C_26
REMARK   13  A    between atoms: C_25  and  C_27
REMARK   14  A    between atoms: C_25  and  C_28
REMARK                            x       y       z     vdW  Elec       q    Type
REMARK                         _______ _______ _______ _____ _____    ______ ____
ROOT
ATOM      8  C   UNL     1      -0.010   1.516   0.636  0.00  0.00    -0.023 C 
ATOM      9  C   UNL     1      -0.597   1.525  -0.828  0.00  0.00    +0.007 C 
ATOM     10  C   UNL     1      -2.153   1.312  -0.967  0.00  0.00    +0.031 C 
ATOM     11  C   UNL     1       1.567   1.422   0.501  0.00  0.00    +0.032 C 
ATOM     12  C   UNL     1      -0.536   0.253   1.370  0.00  0.00    +0.011 C 
ATOM     13  C   UNL     1      -0.033   2.710  -1.642  0.00  0.00    +0.007 C 
ATOM     14  C   UNL     1      -2.570   0.068  -0.126  0.00  0.00    +0.186 C 
ATOM     15  C   UNL     1       2.177   2.537  -0.380  0.00  0.00    +0.119 C 
ATOM     16  C   UNL     1      -2.050   0.092   1.308  0.00  0.00    +0.046 C 
ATOM     17  C   UNL     1       1.491   2.642  -1.739  0.00  0.00    +0.032 C 
ATOM     18  C   UNL     1      -0.410   2.757   1.471  0.00  0.00    +0.012 C 
ATOM     20  C   UNL     1      -2.494   1.003  -2.454  0.00  0.00    +0.017 C 
ENDROOT
BRANCH  15   2
ATOM      2  O   UNL     1       2.124   3.796   0.284  0.00  0.00    -0.391 OA
ATOM     34  H   UNL     1       2.548   4.453  -0.294  0.00  0.00    +0.210 HD
ENDBRANCH  15   2
BRANCH  14   1
ATOM      1  O   UNL     1      -3.988  -0.075  -0.056  0.00  0.00    -0.446 OA
BRANCH   1  23
ATOM      5  O   UNL     1      -3.746  -2.354   0.098  0.00  0.00    -0.226 OA
ATOM      7  N   UNL     1      -5.835  -1.346   0.114  0.00  0.00    -0.279 N 
ATOM     23  C   UNL     1      -4.458  -1.356   0.056  0.00  0.00    +0.401 C 
ATOM     37  H   UNL     1      -6.301  -0.443   0.116  0.00  0.00    +0.152 HD
BRANCH   7  25
ATOM     25  C   UNL     1      -6.642  -2.538   0.233  0.00  0.00    +0.070 C 
ATOM     27  C   UNL     1      -6.843  -2.903   1.699  0.00  0.00    +0.027 C 
ATOM     28  C   UNL     1      -7.976  -2.349  -0.477  0.00  0.00    +0.027 C 
ENDBRANCH   7  25
ENDBRANCH   1  23
ENDBRANCH  14   1
BRANCH  10  19
ATOM     19  C   UNL     1      -2.994   2.550  -0.594  0.00  0.00    +0.166 C 
BRANCH  19   3
ATOM      3  O   UNL     1      -4.264   2.409  -1.192  0.00  0.00    -0.394 OA
ATOM     35  H   UNL     1      -4.785   3.195  -0.956  0.00  0.00    +0.209 HD
ENDBRANCH  19   3
ENDBRANCH  10  19
BRANCH  11  21
ATOM     21  C   UNL     1       2.326   1.337   1.835  0.00  0.00    +0.102 C 
BRANCH  21  22
ATOM      4  O   UNL     1       4.709   1.348   1.415  0.00  0.00    -0.276 OA
ATOM      6  N   UNL     1       3.627  -0.664   1.841  0.00  0.00    -0.311 N 
ATOM     22  C   UNL     1       3.691   0.711   1.669  0.00  0.00    +0.214 C 
ATOM     36  H   UNL     1       2.730  -1.106   2.016  0.00  0.00    +0.149 HD
BRANCH   6  24
ATOM     24  C   UNL     1       4.782  -1.526   1.737  0.00  0.00    +0.139 C 
BRANCH  24  26
ATOM     26  C   UNL     1       4.991  -2.020   0.334  0.00  0.00    -0.030 A 
ATOM     29  C   UNL     1       4.392  -3.209  -0.082  0.00  0.00    +0.005 A 
ATOM     30  C   UNL     1       5.782  -1.290  -0.552  0.00  0.00    +0.005 A 
ATOM     31  C   UNL     1       4.585  -3.669  -1.385  0.00  0.00    +0.000 A 
ATOM     32  C   UNL     1       5.976  -1.749  -1.855  0.00  0.00    +0.000 A 
ATOM     33  C   UNL     1       5.377  -2.939  -2.271  0.00  0.00    +0.000 A 
ENDBRANCH  24  26
ENDBRANCH   6  24
ENDBRANCH  21  22
ENDBRANCH  11  21
TORSDOF 10
