REMARK  Name = 56774604
REMARK  9 active torsions:
REMARK  status: ('A' for Active; 'I' for Inactive)
REMARK    1  A    between atoms: O_2  and  C_9
REMARK    2  A    between atoms: O_5  and  C_27
REMARK    3  A    between atoms: O_5  and  C_28
REMARK    4  A    between atoms: N_6  and  C_11
REMARK    5  A    between atoms: N_7  and  C_22
REMARK    6  A    between atoms: C_8  and  C_9
REMARK    7  A    between atoms: C_9  and  C_13
REMARK    8  A    between atoms: C_11  and  C_15
REMARK    9  A    between atoms: C_26  and  C_27
REMARK                            x       y       z     vdW  Elec       q    Type
REMARK                         _______ _______ _______ _____ _____    ______ ____
ROOT
ATOM      9  C   UNL     1      -0.603  -1.307   0.931  0.00  0.00    +0.167 C 
ENDROOT
BRANCH   9   8
ATOM      1  O   UNL     1      -1.503  -2.513  -1.587  0.00  0.00    -0.369 OA
ATOM      3  O   UNL     1      -4.743  -2.209  -0.022  0.00  0.00    -0.273 OA
ATOM      6  N   UNL     1      -2.891  -0.810   0.155  0.00  0.00    -0.287 N 
ATOM      8  C   UNL     1      -1.464  -0.618  -0.132  0.00  0.00    +0.135 C 
ATOM     10  C   UNL     1      -1.137  -1.140  -1.526  0.00  0.00    +0.185 C 
ATOM     12  C   UNL     1      -3.599  -1.895  -0.358  0.00  0.00    +0.242 C 
ATOM     14  C   UNL     1      -2.900  -2.669  -1.469  0.00  0.00    +0.255 C 
BRANCH   6  11
ATOM     11  C   UNL     1      -3.504   0.068   1.142  0.00  0.00    +0.143 C 
BRANCH  11  15
ATOM     15  C   UNL     1      -4.274   1.185   0.499  0.00  0.00    -0.030 A 
ATOM     20  C   UNL     1      -3.639   2.391   0.205  0.00  0.00    +0.005 A 
ATOM     21  C   UNL     1      -5.625   1.016   0.197  0.00  0.00    +0.005 A 
ATOM     23  C   UNL     1      -4.355   3.429  -0.392  0.00  0.00    +0.000 A 
ATOM     24  C   UNL     1      -6.341   2.053  -0.400  0.00  0.00    +0.000 A 
ATOM     25  C   UNL     1      -5.706   3.260  -0.694  0.00  0.00    +0.000 A 
ENDBRANCH  11  15
ENDBRANCH   6  11
ENDBRANCH   9   8
BRANCH   9  13
ATOM     13  C   UNL     1       0.869  -1.095   0.683  0.00  0.00    -0.017 A 
ATOM     16  C   UNL     1       1.389   0.199   0.637  0.00  0.00    +0.008 A 
ATOM     17  C   UNL     1       1.711  -2.192   0.501  0.00  0.00    +0.008 A 
ATOM     18  C   UNL     1       2.751   0.395   0.408  0.00  0.00    +0.023 A 
ATOM     19  C   UNL     1       3.073  -1.996   0.272  0.00  0.00    +0.023 A 
ATOM     22  C   UNL     1       3.593  -0.702   0.225  0.00  0.00    +0.033 A 
BRANCH  22   7
ATOM      4  O   UNL     1       5.192   1.839   0.028  0.00  0.00    -0.273 OA
ATOM      7  N   UNL     1       4.955  -0.505  -0.004  0.00  0.00    -0.284 N 
ATOM     26  C   UNL     1       5.653   0.707  -0.084  0.00  0.00    +0.243 C 
ATOM     30  H   UNL     1       5.502  -1.355  -0.126  0.00  0.00    +0.155 HD
BRANCH  26  27
ATOM     27  C   UNL     1       7.129   0.501  -0.347  0.00  0.00    +0.255 C 
BRANCH  27   5
ATOM      5  O   UNL     1       7.759   1.764  -0.419  0.00  0.00    -0.374 OA
ATOM     28  C   UNL     1       9.157   1.645  -0.666  0.00  0.00    +0.194 C 
ENDBRANCH  27   5
ENDBRANCH  26  27
ENDBRANCH  22   7
ENDBRANCH   9  13
BRANCH   9   2
ATOM      2  O   UNL     1      -0.946  -0.800   2.216  0.00  0.00    -0.385 OA
ATOM     29  H   UNL     1      -0.604   0.105   2.306  0.00  0.00    +0.210 HD
ENDBRANCH   9   2
TORSDOF 8
