REMARK  Name = 75536646
REMARK  7 active torsions:
REMARK  status: ('A' for Active; 'I' for Inactive)
REMARK    1  A    between atoms: O_3  and  C_10
REMARK    2  A    between atoms: N_5  and  C_9
REMARK    3  A    between atoms: N_5  and  C_14
REMARK    4  A    between atoms: N_6  and  C_13
REMARK    5  A    between atoms: C_11  and  C_13
REMARK    6  A    between atoms: C_14  and  C_15
REMARK    7  A    between atoms: C_16  and  C_17
REMARK                            x       y       z     vdW  Elec       q    Type
REMARK                         _______ _______ _______ _____ _____    ______ ____
ROOT
ATOM      2  O   UNL     1      -0.257  -0.835   0.174  0.00  0.00    -0.371 OA
ATOM      9  C   UNL     1      -2.345   0.188  -0.314  0.00  0.00    +0.111 C 
ATOM     10  C   UNL     1      -1.478   1.172   0.450  0.00  0.00    +0.164 C 
ATOM     11  C   UNL     1      -0.091   0.593   0.206  0.00  0.00    +0.165 C 
ATOM     12  C   UNL     1      -1.655  -1.129   0.003  0.00  0.00    +0.181 C 
ENDROOT
BRANCH  10   3
ATOM      3  O   UNL     1      -1.591   2.494  -0.040  0.00  0.00    -0.388 OA
ATOM     26  H   UNL     1      -1.371   2.489  -0.987  0.00  0.00    +0.210 HD
ENDBRANCH  10   3
BRANCH   9   5
ATOM      5  N   UNL     1      -3.741   0.206   0.089  0.00  0.00    -0.302 NA
ATOM     25  H   UNL     1      -4.056   1.175   0.160  0.00  0.00    +0.123 HD
BRANCH   5  14
ATOM     14  C   UNL     1      -4.577  -0.491  -0.882  0.00  0.00    +0.156 C 
BRANCH  14  15
ATOM      7  N   UNL     1      -6.485  -1.332   0.507  0.00  0.00    -0.347 N 
ATOM      8  N   UNL     1      -6.987   0.250  -0.969  0.00  0.00    -0.240 NA
ATOM     15  C   UNL     1      -6.026  -0.497  -0.473  0.00  0.00    +0.121 A 
ATOM     18  C   UNL     1      -7.825  -1.103   0.645  0.00  0.00    +0.104 A 
ATOM     19  C   UNL     1      -8.112  -0.123  -0.276  0.00  0.00    +0.130 A 
ATOM     28  H   UNL     1      -5.936  -1.997   1.035  0.00  0.00    +0.167 HD
ENDBRANCH  14  15
ENDBRANCH   5  14
ENDBRANCH   9   5
BRANCH  11  13
ATOM     13  C   UNL     1       0.914   0.969   1.280  0.00  0.00    +0.138 C 
BRANCH  13   6
ATOM      4  O   UNL     1       3.035   2.164  -0.243  0.00  0.00    -0.270 OA
ATOM      6  N   UNL     1       2.203   0.398   1.011  0.00  0.00    -0.309 N 
ATOM     16  C   UNL     1       3.174   1.052   0.259  0.00  0.00    +0.244 C 
ATOM     27  H   UNL     1       2.357  -0.549   1.337  0.00  0.00    +0.149 HD
BRANCH  16  17
ATOM      1  F   UNL     1       7.987  -1.729  -0.535  0.00  0.00    -0.205 F 
ATOM     17  C   UNL     1       4.447   0.316   0.049  0.00  0.00    +0.037 A 
ATOM     20  C   UNL     1       5.224   0.575  -1.080  0.00  0.00    +0.016 A 
ATOM     21  C   UNL     1       4.866  -0.634   0.980  0.00  0.00    +0.016 A 
ATOM     22  C   UNL     1       6.420  -0.116  -1.278  0.00  0.00    +0.039 A 
ATOM     23  C   UNL     1       6.061  -1.325   0.783  0.00  0.00    +0.039 A 
ATOM     24  C   UNL     1       6.838  -1.066  -0.346  0.00  0.00    +0.123 A 
ENDBRANCH  16  17
ENDBRANCH  13   6
ENDBRANCH  11  13
TORSDOF 7
