REMARK  Name = 75537041
REMARK  4 active torsions:
REMARK  status: ('A' for Active; 'I' for Inactive)
REMARK    1  A    between atoms: O_2  and  C_18
REMARK    2  A    between atoms: O_2  and  C_19
REMARK    3  A    between atoms: N_4  and  C_13
REMARK    4  A    between atoms: C_13  and  C_14
REMARK                            x       y       z     vdW  Elec       q    Type
REMARK                         _______ _______ _______ _____ _____    ______ ____
ROOT
ATOM      1  O   UNL     1       5.636   0.001   0.224  0.00  0.00    -0.253 OA
ATOM      3  N   UNL     1       3.288  -0.117   0.324  0.00  0.00    -0.279 N 
ATOM      4  N   UNL     1       0.678  -1.039  -0.168  0.00  0.00    -0.295 NA
ATOM      5  N   UNL     1       4.255   1.886   0.010  0.00  0.00    -0.297 N 
ATOM      7  C   UNL     1       2.191   0.828   0.361  0.00  0.00    +0.109 C 
ATOM      8  C   UNL     1       1.045   0.345  -0.528  0.00  0.00    +0.109 C 
ATOM      9  C   UNL     1       3.018  -1.526   0.517  0.00  0.00    +0.125 C 
ATOM     10  C   UNL     1       2.835   2.141  -0.076  0.00  0.00    +0.129 C 
ATOM     11  C   UNL     1       1.825  -1.952  -0.344  0.00  0.00    +0.104 C 
ATOM     12  C   UNL     1       4.528   0.517   0.195  0.00  0.00    +0.303 C 
ATOM     20  H   UNL     1       4.972   2.590  -0.130  0.00  0.00    +0.150 HD
ENDROOT
BRANCH   4  13
ATOM     13  C   UNL     1      -0.459  -1.490  -0.972  0.00  0.00    +0.121 C 
BRANCH  13  14
ATOM      6  N   UNL     1      -3.542   0.697  -0.758  0.00  0.00    -0.221 NA
ATOM     14  C   UNL     1      -1.758  -0.911  -0.478  0.00  0.00    -0.015 A 
ATOM     15  C   UNL     1      -2.376  -1.409   0.664  0.00  0.00    +0.011 A 
ATOM     16  C   UNL     1      -2.376   0.133  -1.147  0.00  0.00    +0.119 A 
ATOM     17  C   UNL     1      -3.576  -0.855   1.095  0.00  0.00    +0.067 A 
ATOM     18  C   UNL     1      -4.113   0.187   0.356  0.00  0.00    +0.214 A 
BRANCH  18   2
ATOM      2  O   UNL     1      -5.295   0.749   0.761  0.00  0.00    -0.480 OA
ATOM     19  C   UNL     1      -5.802   1.815  -0.034  0.00  0.00    +0.279 C 
ENDBRANCH  18   2
ENDBRANCH  13  14
ENDBRANCH   4  13
TORSDOF 3
