REMARK  Name = 75536514
REMARK  10 active torsions:
REMARK  status: ('A' for Active; 'I' for Inactive)
REMARK    1  A    between atoms: O_2  and  C_8
REMARK    2  A    between atoms: N_5  and  C_7
REMARK    3  A    between atoms: N_5  and  C_10
REMARK    4  A    between atoms: N_6  and  C_14
REMARK    5  A    between atoms: C_9  and  C_14
REMARK    6  A    between atoms: C_17  and  C_18
REMARK    7  A    between atoms: C_17  and  C_20
REMARK    8  A    between atoms: C_17  and  C_21
REMARK    9  A    between atoms: C_17  and  C_22
REMARK   10  A    between atoms: C_18  and  C_19
REMARK                            x       y       z     vdW  Elec       q    Type
REMARK                         _______ _______ _______ _____ _____    ______ ____
ROOT
ATOM      1  O   UNL     1       0.653   0.036  -0.344  0.00  0.00    -0.371 OA
ATOM      7  C   UNL     1      -1.595  -0.574   0.117  0.00  0.00    +0.111 C 
ATOM      8  C   UNL     1      -0.722  -1.812   0.192  0.00  0.00    +0.164 C 
ATOM      9  C   UNL     1       0.652  -1.190   0.406  0.00  0.00    +0.165 C 
ATOM     11  C   UNL     1      -0.706   0.375  -0.670  0.00  0.00    +0.181 C 
ENDROOT
BRANCH   8   2
ATOM      2  O   UNL     1      -1.083  -2.672   1.255  0.00  0.00    -0.388 OA
ATOM     24  H   UNL     1      -1.051  -2.165   2.083  0.00  0.00    +0.210 HD
ENDBRANCH   8   2
BRANCH   7   5
ATOM      5  N   UNL     1      -2.881  -0.805  -0.521  0.00  0.00    -0.306 NA
ATOM     23  H   UNL     1      -3.289  -1.675  -0.183  0.00  0.00    +0.123 HD
BRANCH   5  10
ATOM      3  O   UNL     1      -6.467   1.205   0.332  0.00  0.00    -0.380 OA
ATOM     10  C   UNL     1      -3.800   0.303  -0.268  0.00  0.00    +0.058 C 
ATOM     12  C   UNL     1      -4.401   0.210   1.138  0.00  0.00    +0.047 C 
ATOM     13  C   UNL     1      -4.917   0.318  -1.316  0.00  0.00    +0.047 C 
ATOM     15  C   UNL     1      -5.455   1.293   1.336  0.00  0.00    +0.161 C 
ATOM     16  C   UNL     1      -5.942   1.396  -0.982  0.00  0.00    +0.161 C 
ENDBRANCH   5  10
ENDBRANCH   7   5
BRANCH   9  14
ATOM     14  C   UNL     1       1.792  -2.078  -0.058  0.00  0.00    +0.138 C 
BRANCH  14   6
ATOM      4  O   UNL     1       3.240  -0.360  -1.887  0.00  0.00    -0.276 OA
ATOM      6  N   UNL     1       3.075  -1.448   0.160  0.00  0.00    -0.313 N 
ATOM     19  C   UNL     1       3.692  -0.639  -0.778  0.00  0.00    +0.214 C 
ATOM     25  H   UNL     1       3.529  -1.609   1.054  0.00  0.00    +0.149 HD
BRANCH  19  18
ATOM     18  C   UNL     1       5.037  -0.106  -0.311  0.00  0.00    +0.102 C 
BRANCH  18  17
ATOM     17  C   UNL     1       4.978   1.274   0.387  0.00  0.00    -0.029 C 
ATOM     20  C   UNL     1       4.410   2.294  -0.618  0.00  0.00    +0.011 C 
ATOM     21  C   UNL     1       6.381   1.740   0.812  0.00  0.00    +0.011 C 
ATOM     22  C   UNL     1       4.059   1.242   1.619  0.00  0.00    +0.011 C 
ENDBRANCH  18  17
ENDBRANCH  19  18
ENDBRANCH  14   6
ENDBRANCH   9  14
TORSDOF 7
