REMARK  Name = 11884461
REMARK  9 active torsions:
REMARK  status: ('A' for Active; 'I' for Inactive)
REMARK    1  A    between atoms: S_1  and  N_8
REMARK    2  A    between atoms: S_1  and  C_22
REMARK    3  A    between atoms: O_5  and  C_28
REMARK    4  A    between atoms: O_5  and  C_31
REMARK    5  A    between atoms: O_7  and  C_30
REMARK    6  A    between atoms: O_7  and  C_32
REMARK    7  A    between atoms: N_10  and  C_20
REMARK    8  A    between atoms: C_27  and  C_29
REMARK    9  A    between atoms: C_29  and  C_30
REMARK                            x       y       z     vdW  Elec       q    Type
REMARK                         _______ _______ _______ _____ _____    ______ ____
ROOT
ATOM      4  O   UNL     1      -2.960  -2.267   1.524  0.00  0.00    -0.266 OA
ATOM      8  N   UNL     1       1.536  -0.354   0.547  0.00  0.00    -0.176 NA
ATOM      9  N   UNL     1      -1.175  -1.906   0.059  0.00  0.00    -0.310 N 
ATOM     11  C   UNL     1       1.177  -2.825   0.487  0.00  0.00    +0.025 C 
ATOM     12  C   UNL     1       0.740  -1.481  -1.522  0.00  0.00    +0.052 C 
ATOM     13  C   UNL     1       1.305  -2.811  -1.031  0.00  0.00    +0.017 C 
ATOM     14  C   UNL     1       1.974  -1.665   1.106  0.00  0.00    +0.114 C 
ATOM     15  C   UNL     1       1.574  -0.323  -0.946  0.00  0.00    +0.119 C 
ATOM     16  C   UNL     1      -0.309  -2.780   0.863  0.00  0.00    +0.130 C 
ATOM     17  C   UNL     1      -0.718  -1.329  -1.130  0.00  0.00    +0.026 A 
ATOM     18  C   UNL     1      -1.560  -0.627  -1.907  0.00  0.00    +0.024 A 
ATOM     19  C   UNL     1      -2.509  -1.764   0.493  0.00  0.00    +0.273 A 
ATOM     20  C   UNL     1      -3.408  -0.955  -0.389  0.00  0.00    +0.099 A 
ATOM     21  C   UNL     1      -2.931  -0.437  -1.525  0.00  0.00    +0.030 A 
ENDROOT
BRANCH  20  10
ATOM      6  O   UNL     1      -5.080   1.292  -0.985  0.00  0.00    -0.275 OA
ATOM     10  N   UNL     1      -4.703  -0.784   0.003  0.00  0.00    -0.281 N 
ATOM     27  C   UNL     1      -5.465   0.333  -0.319  0.00  0.00    +0.220 C 
ATOM     33  H   UNL     1      -5.044  -1.397   0.739  0.00  0.00    +0.155 HD
BRANCH  27  29
ATOM     29  C   UNL     1      -6.868   0.232   0.260  0.00  0.00    +0.124 C 
BRANCH  29  30
ATOM     30  C   UNL     1      -7.735   1.438  -0.070  0.00  0.00    +0.168 C 
BRANCH  30   7
ATOM      7  O   UNL     1      -7.152   2.607   0.491  0.00  0.00    -0.382 OA
ATOM     32  C   UNL     1      -7.933   3.762   0.217  0.00  0.00    +0.194 C 
ENDBRANCH  30   7
ENDBRANCH  29  30
ENDBRANCH  27  29
ENDBRANCH  20  10
BRANCH   8   1
ATOM      1  S   UNL     1       2.161   1.032   1.332  0.00  0.00    +0.061 S 
ATOM      2  O   UNL     1       2.211   0.786   2.758  0.00  0.00    -0.153 OA
ATOM      3  O   UNL     1       1.506   2.209   0.802  0.00  0.00    -0.153 OA
BRANCH   1  22
ATOM     22  C   UNL     1       3.818   1.012   0.724  0.00  0.00    +0.106 A 
ATOM     23  C   UNL     1       4.118   1.687  -0.448  0.00  0.00    +0.032 A 
ATOM     24  C   UNL     1       4.790   0.321   1.428  0.00  0.00    +0.032 A 
ATOM     25  C   UNL     1       5.427   1.671  -0.929  0.00  0.00    +0.047 A 
ATOM     26  C   UNL     1       6.100   0.305   0.947  0.00  0.00    +0.047 A 
ATOM     28  C   UNL     1       6.418   0.980  -0.232  0.00  0.00    +0.120 A 
BRANCH  28   5
ATOM      5  O   UNL     1       7.696   0.965  -0.700  0.00  0.00    -0.495 OA
ATOM     31  C   UNL     1       7.952   1.677  -1.910  0.00  0.00    +0.277 C 
ENDBRANCH  28   5
ENDBRANCH   1  22
ENDBRANCH   8   1
TORSDOF 7
