REMARK  Name = 45783830
REMARK  9 active torsions:
REMARK  status: ('A' for Active; 'I' for Inactive)
REMARK    1  A    between atoms: S_1  and  C_22
REMARK    2  A    between atoms: S_1  and  C_26
REMARK    3  A    between atoms: N_5  and  C_14
REMARK    4  A    between atoms: N_9  and  C_28
REMARK    5  A    between atoms: N_9  and  C_29
REMARK    6  A    between atoms: N_9  and  C_30
REMARK    7  A    between atoms: C_10  and  C_15
REMARK    8  A    between atoms: C_14  and  C_16
REMARK    9  A    between atoms: C_19  and  C_23
REMARK                            x       y       z     vdW  Elec       q    Type
REMARK                         _______ _______ _______ _____ _____    ______ ____
ROOT
ATOM      5  N   UNL     1      -4.144  -0.661   0.132  0.00  0.00    -0.287 NA
ATOM     10  C   UNL     1      -3.270  -1.772   0.556  0.00  0.00    +0.146 C 
ATOM     11  C   UNL     1      -3.996  -3.044   0.083  0.00  0.00    +0.030 C 
ATOM     12  C   UNL     1      -5.295  -2.553  -0.540  0.00  0.00    +0.017 C 
ATOM     13  C   UNL     1      -5.506  -1.195   0.100  0.00  0.00    +0.085 C 
ENDROOT
BRANCH  10  15
ATOM      2  O   UNL     1      -1.760  -1.593  -1.357  0.00  0.00    -0.336 OA
ATOM      6  N   UNL     1      -0.722  -1.608   0.628  0.00  0.00    -0.190 NA
ATOM      7  N   UNL     1      -0.390  -1.492  -1.633  0.00  0.00    -0.056 NA
ATOM     15  C   UNL     1      -1.868  -1.656  -0.004  0.00  0.00    +0.245 A 
ATOM     19  C   UNL     1       0.155  -1.508  -0.413  0.00  0.00    +0.204 A 
BRANCH  19  23
ATOM      8  N   UNL     1       3.793  -1.238  -1.134  0.00  0.00    -0.240 NA
ATOM     23  C   UNL     1       1.571  -1.423  -0.200  0.00  0.00    +0.041 A 
ATOM     24  C   UNL     1       2.104  -1.440   1.085  0.00  0.00    +0.016 A 
ATOM     25  C   UNL     1       2.450  -1.321  -1.266  0.00  0.00    +0.124 A 
ATOM     27  C   UNL     1       3.481  -1.357   1.261  0.00  0.00    +0.044 A 
ATOM     28  C   UNL     1       4.274  -1.258   0.129  0.00  0.00    +0.121 A 
BRANCH  28   9
ATOM      9  N   UNL     1       5.675  -1.173   0.325  0.00  0.00    -0.321 N 
ATOM     29  C   UNL     1       6.564  -1.076  -0.812  0.00  0.00    +0.130 C 
ATOM     30  C   UNL     1       6.225  -1.190   1.662  0.00  0.00    +0.130 C 
ENDBRANCH  28   9
ENDBRANCH  19  23
ENDBRANCH  10  15
BRANCH   5  14
ATOM     14  C   UNL     1      -4.037   0.514   0.987  0.00  0.00    +0.120 C 
BRANCH  14  16
ATOM     16  C   UNL     1      -2.817   1.335   0.661  0.00  0.00    -0.033 A 
ATOM     17  C   UNL     1      -1.857   1.578   1.643  0.00  0.00    +0.007 A 
ATOM     18  C   UNL     1      -2.648   1.853  -0.623  0.00  0.00    +0.007 A 
ATOM     20  C   UNL     1      -0.727   2.338   1.341  0.00  0.00    +0.027 A 
ATOM     21  C   UNL     1      -1.518   2.613  -0.925  0.00  0.00    +0.027 A 
ATOM     22  C   UNL     1      -0.558   2.856   0.057  0.00  0.00    +0.088 A 
BRANCH  22   1
ATOM      1  S   UNL     1       0.858   3.805  -0.322  0.00  0.00    -0.006 S 
ATOM      3  O   UNL     1       0.557   4.671  -1.454  0.00  0.00    -0.170 OA
ATOM      4  O   UNL     1       1.355   4.383   0.919  0.00  0.00    -0.170 OA
ATOM     26  C   UNL     1       2.052   2.613  -0.885  0.00  0.00    +0.200 C 
ENDBRANCH  22   1
ENDBRANCH  14  16
ENDBRANCH   5  14
TORSDOF 6
