REMARK  Name = 71694388
REMARK  10 active torsions:
REMARK  status: ('A' for Active; 'I' for Inactive)
REMARK    1  A    between atoms: O_3  and  C_17
REMARK    2  A    between atoms: O_3  and  C_18
REMARK    3  A    between atoms: N_4  and  C_6
REMARK    4  A    between atoms: N_4  and  C_10
REMARK    5  A    between atoms: C_6  and  C_9
REMARK    6  A    between atoms: C_9  and  C_12
REMARK    7  A    between atoms: C_10  and  C_11
REMARK    8  A    between atoms: C_11  and  C_13
REMARK    9  A    between atoms: C_11  and  C_14
REMARK   10  A    between atoms: C_16  and  C_17
REMARK                            x       y       z     vdW  Elec       q    Type
REMARK                         _______ _______ _______ _____ _____    ______ ____
ROOT
ATOM      1  O   UNL     1      -1.675  -3.072  -0.507  0.00  0.00    -0.376 OA
ATOM      6  C   UNL     1      -1.278  -1.090   0.185  0.00  0.00    +0.072 C 
ATOM      7  C   UNL     1      -2.431  -2.100   0.263  0.00  0.00    +0.184 C 
ATOM      8  C   UNL     1      -0.691  -2.060  -0.848  0.00  0.00    +0.184 C 
ENDROOT
BRANCH   6   4
ATOM      4  N   UNL     1      -1.750   0.106  -0.519  0.00  0.00    -0.306 NA
ATOM     19  H   UNL     1      -1.024   0.758  -0.811  0.00  0.00    +0.123 HD
BRANCH   4  10
ATOM     10  C   UNL     1      -2.742   0.790   0.303  0.00  0.00    +0.084 C 
BRANCH  10  11
ATOM     11  C   UNL     1      -3.678   1.685  -0.528  0.00  0.00    -0.003 C 
ATOM     13  C   UNL     1      -4.682   2.450   0.338  0.00  0.00    +0.008 C 
ATOM     14  C   UNL     1      -4.428   0.834  -1.556  0.00  0.00    +0.008 C 
ENDBRANCH  10  11
ENDBRANCH   4  10
ENDBRANCH   6   4
BRANCH   6   9
ATOM      9  C   UNL     1      -0.486  -0.774   1.428  0.00  0.00    +0.085 C 
BRANCH   9  12
ATOM      2  O   UNL     1       2.278   1.400   0.612  0.00  0.00    -0.357 OA
ATOM      5  N   UNL     1       0.948   1.173   0.944  0.00  0.00    -0.083 NA
ATOM     12  C   UNL     1       0.844  -0.154   1.065  0.00  0.00    +0.086 A 
ATOM     15  C   UNL     1       2.063  -0.809   0.822  0.00  0.00    +0.073 A 
ATOM     16  C   UNL     1       2.932   0.213   0.542  0.00  0.00    +0.163 A 
BRANCH  16  17
ATOM     17  C   UNL     1       4.358   0.269   0.199  0.00  0.00    +0.236 C 
BRANCH  17   3
ATOM      3  O   UNL     1       4.522   0.541  -1.196  0.00  0.00    -0.375 OA
ATOM     18  C   UNL     1       5.895   0.599  -1.548  0.00  0.00    +0.194 C 
ENDBRANCH  17   3
ENDBRANCH  16  17
ENDBRANCH   9  12
ENDBRANCH   6   9
TORSDOF 7
