REMARK  Name = 11911834
REMARK  9 active torsions:
REMARK  status: ('A' for Active; 'I' for Inactive)
REMARK    1  A    between atoms: O_4  and  C_18
REMARK    2  A    between atoms: O_4  and  C_23
REMARK    3  A    between atoms: N_5  and  C_12
REMARK    4  A    between atoms: N_6  and  C_13
REMARK    5  A    between atoms: N_9  and  C_30
REMARK    6  A    between atoms: N_9  and  C_34
REMARK    7  A    between atoms: N_9  and  C_35
REMARK    8  A    between atoms: C_16  and  C_18
REMARK    9  A    between atoms: C_19  and  C_22
REMARK                            x       y       z     vdW  Elec       q    Type
REMARK                         _______ _______ _______ _____ _____    ______ ____
ROOT
ATOM      1  O   UNL     1       0.060   0.984   2.115  0.00  0.00    -0.370 OA
ATOM      2  O   UNL     1      -0.933   3.833   1.319  0.00  0.00    -0.370 OA
ATOM     10  C   UNL     1      -1.221   2.515   0.822  0.00  0.00    +0.171 C 
ATOM     11  C   UNL     1       0.068   1.719   0.880  0.00  0.00    +0.171 C 
ATOM     12  C   UNL     1      -2.147   1.786   1.770  0.00  0.00    +0.130 C 
ATOM     13  C   UNL     1       1.151   2.772   0.904  0.00  0.00    +0.130 C 
ATOM     14  C   UNL     1      -1.181   1.221   2.796  0.00  0.00    +0.185 C 
ATOM     15  C   UNL     1       0.470   3.934   1.603  0.00  0.00    +0.185 C 
ENDROOT
BRANCH  13   6
ATOM      6  N   UNL     1       1.512   3.142  -0.447  0.00  0.00    -0.306 N 
ATOM      7  N   UNL     1       3.016   1.381  -0.627  0.00  0.00    -0.214 NA
ATOM      8  N   UNL     1       2.665   2.918  -2.450  0.00  0.00    -0.223 NA
ATOM     17  C   UNL     1       2.438   2.450  -1.208  0.00  0.00    +0.216 A 
ATOM     19  C   UNL     1       3.913   0.731  -1.397  0.00  0.00    +0.076 A 
ATOM     20  C   UNL     1       3.573   2.220  -3.164  0.00  0.00    +0.116 A 
ATOM     21  C   UNL     1       4.235   1.108  -2.685  0.00  0.00    +0.048 A 
ATOM     37  H   UNL     1       1.035   3.915  -0.896  0.00  0.00    +0.149 HD
BRANCH  19  22
ATOM     22  C   UNL     1       4.534  -0.416  -0.779  0.00  0.00    +0.001 A 
ATOM     24  C   UNL     1       3.750  -1.487  -0.349  0.00  0.00    +0.012 A 
ATOM     25  C   UNL     1       5.918  -0.454  -0.612  0.00  0.00    +0.012 A 
ATOM     26  C   UNL     1       4.350  -2.595   0.247  0.00  0.00    +0.024 A 
ATOM     27  C   UNL     1       6.519  -1.563  -0.016  0.00  0.00    +0.024 A 
ATOM     30  C   UNL     1       5.735  -2.634   0.413  0.00  0.00    +0.029 A 
BRANCH  30   9
ATOM      9  N   UNL     1       6.342  -3.755   1.017  0.00  0.00    -0.336 N 
ATOM     34  C   UNL     1       5.535  -4.867   1.480  0.00  0.00    +0.129 C 
ATOM     35  C   UNL     1       7.780  -3.803   1.195  0.00  0.00    +0.129 C 
ENDBRANCH  30   9
ENDBRANCH  19  22
ENDBRANCH  13   6
BRANCH  12   5
ATOM      3  O   UNL     1      -4.795   1.937   0.604  0.00  0.00    -0.272 OA
ATOM      5  N   UNL     1      -2.865   0.734   1.092  0.00  0.00    -0.305 N 
ATOM     16  C   UNL     1      -4.137   0.901   0.564  0.00  0.00    +0.251 C 
ATOM     36  H   UNL     1      -2.390  -0.154   0.953  0.00  0.00    +0.149 HD
BRANCH  16  18
ATOM     18  C   UNL     1      -4.644  -0.366  -0.089  0.00  0.00    +0.324 C 
BRANCH  18   4
ATOM      4  O   UNL     1      -5.933  -0.167  -0.630  0.00  0.00    -0.483 OA
BRANCH   4  23
ATOM     23  C   UNL     1      -6.769  -1.257  -0.678  0.00  0.00    +0.121 A 
ATOM     28  C   UNL     1      -6.237  -2.539  -0.820  0.00  0.00    +0.045 A 
ATOM     29  C   UNL     1      -8.150  -1.082  -0.586  0.00  0.00    +0.045 A 
ATOM     31  C   UNL     1      -7.086  -3.645  -0.870  0.00  0.00    +0.004 A 
ATOM     32  C   UNL     1      -8.999  -2.188  -0.635  0.00  0.00    +0.004 A 
ATOM     33  C   UNL     1      -8.466  -3.469  -0.777  0.00  0.00    +0.000 A 
ENDBRANCH   4  23
ENDBRANCH  18   4
ENDBRANCH  16  18
ENDBRANCH  12   5
TORSDOF 7
