REMARK  Name = 75536507
REMARK  9 active torsions:
REMARK  status: ('A' for Active; 'I' for Inactive)
REMARK    1  A    between atoms: S_1  and  C_19
REMARK    2  A    between atoms: S_1  and  C_23
REMARK    3  A    between atoms: O_3  and  C_10
REMARK    4  A    between atoms: N_7  and  C_9
REMARK    5  A    between atoms: N_7  and  C_14
REMARK    6  A    between atoms: N_8  and  C_13
REMARK    7  A    between atoms: C_11  and  C_13
REMARK    8  A    between atoms: C_14  and  C_15
REMARK    9  A    between atoms: C_18  and  C_22
REMARK                            x       y       z     vdW  Elec       q    Type
REMARK                         _______ _______ _______ _____ _____    ______ ____
ROOT
ATOM      7  N   UNL     1       0.149   0.148  -0.075  0.00  0.00    -0.305 NA
ATOM     24  H   UNL     1      -0.045   1.096   0.250  0.00  0.00    +0.123 HD
ENDROOT
BRANCH   7   9
ATOM      2  O   UNL     1       3.481  -1.285  -0.351  0.00  0.00    -0.371 OA
ATOM      9  C   UNL     1       1.535   0.069  -0.505  0.00  0.00    +0.111 C 
ATOM     10  C   UNL     1       2.511   0.713   0.463  0.00  0.00    +0.164 C 
ATOM     11  C   UNL     1       3.818   0.056   0.042  0.00  0.00    +0.165 C 
ATOM     12  C   UNL     1       2.059  -1.357  -0.556  0.00  0.00    +0.181 C 
BRANCH  10   3
ATOM      3  O   UNL     1       2.562   2.120   0.332  0.00  0.00    -0.388 OA
ATOM     25  H   UNL     1       2.784   2.334  -0.590  0.00  0.00    +0.210 HD
ENDBRANCH  10   3
BRANCH  11  13
ATOM     13  C   UNL     1       4.857   0.021   1.149  0.00  0.00    +0.138 C 
BRANCH  13   8
ATOM      4  O   UNL     1       7.157   1.290  -0.087  0.00  0.00    -0.276 OA
ATOM      8  N   UNL     1       6.068  -0.610   0.709  0.00  0.00    -0.313 N 
ATOM     18  C   UNL     1       7.124   0.080   0.124  0.00  0.00    +0.210 C 
ATOM     22  C   UNL     1       8.281  -0.818  -0.221  0.00  0.00    +0.109 C 
ATOM     26  H   UNL     1       6.148  -1.615   0.833  0.00  0.00    +0.149 HD
ENDBRANCH  13   8
ENDBRANCH  11  13
ENDBRANCH   7   9
BRANCH   7  14
ATOM     14  C   UNL     1      -0.760  -0.171  -1.169  0.00  0.00    +0.116 C 
BRANCH  14  15
ATOM     15  C   UNL     1      -2.201  -0.111  -0.738  0.00  0.00    -0.033 A 
ATOM     16  C   UNL     1      -2.992   0.981  -1.097  0.00  0.00    +0.007 A 
ATOM     17  C   UNL     1      -2.745  -1.146   0.023  0.00  0.00    +0.007 A 
ATOM     19  C   UNL     1      -4.871   0.002   0.063  0.00  0.00    +0.088 A 
ATOM     20  C   UNL     1      -4.327   1.037  -0.698  0.00  0.00    +0.027 A 
ATOM     21  C   UNL     1      -4.080  -1.090   0.423  0.00  0.00    +0.027 A 
BRANCH  19   1
ATOM      1  S   UNL     1      -6.541   0.073   0.567  0.00  0.00    -0.006 S 
ATOM      5  O   UNL     1      -6.711  -0.751   1.756  0.00  0.00    -0.170 OA
ATOM      6  O   UNL     1      -6.941   1.473   0.594  0.00  0.00    -0.170 OA
ATOM     23  C   UNL     1      -7.434  -0.726  -0.748  0.00  0.00    +0.200 C 
ENDBRANCH  19   1
ENDBRANCH  14  15
ENDBRANCH   7  14
TORSDOF 7
