REMARK  Name = 11865843
REMARK  11 active torsions:
REMARK  status: ('A' for Active; 'I' for Inactive)
REMARK    1  A    between atoms: S_1  and  C_19
REMARK    2  A    between atoms: S_1  and  C_26
REMARK    3  A    between atoms: N_7  and  C_11
REMARK    4  A    between atoms: N_8  and  C_17
REMARK    5  A    between atoms: N_9  and  C_23
REMARK    6  A    between atoms: C_12  and  C_15
REMARK    7  A    between atoms: C_16  and  C_19
REMARK    8  A    between atoms: C_17  and  C_20
REMARK    9  A    between atoms: C_17  and  C_21
REMARK   10  A    between atoms: C_20  and  C_22
REMARK   11  A    between atoms: C_23  and  C_27
REMARK                            x       y       z     vdW  Elec       q    Type
REMARK                         _______ _______ _______ _____ _____    ______ ____
ROOT
ATOM      3  O   UNL     1       3.241   0.829  -1.657  0.00  0.00    -0.275 OA
ATOM      6  N   UNL     1       2.679   0.024   0.440  0.00  0.00    -0.287 N 
ATOM     11  C   UNL     1       0.770  -1.087   1.304  0.00  0.00    +0.105 C 
ATOM     12  C   UNL     1       1.267  -0.211   0.154  0.00  0.00    +0.182 C 
ATOM     13  C   UNL     1       1.696  -0.709   2.464  0.00  0.00    +0.043 C 
ATOM     14  C   UNL     1       3.028  -0.417   1.787  0.00  0.00    +0.110 C 
ATOM     16  C   UNL     1       3.571   0.463  -0.527  0.00  0.00    +0.226 C 
ENDROOT
BRANCH  11   7
ATOM      4  O   UNL     1      -1.265  -2.774   0.149  0.00  0.00    -0.253 OA
ATOM      7  N   UNL     1       0.886  -2.488   0.976  0.00  0.00    -0.294 N 
ATOM      9  N   UNL     1       0.227  -4.550   0.202  0.00  0.00    -0.296 N 
ATOM     18  C   UNL     1      -0.154  -3.228   0.418  0.00  0.00    +0.300 C 
ATOM     32  H   UNL     1       1.786  -2.942   1.097  0.00  0.00    +0.151 HD
ATOM     34  H   UNL     1       1.174  -4.830   0.438  0.00  0.00    +0.151 HD
BRANCH   9  23
ATOM     23  C   UNL     1      -0.660  -5.537  -0.367  0.00  0.00    +0.132 C 
BRANCH  23  27
ATOM     27  C   UNL     1      -0.509  -5.530  -1.852  0.00  0.00    -0.016 C 
ATOM     31  C   UNL     1      -1.514  -5.293  -2.703  0.00  0.00    +0.005 C 
ENDBRANCH  23  27
ENDBRANCH   9  23
ENDBRANCH  11   7
BRANCH  12  15
ATOM      2  O   UNL     1       1.001   2.052   0.868  0.00  0.00    -0.274 OA
ATOM      8  N   UNL     1      -0.491   1.179  -0.691  0.00  0.00    -0.302 N 
ATOM     15  C   UNL     1       0.601   1.133   0.159  0.00  0.00    +0.236 C 
ATOM     33  H   UNL     1      -0.700   0.371  -1.270  0.00  0.00    +0.150 HD
BRANCH   8  17
ATOM     17  C   UNL     1      -1.318   2.353  -0.851  0.00  0.00    +0.163 C 
BRANCH  17  21
ATOM      5  O   UNL     1      -0.076   2.763  -2.899  0.00  0.00    -0.274 OA
ATOM     10  N   UNL     1      -0.858   4.566  -1.709  0.00  0.00    -0.328 N 
ATOM     21  C   UNL     1      -0.668   3.216  -1.922  0.00  0.00    +0.231 C 
ATOM     35  H   UNL     1      -0.486   5.253  -2.357  0.00  0.00    +0.145 HD
ATOM     36  H   UNL     1      -1.370   4.925  -0.909  0.00  0.00    +0.145 HD
ENDBRANCH  17  21
BRANCH  17  20
ATOM     20  C   UNL     1      -2.756   2.000  -1.250  0.00  0.00    +0.067 C 
BRANCH  20  22
ATOM     22  C   UNL     1      -3.593   1.550  -0.077  0.00  0.00    -0.045 A 
ATOM     24  C   UNL     1      -3.643   0.199   0.266  0.00  0.00    +0.004 A 
ATOM     25  C   UNL     1      -4.316   2.485   0.663  0.00  0.00    +0.004 A 
ATOM     28  C   UNL     1      -4.417  -0.217   1.350  0.00  0.00    +0.000 A 
ATOM     29  C   UNL     1      -5.090   2.069   1.746  0.00  0.00    +0.000 A 
ATOM     30  C   UNL     1      -5.140   0.718   2.090  0.00  0.00    +0.000 A 
ENDBRANCH  20  22
ENDBRANCH  17  20
ENDBRANCH   8  17
ENDBRANCH  12  15
BRANCH  16  19
ATOM     19  C   UNL     1       5.021   0.481  -0.114  0.00  0.00    +0.164 C 
BRANCH  19   1
ATOM      1  S   UNL     1       5.368   2.099   0.591  0.00  0.00    -0.155 S 
ATOM     26  C   UNL     1       7.116   1.861   0.991  0.00  0.00    +0.085 C 
ENDBRANCH  19   1
ENDBRANCH  16  19
TORSDOF 10
