REMARK  Name = 45784230
REMARK  4 active torsions:
REMARK  status: ('A' for Active; 'I' for Inactive)
REMARK    1  A    between atoms: N_2  and  C_11
REMARK    2  A    between atoms: C_6  and  C_10
REMARK    3  A    between atoms: C_11  and  C_12
REMARK    4  A    between atoms: C_20  and  C_24
REMARK                            x       y       z     vdW  Elec       q    Type
REMARK                         _______ _______ _______ _____ _____    ______ ____
ROOT
ATOM      2  N   UNL     1      -1.376  -0.649  -0.092  0.00  0.00    -0.297 NA
ATOM      6  C   UNL     1       0.837  -0.823   0.665  0.00  0.00    +0.070 C 
ATOM      7  C   UNL     1       0.043   0.103   1.603  0.00  0.00    +0.028 C 
ATOM      8  C   UNL     1      -0.031  -0.935  -0.596  0.00  0.00    +0.096 C 
ATOM      9  C   UNL     1      -1.205   0.483   0.818  0.00  0.00    +0.085 C 
ENDROOT
BRANCH   6  10
ATOM      1  F   UNL     1       8.028  -0.107  -0.070  0.00  0.00    -0.205 F 
ATOM      3  N   UNL     1       3.325  -1.149   0.687  0.00  0.00    -0.341 N 
ATOM      4  N   UNL     1       2.609   0.762  -0.193  0.00  0.00    -0.232 NA
ATOM     10  C   UNL     1       2.248  -0.369   0.370  0.00  0.00    +0.113 A 
ATOM     13  C   UNL     1       4.457  -0.477   0.302  0.00  0.00    +0.069 A 
ATOM     14  C   UNL     1       3.983   0.713  -0.244  0.00  0.00    +0.089 A 
ATOM     17  C   UNL     1       5.812  -0.797   0.382  0.00  0.00    +0.066 A 
ATOM     18  C   UNL     1       4.902   1.650  -0.745  0.00  0.00    +0.032 A 
ATOM     19  C   UNL     1       6.713   0.147  -0.121  0.00  0.00    +0.125 A 
ATOM     21  C   UNL     1       6.268   1.350  -0.675  0.00  0.00    +0.040 A 
ATOM     25  H   UNL     1       3.297  -2.060   1.126  0.00  0.00    +0.167 HD
ENDBRANCH   6  10
BRANCH   2  11
ATOM     11  C   UNL     1      -2.321  -0.364  -1.161  0.00  0.00    +0.119 C 
BRANCH  11  12
ATOM     12  C   UNL     1      -3.748  -0.504  -0.701  0.00  0.00    -0.032 A 
ATOM     15  C   UNL     1      -4.512   0.633  -0.438  0.00  0.00    +0.023 A 
ATOM     16  C   UNL     1      -4.305  -1.772  -0.539  0.00  0.00    +0.005 A 
ATOM     20  C   UNL     1      -5.834   0.501  -0.013  0.00  0.00    +0.052 A 
ATOM     22  C   UNL     1      -5.628  -1.904  -0.115  0.00  0.00    +0.002 A 
ATOM     23  C   UNL     1      -6.392  -0.767   0.148  0.00  0.00    +0.019 A 
BRANCH  20  24
ATOM      5  N   UNL     1      -7.255   2.610   0.474  0.00  0.00    -0.191 NA
ATOM     24  C   UNL     1      -6.619   1.665   0.256  0.00  0.00    +0.099 C 
ENDBRANCH  20  24
ENDBRANCH  11  12
ENDBRANCH   2  11
TORSDOF 4
