REMARK  Name = 7142911
REMARK  7 active torsions:
REMARK  status: ('A' for Active; 'I' for Inactive)
REMARK    1  A    between atoms: O_4  and  C_27
REMARK    2  A    between atoms: O_4  and  C_35
REMARK    3  A    between atoms: O_5  and  C_28
REMARK    4  A    between atoms: O_5  and  C_36
REMARK    5  A    between atoms: N_8  and  C_22
REMARK    6  A    between atoms: N_9  and  C_20
REMARK    7  A    between atoms: C_23  and  C_26
REMARK                            x       y       z     vdW  Elec       q    Type
REMARK                         _______ _______ _______ _____ _____    ______ ____
ROOT
ATOM      1  O   UNL     1       0.102   2.646   1.723  0.00  0.00    -0.266 OA
ATOM      2  O   UNL     1      -3.397  -1.038   1.834  0.00  0.00    -0.252 OA
ATOM      6  N   UNL     1      -4.000   0.370   0.103  0.00  0.00    -0.284 N 
ATOM      7  N   UNL     1      -1.629   2.438   0.167  0.00  0.00    -0.310 N 
ATOM      8  N   UNL     1      -2.808  -1.617  -0.335  0.00  0.00    -0.269 N 
ATOM     10  C   UNL     1      -4.094   2.757   0.789  0.00  0.00    +0.027 C 
ATOM     11  C   UNL     1      -3.478   2.164  -1.523  0.00  0.00    +0.054 C 
ATOM     12  C   UNL     1      -4.259   3.167  -0.672  0.00  0.00    +0.018 C 
ATOM     13  C   UNL     1      -4.628   1.328   1.016  0.00  0.00    +0.114 C 
ATOM     14  C   UNL     1      -2.612   2.885   1.165  0.00  0.00    +0.130 C 
ATOM     15  C   UNL     1      -4.071   0.757  -1.317  0.00  0.00    +0.119 C 
ATOM     16  C   UNL     1      -2.007   2.163  -1.152  0.00  0.00    +0.027 A 
ATOM     17  C   UNL     1      -1.077   1.861  -2.073  0.00  0.00    +0.024 A 
ATOM     18  C   UNL     1      -0.282   2.395   0.580  0.00  0.00    +0.273 A 
ATOM     19  C   UNL     1      -3.406  -0.799   0.624  0.00  0.00    +0.306 C 
ATOM     20  C   UNL     1       0.720   2.029  -0.471  0.00  0.00    +0.099 A 
ATOM     21  C   UNL     1       0.313   1.792  -1.722  0.00  0.00    +0.030 A 
ATOM     37  H   UNL     1      -3.188  -1.614  -1.274  0.00  0.00    +0.156 HD
ENDROOT
BRANCH   8  22
ATOM     22  C   UNL     1      -1.693  -2.472  -0.159  0.00  0.00    +0.042 A 
ATOM     24  C   UNL     1      -1.218  -3.227  -1.231  0.00  0.00    +0.069 A 
ATOM     25  C   UNL     1      -1.069  -2.558   1.085  0.00  0.00    +0.069 A 
ATOM     27  C   UNL     1       0.030  -3.400   1.258  0.00  0.00    +0.125 A 
ATOM     28  C   UNL     1      -0.119  -4.069  -1.059  0.00  0.00    +0.125 A 
ATOM     29  C   UNL     1       0.505  -4.155   0.186  0.00  0.00    +0.091 A 
BRANCH  27   4
ATOM      4  O   UNL     1       0.638  -3.485   2.473  0.00  0.00    -0.495 OA
ATOM     35  C   UNL     1       0.101  -2.686   3.525  0.00  0.00    +0.277 C 
ENDBRANCH  27   4
BRANCH  28   5
ATOM      5  O   UNL     1       0.345  -4.806  -2.105  0.00  0.00    -0.495 OA
ATOM     36  C   UNL     1       1.472  -5.646  -1.858  0.00  0.00    +0.277 C 
ENDBRANCH  28   5
ENDBRANCH   8  22
BRANCH  20   9
ATOM      3  O   UNL     1       2.717   0.382  -1.673  0.00  0.00    -0.270 OA
ATOM      9  N   UNL     1       2.033   1.960  -0.107  0.00  0.00    -0.277 N 
ATOM     23  C   UNL     1       2.958   1.136  -0.734  0.00  0.00    +0.248 C 
ATOM     38  H   UNL     1       2.269   2.435   0.757  0.00  0.00    +0.155 HD
BRANCH  23  26
ATOM     26  C   UNL     1       4.348   1.214  -0.212  0.00  0.00    +0.037 A 
ATOM     30  C   UNL     1       5.424   0.915  -1.048  0.00  0.00    +0.013 A 
ATOM     31  C   UNL     1       4.576   1.588   1.112  0.00  0.00    +0.013 A 
ATOM     32  C   UNL     1       6.728   0.988  -0.558  0.00  0.00    +0.001 A 
ATOM     33  C   UNL     1       5.880   1.662   1.601  0.00  0.00    +0.001 A 
ATOM     34  C   UNL     1       6.956   1.362   0.766  0.00  0.00    +0.000 A 
ENDBRANCH  23  26
ENDBRANCH  20   9
TORSDOF 5
