REMARK  Name = 56775508
REMARK  9 active torsions:
REMARK  status: ('A' for Active; 'I' for Inactive)
REMARK    1  A    between atoms: O_3  and  C_20
REMARK    2  A    between atoms: N_4  and  C_6
REMARK    3  A    between atoms: N_4  and  C_8
REMARK    4  A    between atoms: C_6  and  C_13
REMARK    5  A    between atoms: C_7  and  C_8
REMARK    6  A    between atoms: C_13  and  C_17
REMARK    7  A    between atoms: C_19  and  C_20
REMARK    8  A    between atoms: C_20  and  C_21
REMARK    9  A    between atoms: C_20  and  C_22
REMARK                            x       y       z     vdW  Elec       q    Type
REMARK                         _______ _______ _______ _____ _____    ______ ____
ROOT
ATOM      1  O   UNL     1       0.593  -3.580   0.362  0.00  0.00    -0.376 OA
ATOM      6  C   UNL     1       0.408  -1.560  -0.304  0.00  0.00    +0.072 C 
ATOM      9  C   UNL     1      -0.238  -2.460   0.743  0.00  0.00    +0.184 C 
ATOM     10  C   UNL     1       1.312  -2.756  -0.584  0.00  0.00    +0.184 C 
ENDROOT
BRANCH   6   4
ATOM      4  N   UNL     1       1.192  -0.526   0.381  0.00  0.00    -0.306 NA
ATOM     23  H   UNL     1       0.645   0.143   0.922  0.00  0.00    +0.123 HD
BRANCH   4   8
ATOM      8  C   UNL     1       2.017   0.179  -0.589  0.00  0.00    +0.085 C 
BRANCH   8   7
ATOM      7  C   UNL     1       3.234   0.808   0.087  0.00  0.00    +0.003 C 
ATOM     11  C   UNL     1       4.042   1.640  -0.918  0.00  0.00    +0.005 C 
ATOM     12  C   UNL     1       4.112  -0.272   0.734  0.00  0.00    +0.005 C 
ATOM     14  C   UNL     1       5.294   2.236  -0.279  0.00  0.00    +0.000 C 
ATOM     15  C   UNL     1       5.364   0.327   1.370  0.00  0.00    +0.000 C 
ATOM     16  C   UNL     1       6.160   1.161   0.371  0.00  0.00    +0.000 C 
ENDBRANCH   8   7
ENDBRANCH   4   8
ENDBRANCH   6   4
BRANCH   6  13
ATOM     13  C   UNL     1      -0.436  -1.014  -1.414  0.00  0.00    +0.085 C 
BRANCH  13  17
ATOM      2  O   UNL     1      -2.649   1.552  -0.160  0.00  0.00    -0.356 OA
ATOM      5  N   UNL     1      -1.427   1.117  -0.657  0.00  0.00    -0.083 NA
ATOM     17  C   UNL     1      -1.584  -0.194  -0.864  0.00  0.00    +0.086 A 
ATOM     18  C   UNL     1      -2.872  -0.638  -0.519  0.00  0.00    +0.074 A 
ATOM     19  C   UNL     1      -3.502   0.498  -0.082  0.00  0.00    +0.168 A 
BRANCH  19  20
ATOM     20  C   UNL     1      -4.849   0.781   0.427  0.00  0.00    +0.120 C 
ATOM     21  C   UNL     1      -5.652   1.753  -0.487  0.00  0.00    +0.049 C 
ATOM     22  C   UNL     1      -4.843   1.360   1.872  0.00  0.00    +0.049 C 
BRANCH  20   3
ATOM      3  O   UNL     1      -5.676  -0.412   0.511  0.00  0.00    -0.381 OA
ATOM     24  H   UNL     1      -6.549  -0.154   0.853  0.00  0.00    +0.211 HD
ENDBRANCH  20   3
ENDBRANCH  19  20
ENDBRANCH  13  17
ENDBRANCH   6  13
TORSDOF 7
