REMARK  Name = 28991009
REMARK  5 active torsions:
REMARK  status: ('A' for Active; 'I' for Inactive)
REMARK    1  A    between atoms: N_4  and  C_14
REMARK    2  A    between atoms: N_5  and  C_15
REMARK    3  A    between atoms: N_6  and  C_21
REMARK    4  A    between atoms: C_8  and  C_14
REMARK    5  A    between atoms: C_9  and  C_15
REMARK                            x       y       z     vdW  Elec       q    Type
REMARK                         _______ _______ _______ _____ _____    ______ ____
ROOT
ATOM      3  N   UNL     1       1.073   2.699  -0.312  0.00  0.00    -0.298 NA
ATOM      7  C   UNL     1       2.310   0.872   1.067  0.00  0.00    -0.003 C 
ATOM      8  C   UNL     1       3.126   1.266  -0.186  0.00  0.00    +0.020 C 
ATOM      9  C   UNL     1       0.161   1.552  -0.053  0.00  0.00    +0.074 C 
ATOM     10  C   UNL     1       0.913   0.390   0.634  0.00  0.00    +0.024 C 
ATOM     11  C   UNL     1       2.282   2.241  -1.037  0.00  0.00    +0.089 C 
ATOM     12  C   UNL     1       2.112   2.157   1.894  0.00  0.00    +0.019 C 
ATOM     13  C   UNL     1       1.500   3.248   0.998  0.00  0.00    +0.085 C 
ENDROOT
BRANCH   8  14
ATOM     14  C   UNL     1       3.592   0.063  -1.003  0.00  0.00    +0.089 C 
BRANCH  14   4
ATOM      1  O   UNL     1       6.512  -2.686   0.236  0.00  0.00    -0.377 OA
ATOM      4  N   UNL     1       4.368  -0.860  -0.176  0.00  0.00    -0.298 NA
ATOM     16  C   UNL     1       5.755  -0.397  -0.038  0.00  0.00    +0.112 C 
ATOM     17  C   UNL     1       4.343  -2.215  -0.744  0.00  0.00    +0.112 C 
ATOM     18  C   UNL     1       6.548  -1.381   0.817  0.00  0.00    +0.175 C 
ATOM     19  C   UNL     1       5.168  -3.157   0.129  0.00  0.00    +0.175 C 
ENDBRANCH  14   4
ENDBRANCH   8  14
BRANCH   9  15
ATOM     15  C   UNL     1      -0.569   1.089  -1.316  0.00  0.00    +0.124 C 
BRANCH  15   5
ATOM      2  O   UNL     1      -3.313   1.540  -0.631  0.00  0.00    -0.253 OA
ATOM      5  N   UNL     1      -1.562   0.077  -0.996  0.00  0.00    -0.298 N 
ATOM      6  N   UNL     1      -3.600  -0.780  -0.414  0.00  0.00    -0.269 N 
ATOM     20  C   UNL     1      -2.881   0.390  -0.673  0.00  0.00    +0.304 C 
ATOM     27  H   UNL     1      -1.276  -0.897  -1.005  0.00  0.00    +0.150 HD
ATOM     28  H   UNL     1      -3.090  -1.656  -0.492  0.00  0.00    +0.156 HD
BRANCH   6  21
ATOM     21  C   UNL     1      -4.963  -0.899  -0.054  0.00  0.00    +0.035 A 
ATOM     22  C   UNL     1      -5.517  -2.160   0.169  0.00  0.00    +0.023 A 
ATOM     23  C   UNL     1      -5.752   0.243   0.079  0.00  0.00    +0.023 A 
ATOM     24  C   UNL     1      -6.861  -2.279   0.523  0.00  0.00    +0.002 A 
ATOM     25  C   UNL     1      -7.096   0.124   0.433  0.00  0.00    +0.002 A 
ATOM     26  C   UNL     1      -7.650  -1.136   0.656  0.00  0.00    +0.000 A 
ENDBRANCH   6  21
ENDBRANCH  15   5
ENDBRANCH   9  15
TORSDOF 5
