REMARK  Name = 45361153
REMARK  7 active torsions:
REMARK  status: ('A' for Active; 'I' for Inactive)
REMARK    1  A    between atoms: N_4  and  C_20
REMARK    2  A    between atoms: N_5  and  C_19
REMARK    3  A    between atoms: N_8  and  C_29
REMARK    4  A    between atoms: C_14  and  C_18
REMARK    5  A    between atoms: C_18  and  C_21
REMARK    6  A    between atoms: C_19  and  C_22
REMARK    7  A    between atoms: C_21  and  C_23
REMARK                            x       y       z     vdW  Elec       q    Type
REMARK                         _______ _______ _______ _____ _____    ______ ____
ROOT
ATOM      2  O   UNL     1      -1.333   0.682   1.409  0.00  0.00    -0.274 OA
ATOM      4  N   UNL     1      -0.080  -2.085  -0.993  0.00  0.00    -0.296 NA
ATOM      5  N   UNL     1      -3.211  -0.348  -0.235  0.00  0.00    -0.284 NA
ATOM      6  N   UNL     1      -0.274  -1.313   1.780  0.00  0.00    -0.312 N 
ATOM     11  C   UNL     1      -1.555  -1.974  -0.948  0.00  0.00    +0.084 C 
ATOM     12  C   UNL     1      -2.210  -1.295   0.291  0.00  0.00    +0.161 C 
ATOM     13  C   UNL     1      -2.157  -1.165  -2.112  0.00  0.00    +0.036 C 
ATOM     14  C   UNL     1       0.507  -2.936   0.079  0.00  0.00    +0.074 C 
ATOM     15  C   UNL     1      -3.525  -0.769  -1.597  0.00  0.00    +0.087 C 
ATOM     16  C   UNL     1      -0.096  -2.720   1.481  0.00  0.00    +0.123 C 
ATOM     17  C   UNL     1      -1.246  -0.526   1.191  0.00  0.00    +0.232 C 
ATOM     20  C   UNL     1       0.369  -2.549  -2.317  0.00  0.00    +0.105 C 
ATOM     30  H   UNL     1       0.350  -0.877   2.451  0.00  0.00    +0.149 HD
ENDROOT
BRANCH  14  18
ATOM     18  C   UNL     1       2.028  -2.696   0.186  0.00  0.00    +0.029 C 
BRANCH  18  21
ATOM     21  C   UNL     1       2.367  -1.220   0.246  0.00  0.00    +0.097 C 
BRANCH  21  23
ATOM      3  O   UNL     1       4.603  -1.985   0.415  0.00  0.00    -0.276 OA
ATOM      7  N   UNL     1       4.290   0.317   0.441  0.00  0.00    -0.299 N 
ATOM      8  N   UNL     1       5.305   2.920  -0.195  0.00  0.00    -0.302 NA
ATOM     23  C   UNL     1       3.854  -1.006   0.376  0.00  0.00    +0.216 C 
ATOM     24  C   UNL     1       5.718   0.608   0.563  0.00  0.00    +0.123 C 
ATOM     25  C   UNL     1       3.420   1.493   0.531  0.00  0.00    +0.123 C 
ATOM     26  C   UNL     1       6.139   1.725  -0.390  0.00  0.00    +0.103 C 
ATOM     27  C   UNL     1       3.887   2.598  -0.418  0.00  0.00    +0.103 C 
ATOM     29  C   UNL     1       5.734   3.997  -1.085  0.00  0.00    +0.105 C 
ENDBRANCH  21  23
ENDBRANCH  18  21
ENDBRANCH  14  18
BRANCH   5  19
ATOM     19  C   UNL     1      -4.404  -0.248   0.596  0.00  0.00    +0.143 C 
BRANCH  19  22
ATOM      1  S   UNL     1      -6.830   2.860   0.080  0.00  0.00    +0.028 S 
ATOM      9  N   UNL     1      -4.425   2.165  -0.004  0.00  0.00    -0.145 NA
ATOM     10  N   UNL     1      -5.213   3.213  -0.181  0.00  0.00    -0.110 NA
ATOM     22  C   UNL     1      -5.149   1.039   0.355  0.00  0.00    +0.086 A 
ATOM     28  C   UNL     1      -6.514   1.217   0.456  0.00  0.00    +0.093 A 
ENDBRANCH  19  22
ENDBRANCH   5  19
TORSDOF 5
