REMARK  Name = 45361520
REMARK  11 active torsions:
REMARK  status: ('A' for Active; 'I' for Inactive)
REMARK    1  A    between atoms: O_1  and  C_10
REMARK    2  A    between atoms: N_5  and  C_14
REMARK    3  A    between atoms: N_6  and  C_24
REMARK    4  A    between atoms: C_7  and  C_17
REMARK    5  A    between atoms: C_9  and  C_19
REMARK    6  A    between atoms: C_13  and  C_18
REMARK    7  A    between atoms: C_18  and  C_20
REMARK    8  A    between atoms: C_18  and  C_21
REMARK    9  A    between atoms: C_22  and  C_23
REMARK   10  A    between atoms: C_23  and  C_25
REMARK   11  A    between atoms: C_24  and  C_26
REMARK                            x       y       z     vdW  Elec       q    Type
REMARK                         _______ _______ _______ _____ _____    ______ ____
ROOT
ATOM      7  C   UNL     1      -0.514  -0.806  -1.765  0.00  0.00    -0.027 C 
ATOM      8  C   UNL     1      -0.096  -0.592  -0.272  0.00  0.00    +0.028 C 
ATOM      9  C   UNL     1       1.414  -0.966  -0.055  0.00  0.00    +0.012 C 
ATOM     10  C   UNL     1      -1.101  -1.277   0.698  0.00  0.00    +0.122 C 
ATOM     11  C   UNL     1      -1.969  -0.322  -1.968  0.00  0.00    +0.007 C 
ATOM     12  C   UNL     1       0.398   0.053  -2.672  0.00  0.00    +0.009 C 
ATOM     13  C   UNL     1      -2.567  -0.869   0.422  0.00  0.00    +0.029 C 
ATOM     14  C   UNL     1       2.316  -0.151  -1.024  0.00  0.00    +0.076 C 
ATOM     15  C   UNL     1      -2.961  -1.020  -1.047  0.00  0.00    +0.007 C 
ATOM     16  C   UNL     1       1.879  -0.247  -2.486  0.00  0.00    +0.023 C 
ATOM     17  C   UNL     1      -0.416  -2.289  -2.202  0.00  0.00    +0.011 C 
ATOM     19  C   UNL     1       1.901  -0.751   1.388  0.00  0.00    +0.010 C 
ENDROOT
BRANCH  14   5
ATOM      3  O   UNL     1       4.626   1.523  -1.405  0.00  0.00    -0.275 OA
ATOM      5  N   UNL     1       3.703  -0.554  -0.933  0.00  0.00    -0.312 N 
ATOM     22  C   UNL     1       4.750   0.332  -1.134  0.00  0.00    +0.218 C 
ATOM     35  H   UNL     1       3.898  -1.538  -0.777  0.00  0.00    +0.149 HD
BRANCH  22  23
ATOM     23  C   UNL     1       6.093  -0.354  -0.973  0.00  0.00    +0.130 C 
BRANCH  23  25
ATOM     25  C   UNL     1       6.937   0.238   0.125  0.00  0.00    -0.039 A 
ATOM     27  C   UNL     1       7.817   1.283  -0.158  0.00  0.00    +0.004 A 
ATOM     28  C   UNL     1       6.840  -0.258   1.425  0.00  0.00    +0.004 A 
ATOM     30  C   UNL     1       8.599   1.832   0.858  0.00  0.00    +0.000 A 
ATOM     31  C   UNL     1       7.621   0.291   2.442  0.00  0.00    +0.000 A 
ATOM     32  C   UNL     1       8.501   1.336   2.158  0.00  0.00    +0.000 A 
ENDBRANCH  23  25
ENDBRANCH  22  23
ENDBRANCH  14   5
BRANCH  10   1
ATOM      1  O   UNL     1      -0.813  -0.882   2.040  0.00  0.00    -0.391 OA
ATOM     36  H   UNL     1      -0.898   0.085   2.095  0.00  0.00    +0.210 HD
ENDBRANCH  10   1
BRANCH  13  18
ATOM     18  C   UNL     1      -3.550  -1.653   1.300  0.00  0.00    +0.077 C 
ATOM     20  C   UNL     1      -3.408  -3.148   1.040  0.00  0.00    +0.017 C 
BRANCH  18  21
ATOM      2  O   UNL     1      -5.705  -1.694   0.196  0.00  0.00    -0.276 OA
ATOM      6  N   UNL     1      -5.335  -0.108   1.847  0.00  0.00    -0.308 N 
ATOM     21  C   UNL     1      -4.975  -1.175   1.038  0.00  0.00    +0.217 C 
ATOM     37  H   UNL     1      -4.657   0.278   2.497  0.00  0.00    +0.149 HD
BRANCH   6  24
ATOM     24  C   UNL     1      -6.635   0.519   1.781  0.00  0.00    +0.178 C 
BRANCH  24  26
ATOM      4  O   UNL     1      -6.400   1.263  -0.521  0.00  0.00    -0.466 OA
ATOM     26  C   UNL     1      -6.678   1.619   0.761  0.00  0.00    +0.122 A 
ATOM     29  C   UNL     1      -6.949   2.966   0.840  0.00  0.00    +0.046 A 
ATOM     33  C   UNL     1      -6.829   3.469  -0.477  0.00  0.00    +0.041 A 
ATOM     34  C   UNL     1      -6.494   2.394  -1.268  0.00  0.00    +0.195 A 
ENDBRANCH  24  26
ENDBRANCH   6  24
ENDBRANCH  18  21
ENDBRANCH  13  18
TORSDOF 8
