REMARK  Name = 26743314
REMARK  11 active torsions:
REMARK  status: ('A' for Active; 'I' for Inactive)
REMARK    1  A    between atoms: N_6  and  C_19
REMARK    2  A    between atoms: C_8  and  C_14
REMARK    3  A    between atoms: C_9  and  C_13
REMARK    4  A    between atoms: C_13  and  C_15
REMARK    5  A    between atoms: C_14  and  C_16
REMARK    6  A    between atoms: C_18  and  C_20
REMARK    7  A    between atoms: C_19  and  C_23
REMARK    8  A    between atoms: C_21  and  C_22
REMARK    9  A    between atoms: C_21  and  C_28
REMARK   10  A    between atoms: C_21  and  C_29
REMARK   11  A    between atoms: C_21  and  C_30
REMARK                            x       y       z     vdW  Elec       q    Type
REMARK                         _______ _______ _______ _____ _____    ______ ____
ROOT
ATOM      5  N   UNL     1       6.379  -2.355   0.502  0.00  0.00    -0.316 NA
ATOM      8  C   UNL     1       3.981  -0.635   0.526  0.00  0.00    +0.004 C 
ATOM      9  C   UNL     1       4.230  -1.707  -0.561  0.00  0.00    +0.012 C 
ATOM     10  C   UNL     1       4.753  -1.022   1.799  0.00  0.00    +0.019 C 
ATOM     11  C   UNL     1       5.731  -1.981  -0.756  0.00  0.00    +0.085 C 
ATOM     12  C   UNL     1       6.226  -1.319   1.521  0.00  0.00    +0.081 C 
ATOM     37  H   UNL     1       7.371  -2.520   0.334  0.00  0.00    +0.122 HD
ENDROOT
BRANCH   9  13
ATOM     13  C   UNL     1       3.568  -1.370  -1.898  0.00  0.00    +0.064 C 
BRANCH  13  15
ATOM      1  O   UNL     1       0.100  -0.433  -2.145  0.00  0.00    -0.354 OA
ATOM      7  N   UNL     1       1.426  -0.359  -2.554  0.00  0.00    -0.083 NA
ATOM     15  C   UNL     1       2.085  -1.193  -1.744  0.00  0.00    +0.085 A 
ATOM     17  C   UNL     1       1.235  -1.816  -0.814  0.00  0.00    +0.076 A 
ATOM     18  C   UNL     1      -0.001  -1.304  -1.109  0.00  0.00    +0.167 A 
BRANCH  18  20
ATOM     20  C   UNL     1      -1.320  -1.486  -0.577  0.00  0.00    +0.020 A 
ATOM     22  C   UNL     1      -3.887  -1.839   0.458  0.00  0.00    -0.042 A 
ATOM     24  C   UNL     1      -1.492  -1.803   0.771  0.00  0.00    +0.012 A 
ATOM     25  C   UNL     1      -2.433  -1.345  -1.407  0.00  0.00    +0.012 A 
ATOM     26  C   UNL     1      -2.775  -1.979   1.288  0.00  0.00    +0.005 A 
ATOM     27  C   UNL     1      -3.716  -1.522  -0.889  0.00  0.00    +0.005 A 
BRANCH  22  21
ATOM     21  C   UNL     1      -5.259  -2.027   1.012  0.00  0.00    -0.013 C 
ATOM     28  C   UNL     1      -6.427  -1.846  -0.013  0.00  0.00    +0.015 C 
ATOM     29  C   UNL     1      -5.551  -1.011   2.158  0.00  0.00    +0.015 C 
ATOM     30  C   UNL     1      -5.440  -3.462   1.597  0.00  0.00    +0.015 C 
ENDBRANCH  22  21
ENDBRANCH  18  20
ENDBRANCH  13  15
ENDBRANCH   9  13
BRANCH   8  14
ATOM     14  C   UNL     1       4.334   0.792   0.088  0.00  0.00    +0.099 C 
BRANCH  14  16
ATOM      2  O   UNL     1       4.106   2.300   1.965  0.00  0.00    -0.276 OA
ATOM      6  N   UNL     1       2.415   2.194   0.375  0.00  0.00    -0.311 N 
ATOM     16  C   UNL     1       3.636   1.839   0.929  0.00  0.00    +0.214 C 
ATOM     38  H   UNL     1       2.137   1.784  -0.513  0.00  0.00    +0.149 HD
BRANCH   6  19
ATOM     19  C   UNL     1       1.533   3.173   0.969  0.00  0.00    +0.139 C 
BRANCH  19  23
ATOM      3  O   UNL     1      -2.419   3.080  -2.002  0.00  0.00    -0.453 OA
ATOM      4  O   UNL     1      -3.832   2.145  -0.289  0.00  0.00    -0.453 OA
ATOM     23  C   UNL     1       0.091   2.887   0.668  0.00  0.00    -0.027 A 
ATOM     31  C   UNL     1      -0.420   3.161  -0.604  0.00  0.00    +0.054 A 
ATOM     32  C   UNL     1      -0.734   2.341   1.667  0.00  0.00    +0.009 A 
ATOM     33  C   UNL     1      -1.751   2.879  -0.834  0.00  0.00    +0.167 A 
ATOM     34  C   UNL     1      -2.078   2.065   1.408  0.00  0.00    +0.050 A 
ATOM     35  C   UNL     1      -2.558   2.345   0.145  0.00  0.00    +0.166 A 
ATOM     36  C   UNL     1      -3.737   2.612  -1.650  0.00  0.00    +0.466 C 
ENDBRANCH  19  23
ENDBRANCH   6  19
ENDBRANCH  14  16
ENDBRANCH   8  14
TORSDOF 8
