REMARK  Name = 11886088
REMARK  9 active torsions:
REMARK  status: ('A' for Active; 'I' for Inactive)
REMARK    1  A    between atoms: O_3  and  C_16
REMARK    2  A    between atoms: O_3  and  C_21
REMARK    3  A    between atoms: N_7  and  C_15
REMARK    4  A    between atoms: N_11  and  C_32
REMARK    5  A    between atoms: N_12  and  C_25
REMARK    6  A    between atoms: C_19  and  C_20
REMARK    7  A    between atoms: C_24  and  C_25
REMARK    8  A    between atoms: C_37  and  C_38
REMARK    9  A    between atoms: C_38  and  C_39
REMARK                            x       y       z     vdW  Elec       q    Type
REMARK                         _______ _______ _______ _____ _____    ______ ____
ROOT
ATOM      1  O   UNL     1       2.459  -3.790  -0.408  0.00  0.00    -0.368 OA
ATOM      2  O   UNL     1       2.829  -1.133   1.822  0.00  0.00    -0.368 OA
ATOM     13  C   UNL     1       3.447  -2.075   0.939  0.00  0.00    +0.177 C 
ATOM     14  C   UNL     1       2.595  -3.330   0.934  0.00  0.00    +0.192 C 
ATOM     15  C   UNL     1       3.405  -1.617  -0.510  0.00  0.00    +0.168 C 
ATOM     16  C   UNL     1       1.283  -2.885   1.549  0.00  0.00    +0.235 C 
ATOM     17  C   UNL     1       3.235  -2.933  -1.261  0.00  0.00    +0.190 C 
ATOM     18  C   UNL     1       1.747  -1.799   2.498  0.00  0.00    +0.207 C 
ENDROOT
BRANCH  15   7
ATOM      7  N   UNL     1       4.537  -0.807  -0.935  0.00  0.00    -0.217 N 
ATOM      8  N   UNL     1       5.650  -1.381  -1.412  0.00  0.00    -0.043 NA
ATOM      9  N   UNL     1       5.871   0.837  -1.405  0.00  0.00    -0.108 NA
ATOM     10  N   UNL     1       6.462  -0.371  -1.698  0.00  0.00    -0.023 NA
ATOM     19  C   UNL     1       4.681   0.544  -0.934  0.00  0.00    +0.182 A 
BRANCH  19  20
ATOM     20  C   UNL     1       3.674   1.471  -0.484  0.00  0.00    +0.021 A 
ATOM     22  C   UNL     1       2.733   1.970  -1.385  0.00  0.00    +0.012 A 
ATOM     23  C   UNL     1       3.641   1.870   0.852  0.00  0.00    +0.012 A 
ATOM     24  C   UNL     1       1.725   3.266   0.387  0.00  0.00    -0.033 A 
ATOM     26  C   UNL     1       1.758   2.867  -0.949  0.00  0.00    +0.005 A 
ATOM     27  C   UNL     1       2.666   2.768   1.288  0.00  0.00    +0.005 A 
BRANCH  24  25
ATOM     25  C   UNL     1       0.682   4.226   0.853  0.00  0.00    +0.119 C 
BRANCH  25  12
ATOM      5  O   UNL     1      -3.463   3.605   0.645  0.00  0.00    -0.377 OA
ATOM     12  N   UNL     1      -0.647   3.893   0.346  0.00  0.00    -0.294 NA
ATOM     28  C   UNL     1      -1.230   2.776   1.103  0.00  0.00    +0.113 C 
ATOM     29  C   UNL     1      -1.537   5.061   0.408  0.00  0.00    +0.113 C 
ATOM     30  C   UNL     1      -2.621   2.455   0.564  0.00  0.00    +0.175 C 
ATOM     31  C   UNL     1      -2.921   4.686  -0.114  0.00  0.00    +0.175 C 
ENDBRANCH  25  12
ENDBRANCH  24  25
ENDBRANCH  19  20
ENDBRANCH  15   7
BRANCH  16   3
ATOM      3  O   UNL     1       0.431  -2.310   0.564  0.00  0.00    -0.442 OA
BRANCH   3  21
ATOM      4  O   UNL     1      -1.397  -2.828   1.837  0.00  0.00    -0.226 OA
ATOM     11  N   UNL     1      -1.604  -1.743  -0.227  0.00  0.00    -0.251 N 
ATOM     21  C   UNL     1      -0.924  -2.338   0.819  0.00  0.00    +0.405 C 
ATOM     40  H   UNL     1      -1.033  -1.390  -0.991  0.00  0.00    +0.158 HD
BRANCH  11  32
ATOM     32  C   UNL     1      -2.998  -1.562  -0.368  0.00  0.00    +0.036 A 
ATOM     33  C   UNL     1      -3.509  -0.934  -1.504  0.00  0.00    +0.024 A 
ATOM     34  C   UNL     1      -3.864  -2.011   0.630  0.00  0.00    +0.024 A 
ATOM     35  C   UNL     1      -4.885  -0.755  -1.642  0.00  0.00    +0.013 A 
ATOM     36  C   UNL     1      -5.241  -1.832   0.491  0.00  0.00    +0.013 A 
ATOM     37  C   UNL     1      -5.751  -1.204  -0.645  0.00  0.00    +0.017 A 
BRANCH  37  38
ATOM      6  O   UNL     1      -8.001  -1.815  -0.286  0.00  0.00    -0.292 OA
ATOM     38  C   UNL     1      -7.186  -1.017  -0.790  0.00  0.00    +0.160 C 
ATOM     39  C   UNL     1      -7.731   0.173  -1.572  0.00  0.00    +0.091 C 
ENDBRANCH  37  38
ENDBRANCH  11  32
ENDBRANCH   3  21
ENDBRANCH  16   3
TORSDOF 8
