REMARK  Name = 75536125
REMARK  7 active torsions:
REMARK  status: ('A' for Active; 'I' for Inactive)
REMARK    1  A    between atoms: O_2  and  C_10
REMARK    2  A    between atoms: O_3  and  C_12
REMARK    3  A    between atoms: N_5  and  C_9
REMARK    4  A    between atoms: N_5  and  C_14
REMARK    5  A    between atoms: N_7  and  C_18
REMARK    6  A    between atoms: C_8  and  C_13
REMARK    7  A    between atoms: C_14  and  C_19
REMARK                            x       y       z     vdW  Elec       q    Type
REMARK                         _______ _______ _______ _____ _____    ______ ____
ROOT
ATOM      8  C   UNL     1       0.370  -1.673   0.690  0.00  0.00    +0.042 C 
ATOM      9  C   UNL     1       1.258  -1.767  -0.590  0.00  0.00    +0.093 C 
ATOM     10  C   UNL     1       1.548  -3.266  -0.767  0.00  0.00    +0.160 C 
ATOM     11  C   UNL     1       0.206  -3.119   1.196  0.00  0.00    +0.043 C 
ATOM     12  C   UNL     1       1.432  -3.834   0.644  0.00  0.00    +0.145 C 
ENDROOT
BRANCH   8  13
ATOM      6  N   UNL     1      -2.438   0.849   1.060  0.00  0.00    -0.240 NA
ATOM     13  C   UNL     1      -0.949  -0.963   0.475  0.00  0.00    -0.024 A 
ATOM     15  C   UNL     1      -1.871  -1.428  -0.457  0.00  0.00    +0.009 A 
ATOM     16  C   UNL     1      -1.278   0.170   1.202  0.00  0.00    +0.116 A 
ATOM     17  C   UNL     1      -3.075  -0.756  -0.631  0.00  0.00    +0.044 A 
ATOM     18  C   UNL     1      -3.309   0.367   0.145  0.00  0.00    +0.121 A 
BRANCH  18   7
ATOM      4  O   UNL     1      -6.968   2.420  -0.139  0.00  0.00    -0.377 OA
ATOM      7  N   UNL     1      -4.525   1.032  -0.040  0.00  0.00    -0.311 N 
ATOM     20  C   UNL     1      -4.566   2.482   0.196  0.00  0.00    +0.134 C 
ATOM     21  C   UNL     1      -5.789   0.325   0.195  0.00  0.00    +0.134 C 
ATOM     24  C   UNL     1      -5.766   3.087  -0.523  0.00  0.00    +0.178 C 
ATOM     25  C   UNL     1      -6.924   1.046  -0.524  0.00  0.00    +0.178 C 
ENDBRANCH  18   7
ENDBRANCH   8  13
BRANCH  10   2
ATOM      2  O   UNL     1       0.546  -3.820  -1.618  0.00  0.00    -0.388 OA
ATOM     30  H   UNL     1       0.654  -3.417  -2.497  0.00  0.00    +0.210 HD
ENDBRANCH  10   2
BRANCH  12   3
ATOM      3  O   UNL     1       1.259  -5.236   0.655  0.00  0.00    -0.389 OA
ATOM     31  H   UNL     1       1.103  -5.505   1.576  0.00  0.00    +0.210 HD
ENDBRANCH  12   3
BRANCH   9   5
ATOM      5  N   UNL     1       2.510  -1.040  -0.372  0.00  0.00    -0.306 NA
ATOM     29  H   UNL     1       3.204  -1.357  -1.050  0.00  0.00    +0.123 HD
BRANCH   5  14
ATOM     14  C   UNL     1       2.315   0.393  -0.542  0.00  0.00    +0.116 C 
BRANCH  14  19
ATOM      1 CL   UNL     1       7.405   3.468   0.369  0.00  0.00    -0.084 Cl
ATOM     19  C   UNL     1       3.588   1.163  -0.315  0.00  0.00    -0.033 A 
ATOM     22  C   UNL     1       3.907   1.622   0.964  0.00  0.00    +0.006 A 
ATOM     23  C   UNL     1       4.450   1.418  -1.382  0.00  0.00    +0.006 A 
ATOM     26  C   UNL     1       5.087   2.336   1.175  0.00  0.00    +0.020 A 
ATOM     27  C   UNL     1       5.630   2.132  -1.171  0.00  0.00    +0.020 A 
ATOM     28  C   UNL     1       5.948   2.591   0.107  0.00  0.00    +0.041 A 
ENDBRANCH  14  19
ENDBRANCH   5  14
ENDBRANCH   9   5
TORSDOF 7
