REMARK  Name = 11912902
REMARK  8 active torsions:
REMARK  status: ('A' for Active; 'I' for Inactive)
REMARK    1  A    between atoms: S_1  and  C_20
REMARK    2  A    between atoms: S_1  and  C_25
REMARK    3  A    between atoms: O_6  and  C_27
REMARK    4  A    between atoms: N_8  and  C_14
REMARK    5  A    between atoms: N_9  and  C_15
REMARK    6  A    between atoms: C_18  and  C_20
REMARK    7  A    between atoms: C_21  and  C_24
REMARK    8  A    between atoms: C_25  and  C_27
REMARK                            x       y       z     vdW  Elec       q    Type
REMARK                         _______ _______ _______ _____ _____    ______ ____
ROOT
ATOM      3  O   UNL     1      -0.204   2.405   1.122  0.00  0.00    -0.370 OA
ATOM      4  O   UNL     1      -1.484   2.810  -1.695  0.00  0.00    -0.370 OA
ATOM     12  C   UNL     1      -1.644   1.810  -0.675  0.00  0.00    +0.171 C 
ATOM     13  C   UNL     1      -0.281   1.578  -0.052  0.00  0.00    +0.171 C 
ATOM     14  C   UNL     1      -2.482   2.348   0.462  0.00  0.00    +0.130 C 
ATOM     15  C   UNL     1       0.692   2.064  -1.100  0.00  0.00    +0.130 C 
ATOM     16  C   UNL     1      -1.455   3.085   1.303  0.00  0.00    +0.185 C 
ATOM     17  C   UNL     1      -0.095   3.154  -1.805  0.00  0.00    +0.185 C 
ENDROOT
BRANCH  15   9
ATOM      9  N   UNL     1       1.000   0.993  -2.022  0.00  0.00    -0.306 N 
ATOM     10  N   UNL     1       2.670   0.157  -0.641  0.00  0.00    -0.214 NA
ATOM     11  N   UNL     1       2.149  -0.890  -2.748  0.00  0.00    -0.223 NA
ATOM     19  C   UNL     1       1.983   0.046  -1.794  0.00  0.00    +0.216 A 
ATOM     21  C   UNL     1       3.619  -0.783  -0.451  0.00  0.00    +0.083 A 
ATOM     22  C   UNL     1       3.114  -1.798  -2.493  0.00  0.00    +0.116 A 
ATOM     23  C   UNL     1       3.888  -1.794  -1.351  0.00  0.00    +0.049 A 
ATOM     31  H   UNL     1       0.444   0.884  -2.863  0.00  0.00    +0.149 HD
BRANCH  21  24
ATOM      2  S   UNL     1       4.573   0.898   1.459  0.00  0.00    -0.095 S 
ATOM     24  C   UNL     1       4.351  -0.659   0.781  0.00  0.00    +0.038 A 
ATOM     26  C   UNL     1       4.934  -1.644   1.547  0.00  0.00    +0.017 A 
ATOM     28  C   UNL     1       5.572  -1.114   2.705  0.00  0.00    +0.008 A 
ATOM     29  C   UNL     1       5.452   0.256   2.781  0.00  0.00    +0.046 A 
ENDBRANCH  21  24
ENDBRANCH  15   9
BRANCH  14   8
ATOM      5  O   UNL     1      -5.142   1.264   0.100  0.00  0.00    -0.275 OA
ATOM      8  N   UNL     1      -3.099   1.278   1.208  0.00  0.00    -0.307 N 
ATOM     18  C   UNL     1      -4.386   0.823   0.963  0.00  0.00    +0.223 C 
ATOM     30  H   UNL     1      -2.534   0.805   1.909  0.00  0.00    +0.149 HD
BRANCH  18  20
ATOM     20  C   UNL     1      -4.806  -0.293   1.892  0.00  0.00    +0.165 C 
BRANCH  20   1
ATOM      1  S   UNL     1      -5.168  -1.768   0.911  0.00  0.00    -0.140 S 
BRANCH   1  25
ATOM     25  C   UNL     1      -3.472  -2.342   0.652  0.00  0.00    +0.189 C 
BRANCH  25  27
ATOM      7  O   UNL     1      -4.350  -3.865  -0.998  0.00  0.00    -0.250 OA
ATOM     27  C   UNL     1      -3.491  -3.602  -0.166  0.00  0.00    +0.315 C 
BRANCH  27   6
ATOM      6  O   UNL     1      -2.440  -4.417   0.104  0.00  0.00    -0.480 OA
ATOM     32  H   UNL     1      -2.460  -5.232  -0.442  0.00  0.00    +0.295 HD
ENDBRANCH  27   6
ENDBRANCH  25  27
ENDBRANCH   1  25
ENDBRANCH  20   1
ENDBRANCH  18  20
ENDBRANCH  14   8
TORSDOF 8
