REMARK  Name = 75536604
REMARK  9 active torsions:
REMARK  status: ('A' for Active; 'I' for Inactive)
REMARK    1  A    between atoms: S_1  and  C_20
REMARK    2  A    between atoms: S_1  and  C_24
REMARK    3  A    between atoms: O_4  and  C_11
REMARK    4  A    between atoms: N_8  and  C_10
REMARK    5  A    between atoms: N_8  and  C_15
REMARK    6  A    between atoms: N_9  and  C_14
REMARK    7  A    between atoms: C_12  and  C_14
REMARK    8  A    between atoms: C_15  and  C_16
REMARK    9  A    between atoms: C_17  and  C_23
REMARK                            x       y       z     vdW  Elec       q    Type
REMARK                         _______ _______ _______ _____ _____    ______ ____
ROOT
ATOM      3  O   UNL     1      -4.414  -0.677   0.563  0.00  0.00    -0.371 OA
ATOM     10  C   UNL     1      -3.334   1.411   0.842  0.00  0.00    +0.111 C 
ATOM     11  C   UNL     1      -3.752   1.292  -0.613  0.00  0.00    +0.164 C 
ATOM     12  C   UNL     1      -4.235  -0.150  -0.765  0.00  0.00    +0.165 C 
ATOM     13  C   UNL     1      -4.233   0.383   1.509  0.00  0.00    +0.181 C 
ENDROOT
BRANCH  11   4
ATOM      4  O   UNL     1      -4.853   2.178  -0.824  0.00  0.00    -0.388 OA
ATOM     29  H   UNL     1      -5.134   2.077  -1.749  0.00  0.00    +0.210 HD
ENDBRANCH  11   4
BRANCH  10   8
ATOM      8  N   UNL     1      -1.926   1.065   1.029  0.00  0.00    -0.305 NA
ATOM     28  H   UNL     1      -1.769   0.706   1.970  0.00  0.00    +0.123 HD
BRANCH   8  15
ATOM     15  C   UNL     1      -1.069   2.226   0.818  0.00  0.00    +0.116 C 
BRANCH  15  16
ATOM     16  C   UNL     1       0.350   1.826   0.510  0.00  0.00    -0.033 A 
ATOM     18  C   UNL     1       1.188   1.386   1.534  0.00  0.00    +0.007 A 
ATOM     19  C   UNL     1       0.825   1.895  -0.800  0.00  0.00    +0.007 A 
ATOM     20  C   UNL     1       2.978   1.085  -0.060  0.00  0.00    +0.088 A 
ATOM     21  C   UNL     1       2.502   1.016   1.249  0.00  0.00    +0.027 A 
ATOM     22  C   UNL     1       2.139   1.525  -1.085  0.00  0.00    +0.027 A 
BRANCH  20   1
ATOM      1  S   UNL     1       4.622   0.618  -0.417  0.00  0.00    -0.006 S 
ATOM      6  O   UNL     1       5.086  -0.300   0.614  0.00  0.00    -0.170 OA
ATOM      7  O   UNL     1       4.682   0.222  -1.817  0.00  0.00    -0.170 OA
ATOM     24  C   UNL     1       5.558   2.119  -0.233  0.00  0.00    +0.200 C 
ENDBRANCH  20   1
ENDBRANCH  15  16
ENDBRANCH   8  15
ENDBRANCH  10   8
BRANCH  12  14
ATOM     14  C   UNL     1      -3.253  -1.045  -1.506  0.00  0.00    +0.138 C 
BRANCH  14   9
ATOM      5  O   UNL     1      -0.559  -1.666  -2.282  0.00  0.00    -0.270 OA
ATOM      9  N   UNL     1      -2.193  -1.482  -0.644  0.00  0.00    -0.308 N 
ATOM     17  C   UNL     1      -0.911  -1.762  -1.109  0.00  0.00    +0.251 C 
ATOM     30  H   UNL     1      -2.427  -1.659   0.327  0.00  0.00    +0.149 HD
BRANCH  17  23
ATOM      2  S   UNL     1       1.667  -2.596  -0.584  0.00  0.00    -0.092 S 
ATOM     23  C   UNL     1       0.067  -2.231  -0.094  0.00  0.00    +0.074 A 
ATOM     25  C   UNL     1      -0.118  -2.429   1.257  0.00  0.00    +0.021 A 
ATOM     26  C   UNL     1       1.070  -2.887   1.898  0.00  0.00    +0.008 A 
ATOM     27  C   UNL     1       2.116  -3.022   1.012  0.00  0.00    +0.046 A 
ENDBRANCH  17  23
ENDBRANCH  14   9
ENDBRANCH  12  14
TORSDOF 8
