REMARK  Name = 75536897
REMARK  5 active torsions:
REMARK  status: ('A' for Active; 'I' for Inactive)
REMARK    1  A    between atoms: O_5  and  C_12
REMARK    2  A    between atoms: O_5  and  C_21
REMARK    3  A    between atoms: C_16  and  C_17
REMARK    4  A    between atoms: C_18  and  C_22
REMARK    5  A    between atoms: C_20  and  C_23
REMARK                            x       y       z     vdW  Elec       q    Type
REMARK                         _______ _______ _______ _____ _____    ______ ____
ROOT
ATOM      4  O   UNL     1      -1.679  -2.854  -0.444  0.00  0.00    -0.375 OA
ATOM      7  O   UNL     1       2.669  -1.873   1.413  0.00  0.00    -0.270 OA
ATOM      8  N   UNL     1       0.469  -1.142   1.065  0.00  0.00    -0.292 N 
ATOM     11  C   UNL     1      -0.444  -0.063   0.670  0.00  0.00    +0.155 C 
ATOM     12  C   UNL     1      -1.811  -0.485   0.125  0.00  0.00    +0.218 C 
ATOM     13  C   UNL     1      -0.099  -2.453   1.383  0.00  0.00    +0.136 C 
ATOM     14  C   UNL     1      -1.720  -1.536  -0.980  0.00  0.00    +0.206 C 
ATOM     15  C   UNL     1      -0.424  -3.231   0.115  0.00  0.00    +0.179 C 
ATOM     16  C   UNL     1       1.865  -0.990   1.118  0.00  0.00    +0.250 C 
ENDROOT
BRANCH  16  17
ATOM      6  O   UNL     1       3.653   1.908  -0.239  0.00  0.00    -0.455 OA
ATOM     17  C   UNL     1       2.436   0.329   0.799  0.00  0.00    +0.087 A 
ATOM     18  C   UNL     1       3.324   0.589  -0.219  0.00  0.00    +0.220 A 
ATOM     19  C   UNL     1       2.205   1.566   1.446  0.00  0.00    +0.058 A 
ATOM     20  C   UNL     1       2.968   2.495   0.777  0.00  0.00    +0.103 A 
ATOM     23  C   UNL     1       3.170   3.941   0.946  0.00  0.00    +0.086 C 
BRANCH  18  22
ATOM      1  F   UNL     1       3.676   0.124  -2.539  0.00  0.00    -0.163 F 
ATOM      2  F   UNL     1       5.332  -0.268  -1.194  0.00  0.00    -0.163 F 
ATOM      3  F   UNL     1       3.591  -1.570  -1.178  0.00  0.00    -0.163 F 
ATOM     22  C   UNL     1       3.959  -0.249  -1.247  0.00  0.00    +0.451 C 
ENDBRANCH  18  22
ENDBRANCH  16  17
BRANCH  12   5
ATOM      5  O   UNL     1      -2.426   0.692  -0.401  0.00  0.00    -0.468 OA
BRANCH   5  21
ATOM      9  N   UNL     1      -4.435  -0.276   0.257  0.00  0.00    -0.219 NA
ATOM     10  N   UNL     1      -5.803   1.966  -0.729  0.00  0.00    -0.256 NA
ATOM     21  C   UNL     1      -3.789   0.761  -0.314  0.00  0.00    +0.234 A 
ATOM     24  C   UNL     1      -4.461   1.862  -0.797  0.00  0.00    +0.177 A 
ATOM     25  C   UNL     1      -5.777  -0.172   0.325  0.00  0.00    +0.134 A 
ATOM     26  C   UNL     1      -6.449   0.929  -0.159  0.00  0.00    +0.130 A 
ENDBRANCH   5  21
ENDBRANCH  12   5
TORSDOF 4
