REMARK  Name = 45360959
REMARK  8 active torsions:
REMARK  status: ('A' for Active; 'I' for Inactive)
REMARK    1  A    between atoms: N_3  and  C_18
REMARK    2  A    between atoms: N_4  and  C_16
REMARK    3  A    between atoms: N_8  and  C_24
REMARK    4  A    between atoms: C_13  and  C_17
REMARK    5  A    between atoms: C_16  and  C_20
REMARK    6  A    between atoms: C_17  and  C_19
REMARK    7  A    between atoms: C_19  and  C_21
REMARK    8  A    between atoms: C_24  and  C_25
REMARK                            x       y       z     vdW  Elec       q    Type
REMARK                         _______ _______ _______ _____ _____    ______ ____
ROOT
ATOM      1  O   UNL     1       2.467  -1.827  -0.881  0.00  0.00    -0.274 OA
ATOM      3  N   UNL     1       1.064   1.737  -0.316  0.00  0.00    -0.296 NA
ATOM      4  N   UNL     1       4.237  -0.038   0.098  0.00  0.00    -0.283 NA
ATOM      5  N   UNL     1       0.696  -1.048   0.341  0.00  0.00    -0.312 N 
ATOM      9  C   UNL     1       2.393   1.528   0.299  0.00  0.00    +0.084 C 
ATOM     10  C   UNL     1       2.853   0.070   0.595  0.00  0.00    +0.161 C 
ATOM     11  C   UNL     1       3.564   2.068  -0.544  0.00  0.00    +0.036 C 
ATOM     12  C   UNL     1       4.763   1.319  -0.002  0.00  0.00    +0.087 C 
ATOM     13  C   UNL     1      -0.082   1.296   0.528  0.00  0.00    +0.074 C 
ATOM     14  C   UNL     1       2.015  -1.018  -0.071  0.00  0.00    +0.232 C 
ATOM     15  C   UNL     1       0.114  -0.062   1.230  0.00  0.00    +0.123 C 
ATOM     18  C   UNL     1       0.889   3.143  -0.720  0.00  0.00    +0.105 C 
ATOM     31  H   UNL     1       0.089  -1.764  -0.047  0.00  0.00    +0.149 HD
ENDROOT
BRANCH   4  16
ATOM     16  C   UNL     1       5.081  -0.893   0.922  0.00  0.00    +0.159 C 
BRANCH  16  20
ATOM      6  N   UNL     1       6.745  -1.784  -0.721  0.00  0.00    -0.347 N 
ATOM      7  N   UNL     1       7.554  -0.418   0.832  0.00  0.00    -0.239 NA
ATOM     20  C   UNL     1       6.473  -1.008   0.372  0.00  0.00    +0.121 A 
ATOM     22  C   UNL     1       8.084  -1.682  -0.973  0.00  0.00    +0.104 A 
ATOM     23  C   UNL     1       8.562  -0.834  -0.001  0.00  0.00    +0.130 A 
ATOM     32  H   UNL     1       6.078  -2.332  -1.248  0.00  0.00    +0.167 HD
ENDBRANCH  16  20
ENDBRANCH   4  16
BRANCH  13  17
ATOM     17  C   UNL     1      -1.369   1.200  -0.317  0.00  0.00    +0.029 C 
BRANCH  17  19
ATOM     19  C   UNL     1      -2.599   1.347   0.559  0.00  0.00    +0.097 C 
BRANCH  19  21
ATOM      2  O   UNL     1      -3.897   1.083  -1.468  0.00  0.00    -0.276 OA
ATOM      8  N   UNL     1      -5.003   1.388   0.550  0.00  0.00    -0.311 N 
ATOM     21  C   UNL     1      -3.879   1.254  -0.252  0.00  0.00    +0.213 C 
ATOM     33  H   UNL     1      -4.893   1.510   1.553  0.00  0.00    +0.149 HD
BRANCH   8  24
ATOM     24  C   UNL     1      -6.343   1.337   0.014  0.00  0.00    +0.139 C 
BRANCH  24  25
ATOM     25  C   UNL     1      -6.889  -0.061   0.000  0.00  0.00    -0.030 A 
ATOM     26  C   UNL     1      -6.693  -0.875  -1.115  0.00  0.00    +0.005 A 
ATOM     27  C   UNL     1      -7.593  -0.546   1.103  0.00  0.00    +0.005 A 
ATOM     28  C   UNL     1      -7.201  -2.175  -1.128  0.00  0.00    +0.000 A 
ATOM     29  C   UNL     1      -8.101  -1.845   1.089  0.00  0.00    +0.000 A 
ATOM     30  C   UNL     1      -7.905  -2.659  -0.026  0.00  0.00    +0.000 A 
ENDBRANCH  24  25
ENDBRANCH   8  24
ENDBRANCH  19  21
ENDBRANCH  17  19
ENDBRANCH  13  17
TORSDOF 7
