REMARK  Name = 44716456
REMARK  9 active torsions:
REMARK  status: ('A' for Active; 'I' for Inactive)
REMARK    1  A    between atoms: O_4  and  C_23
REMARK    2  A    between atoms: O_4  and  C_35
REMARK    3  A    between atoms: O_6  and  C_34
REMARK    4  A    between atoms: O_6  and  C_40
REMARK    5  A    between atoms: N_9  and  C_14
REMARK    6  A    between atoms: N_9  and  C_24
REMARK    7  A    between atoms: C_12  and  C_20
REMARK    8  A    between atoms: C_16  and  C_23
REMARK    9  A    between atoms: C_24  and  C_32
REMARK                            x       y       z     vdW  Elec       q    Type
REMARK                         _______ _______ _______ _____ _____    ______ ____
ROOT
ATOM      7  N   UNL     1      -0.378  -0.624   0.087  0.00  0.00    -0.274 NA
ATOM      8  N   UNL     1       1.248  -4.007  -0.052  0.00  0.00    -0.356 N 
ATOM     11  C   UNL     1       0.704  -1.567   0.505  0.00  0.00    +0.106 C 
ATOM     12  C   UNL     1      -0.133   0.755   0.581  0.00  0.00    +0.090 C 
ATOM     13  C   UNL     1       2.072  -1.086  -0.004  0.00  0.00    +0.044 C 
ATOM     14  C   UNL     1       2.377   0.315   0.527  0.00  0.00    +0.058 C 
ATOM     15  C   UNL     1       1.254   1.270   0.127  0.00  0.00    +0.042 C 
ATOM     16  C   UNL     1      -1.744  -1.151   0.359  0.00  0.00    +0.172 C 
ATOM     17  C   UNL     1       0.386  -2.948   0.013  0.00  0.00    +0.038 A 
ATOM     18  C   UNL     1      -2.034  -2.470  -0.402  0.00  0.00    +0.068 C 
ATOM     19  C   UNL     1      -0.859  -3.383  -0.387  0.00  0.00    -0.016 A 
ATOM     21  C   UNL     1      -0.746  -4.754  -0.744  0.00  0.00    +0.003 A 
ATOM     22  C   UNL     1       0.587  -5.120  -0.526  0.00  0.00    +0.047 A 
ATOM     27  C   UNL     1      -1.644  -5.726  -1.229  0.00  0.00    +0.010 A 
ATOM     28  C   UNL     1       1.063  -6.413  -0.771  0.00  0.00    +0.026 A 
ATOM     29  C   UNL     1      -1.180  -7.022  -1.480  0.00  0.00    +0.001 A 
ATOM     33  C   UNL     1       0.153  -7.358  -1.254  0.00  0.00    +0.002 A 
ATOM     41  H   UNL     1       2.225  -3.985   0.204  0.00  0.00    +0.166 HD
ENDROOT
BRANCH  12  20
ATOM     20  C   UNL     1      -1.176   1.774   0.128  0.00  0.00    -0.030 A 
ATOM     25  C   UNL     1      -1.920   2.480   1.074  0.00  0.00    +0.009 A 
ATOM     26  C   UNL     1      -1.384   2.000  -1.232  0.00  0.00    +0.009 A 
ATOM     30  C   UNL     1      -2.872   3.410   0.660  0.00  0.00    +0.046 A 
ATOM     31  C   UNL     1      -2.337   2.931  -1.647  0.00  0.00    +0.046 A 
ATOM     34  C   UNL     1      -3.080   3.636  -0.701  0.00  0.00    +0.130 A 
BRANCH  34   6
ATOM      6  O   UNL     1      -4.009   4.545  -1.105  0.00  0.00    -0.406 OA
BRANCH   6  40
ATOM      1  F   UNL     1      -6.170   4.840  -1.685  0.00  0.00    -0.133 F 
ATOM      2  F   UNL     1      -5.639   3.027  -0.587  0.00  0.00    -0.133 F 
ATOM      3  F   UNL     1      -5.645   4.988   0.431  0.00  0.00    -0.133 F 
ATOM     40  C   UNL     1      -5.364   4.342  -0.721  0.00  0.00    +0.575 C 
ENDBRANCH   6  40
ENDBRANCH  34   6
ENDBRANCH  12  20
BRANCH  16  23
ATOM      5  O   UNL     1      -1.110  -1.074   2.685  0.00  0.00    -0.249 OA
ATOM     23  C   UNL     1      -1.955  -1.326   1.837  0.00  0.00    +0.325 C 
BRANCH  23   4
ATOM      4  O   UNL     1      -3.213  -1.799   2.064  0.00  0.00    -0.467 OA
ATOM     35  C   UNL     1      -3.551  -2.013   3.438  0.00  0.00    +0.280 C 
ENDBRANCH  23   4
ENDBRANCH  16  23
BRANCH  14   9
ATOM      9  N   UNL     1       3.664   0.778   0.012  0.00  0.00    -0.309 NA
ATOM     42  H   UNL     1       4.323  -0.001   0.003  0.00  0.00    +0.123 HD
BRANCH   9  24
ATOM     24  C   UNL     1       4.203   1.837   0.851  0.00  0.00    +0.118 C 
BRANCH  24  32
ATOM     10  N   UNL     1       6.785   4.045  -0.820  0.00  0.00    -0.263 NA
ATOM     32  C   UNL     1       5.529   2.336   0.341  0.00  0.00    -0.015 A 
ATOM     36  C   UNL     1       6.694   1.600   0.531  0.00  0.00    +0.008 A 
ATOM     37  C   UNL     1       5.628   3.542  -0.335  0.00  0.00    +0.115 A 
ATOM     38  C   UNL     1       7.903   2.085   0.047  0.00  0.00    +0.020 A 
ATOM     39  C   UNL     1       7.896   3.302  -0.616  0.00  0.00    +0.111 A 
ENDBRANCH  24  32
ENDBRANCH   9  24
ENDBRANCH  14   9
TORSDOF 8
