REMARK  Name = 75367059
REMARK  10 active torsions:
REMARK  status: ('A' for Active; 'I' for Inactive)
REMARK    1  A    between atoms: O_2  and  C_11
REMARK    2  A    between atoms: N_4  and  C_6
REMARK    3  A    between atoms: N_4  and  C_7
REMARK    4  A    between atoms: N_5  and  C_14
REMARK    5  A    between atoms: C_12  and  C_14
REMARK    6  A    between atoms: C_15  and  C_16
REMARK    7  A    between atoms: C_15  and  C_18
REMARK    8  A    between atoms: C_15  and  C_19
REMARK    9  A    between atoms: C_15  and  C_20
REMARK   10  A    between atoms: C_16  and  C_17
REMARK                            x       y       z     vdW  Elec       q    Type
REMARK                         _______ _______ _______ _____ _____    ______ ____
ROOT
ATOM      1  O   UNL     1       0.005   0.166  -0.094  0.00  0.00    -0.371 OA
ATOM      7  C   UNL     1      -2.231  -0.450   0.419  0.00  0.00    +0.111 C 
ATOM     11  C   UNL     1      -1.441  -1.698   0.070  0.00  0.00    +0.164 C 
ATOM     12  C   UNL     1      -0.015  -1.216   0.299  0.00  0.00    +0.165 C 
ATOM     13  C   UNL     1      -1.351   0.638  -0.175  0.00  0.00    +0.181 C 
ENDROOT
BRANCH  11   2
ATOM      2  O   UNL     1      -1.765  -2.799   0.897  0.00  0.00    -0.388 OA
ATOM     22  H   UNL     1      -1.623  -2.538   1.823  0.00  0.00    +0.210 HD
ENDBRANCH  11   2
BRANCH   7   4
ATOM      4  N   UNL     1      -3.581  -0.444  -0.121  0.00  0.00    -0.306 NA
ATOM     21  H   UNL     1      -4.001  -1.356   0.060  0.00  0.00    +0.123 HD
BRANCH   4   6
ATOM      6  C   UNL     1      -4.335   0.654   0.465  0.00  0.00    +0.054 C 
ATOM      8  C   UNL     1      -5.844   0.403   0.257  0.00  0.00    +0.019 C 
ATOM      9  C   UNL     1      -4.457   1.796  -0.567  0.00  0.00    +0.019 C 
ATOM     10  C   UNL     1      -5.945   1.889  -0.158  0.00  0.00    +0.003 C 
ENDBRANCH   4   6
ENDBRANCH   7   4
BRANCH  12  14
ATOM     14  C   UNL     1       1.017  -1.992  -0.501  0.00  0.00    +0.138 C 
BRANCH  14   5
ATOM      3  O   UNL     1       2.412   0.094  -1.946  0.00  0.00    -0.276 OA
ATOM      5  N   UNL     1       2.354  -1.501  -0.257  0.00  0.00    -0.313 N 
ATOM     17  C   UNL     1       2.940  -0.494  -1.005  0.00  0.00    +0.214 C 
ATOM     23  H   UNL     1       2.873  -1.918   0.510  0.00  0.00    +0.149 HD
BRANCH  17  16
ATOM     16  C   UNL     1       4.354  -0.165  -0.555  0.00  0.00    +0.102 C 
BRANCH  16  15
ATOM     15  C   UNL     1       4.452   0.974   0.488  0.00  0.00    -0.029 C 
ATOM     18  C   UNL     1       3.646   0.648   1.756  0.00  0.00    +0.011 C 
ATOM     19  C   UNL     1       5.916   1.247   0.874  0.00  0.00    +0.011 C 
ATOM     20  C   UNL     1       3.869   2.252  -0.145  0.00  0.00    +0.011 C 
ENDBRANCH  16  15
ENDBRANCH  17  16
ENDBRANCH  14   5
ENDBRANCH  12  14
TORSDOF 7
