REMARK  Name = 26743682
REMARK  5 active torsions:
REMARK  status: ('A' for Active; 'I' for Inactive)
REMARK    1  A    between atoms: O_2  and  C_10
REMARK    2  A    between atoms: N_4  and  C_12
REMARK    3  A    between atoms: C_8  and  C_13
REMARK    4  A    between atoms: C_12  and  C_14
REMARK    5  A    between atoms: C_16  and  C_19
REMARK                            x       y       z     vdW  Elec       q    Type
REMARK                         _______ _______ _______ _____ _____    ______ ____
ROOT
ATOM      4  N   UNL     1       2.705  -0.047   0.417  0.00  0.00    -0.284 NA
ATOM      8  C   UNL     1       2.145  -0.725  -0.770  0.00  0.00    +0.149 C 
ATOM      9  C   UNL     1       2.577  -2.196  -0.624  0.00  0.00    +0.061 C 
ATOM     10  C   UNL     1       3.413  -2.237   0.649  0.00  0.00    +0.130 C 
ATOM     11  C   UNL     1       3.892  -0.806   0.805  0.00  0.00    +0.116 C 
ENDROOT
BRANCH   8  13
ATOM      3  O   UNL     1       0.176   0.001  -2.023  0.00  0.00    -0.336 OA
ATOM      5  N   UNL     1      -0.291  -0.890  -0.022  0.00  0.00    -0.189 NA
ATOM      6  N   UNL     1      -1.218   0.044  -1.893  0.00  0.00    -0.054 NA
ATOM     13  C   UNL     1       0.643  -0.564  -0.879  0.00  0.00    +0.245 A 
ATOM     16  C   UNL     1      -1.415  -0.498  -0.688  0.00  0.00    +0.220 A 
BRANCH  16  19
ATOM      7  N   UNL     1      -3.751  -0.233  -0.886  0.00  0.00    -0.252 NA
ATOM     19  C   UNL     1      -2.723  -0.664  -0.121  0.00  0.00    +0.111 A 
ATOM     20  C   UNL     1      -2.874  -1.234   1.132  0.00  0.00    +0.031 A 
ATOM     21  C   UNL     1      -4.164  -1.371   1.634  0.00  0.00    +0.004 A 
ATOM     22  C   UNL     1      -4.990  -0.382  -0.365  0.00  0.00    +0.111 A 
ATOM     23  C   UNL     1      -5.247  -0.939   0.877  0.00  0.00    +0.020 A 
ENDBRANCH  16  19
ENDBRANCH   8  13
BRANCH  10   2
ATOM      2  O   UNL     1       4.492  -3.141   0.512  0.00  0.00    -0.390 OA
ATOM     24  H   UNL     1       4.116  -4.021   0.340  0.00  0.00    +0.210 HD
ENDBRANCH  10   2
BRANCH   4  12
ATOM     12  C   UNL     1       3.005   1.360   0.186  0.00  0.00    +0.127 C 
BRANCH  12  14
ATOM      1  S   UNL     1       0.843   2.229   1.705  0.00  0.00    -0.100 S 
ATOM     14  C   UNL     1       1.770   2.217   0.265  0.00  0.00    +0.004 A 
ATOM     15  C   UNL     1       1.236   3.042  -0.700  0.00  0.00    +0.012 A 
ATOM     17  C   UNL     1       0.051   3.693  -0.251  0.00  0.00    +0.008 A 
ATOM     18  C   UNL     1      -0.276   3.341   1.040  0.00  0.00    +0.045 A 
ENDBRANCH  12  14
ENDBRANCH   4  12
TORSDOF 5
