REMARK  Name = 75536648
REMARK  8 active torsions:
REMARK  status: ('A' for Active; 'I' for Inactive)
REMARK    1  A    between atoms: O_3  and  C_9
REMARK    2  A    between atoms: N_5  and  C_8
REMARK    3  A    between atoms: N_5  and  C_13
REMARK    4  A    between atoms: N_6  and  C_12
REMARK    5  A    between atoms: C_10  and  C_12
REMARK    6  A    between atoms: C_13  and  C_14
REMARK    7  A    between atoms: C_15  and  C_18
REMARK    8  A    between atoms: C_19  and  C_27
REMARK                            x       y       z     vdW  Elec       q    Type
REMARK                         _______ _______ _______ _____ _____    ______ ____
ROOT
ATOM      2  O   UNL     1       3.943   1.327   0.459  0.00  0.00    -0.371 OA
ATOM      8  C   UNL     1       3.141  -0.811   1.086  0.00  0.00    +0.111 C 
ATOM      9  C   UNL     1       3.729  -0.923  -0.310  0.00  0.00    +0.164 C 
ATOM     10  C   UNL     1       4.019   0.517  -0.729  0.00  0.00    +0.165 C 
ATOM     11  C   UNL     1       3.788   0.467   1.595  0.00  0.00    +0.181 C 
ENDROOT
BRANCH   9   3
ATOM      3  O   UNL     1       4.963  -1.637  -0.206  0.00  0.00    -0.388 OA
ATOM     29  H   UNL     1       5.349  -1.681  -1.097  0.00  0.00    +0.210 HD
ENDBRANCH   9   3
BRANCH   8   5
ATOM      5  N   UNL     1       1.687  -0.675   1.048  0.00  0.00    -0.305 NA
ATOM     28  H   UNL     1       1.374  -0.179   1.883  0.00  0.00    +0.123 HD
BRANCH   5  13
ATOM     13  C   UNL     1       1.038  -1.980   1.015  0.00  0.00    +0.116 C 
BRANCH  13  14
ATOM     14  C   UNL     1      -0.462  -1.860   0.960  0.00  0.00    -0.032 A 
ATOM     16  C   UNL     1      -1.137  -2.082  -0.240  0.00  0.00    +0.023 A 
ATOM     17  C   UNL     1      -1.177  -1.527   2.111  0.00  0.00    +0.005 A 
ATOM     19  C   UNL     1      -2.527  -1.971  -0.290  0.00  0.00    +0.052 A 
ATOM     20  C   UNL     1      -2.566  -1.417   2.061  0.00  0.00    +0.002 A 
ATOM     21  C   UNL     1      -3.241  -1.639   0.861  0.00  0.00    +0.019 A 
BRANCH  19  27
ATOM      7  N   UNL     1      -3.781  -2.384  -2.517  0.00  0.00    -0.191 NA
ATOM     27  C   UNL     1      -3.219  -2.199  -1.519  0.00  0.00    +0.099 C 
ENDBRANCH  19  27
ENDBRANCH  13  14
ENDBRANCH   5  13
ENDBRANCH   8   5
BRANCH  10  12
ATOM     12  C   UNL     1       3.030   1.066  -1.745  0.00  0.00    +0.138 C 
BRANCH  12   6
ATOM      4  O   UNL     1       0.393   0.055  -2.262  0.00  0.00    -0.270 OA
ATOM      6  N   UNL     1       1.812   1.486  -1.114  0.00  0.00    -0.309 N 
ATOM     15  C   UNL     1       0.572   0.938  -1.428  0.00  0.00    +0.244 C 
ATOM     30  H   UNL     1       1.879   2.271  -0.475  0.00  0.00    +0.149 HD
BRANCH  15  18
ATOM      1  F   UNL     1      -3.844   3.067   1.308  0.00  0.00    -0.205 F 
ATOM     18  C   UNL     1      -0.596   1.501  -0.704  0.00  0.00    +0.037 A 
ATOM     22  C   UNL     1      -1.862   1.467  -1.289  0.00  0.00    +0.016 A 
ATOM     23  C   UNL     1      -0.427   2.065   0.561  0.00  0.00    +0.016 A 
ATOM     24  C   UNL     1      -2.959   1.995  -0.609  0.00  0.00    +0.039 A 
ATOM     25  C   UNL     1      -1.525   2.594   1.241  0.00  0.00    +0.039 A 
ATOM     26  C   UNL     1      -2.791   2.559   0.656  0.00  0.00    +0.123 A 
ENDBRANCH  15  18
ENDBRANCH  12   6
ENDBRANCH  10  12
TORSDOF 8
