REMARK  Name = 71693214
REMARK  9 active torsions:
REMARK  status: ('A' for Active; 'I' for Inactive)
REMARK    1  A    between atoms: N_3  and  C_12
REMARK    2  A    between atoms: N_3  and  C_17
REMARK    3  A    between atoms: C_6  and  C_10
REMARK    4  A    between atoms: C_7  and  C_12
REMARK    5  A    between atoms: C_9  and  C_14
REMARK    6  A    between atoms: C_10  and  C_15
REMARK    7  A    between atoms: C_10  and  C_16
REMARK    8  A    between atoms: C_11  and  C_18
REMARK    9  A    between atoms: C_14  and  C_21
REMARK                            x       y       z     vdW  Elec       q    Type
REMARK                         _______ _______ _______ _____ _____    ______ ____
ROOT
ATOM      6  C   UNL     1      -2.866   0.228  -0.502  0.00  0.00    +0.000 C 
ATOM      7  C   UNL     1      -2.463   0.412   0.979  0.00  0.00    +0.029 C 
ATOM      8  C   UNL     1      -2.041  -0.893  -1.149  0.00  0.00    +0.012 C 
ATOM      9  C   UNL     1      -2.163  -2.245  -0.413  0.00  0.00    +0.022 C 
ATOM     11  C   UNL     1      -2.184  -2.098   1.101  0.00  0.00    -0.073 C 
ATOM     13  C   UNL     1      -2.307  -0.901   1.704  0.00  0.00    -0.023 C 
ATOM     18  C   UNL     1      -2.121  -3.357   1.922  0.00  0.00    +0.039 C 
ENDROOT
BRANCH   6  10
ATOM     10  C   UNL     1      -4.371  -0.038  -0.644  0.00  0.00    -0.013 C 
ATOM     15  C   UNL     1      -4.679  -0.638  -2.012  0.00  0.00    +0.007 C 
ATOM     16  C   UNL     1      -5.161   1.249  -0.428  0.00  0.00    +0.007 C 
ENDBRANCH   6  10
BRANCH   7  12
ATOM     12  C   UNL     1      -1.170   1.221   1.118  0.00  0.00    +0.089 C 
BRANCH  12   3
ATOM      3  N   UNL     1      -1.294   2.505   0.450  0.00  0.00    -0.313 NA
ATOM     30  H   UNL     1      -2.067   3.022   0.869  0.00  0.00    +0.122 HD
BRANCH   3  17
ATOM      2  O   UNL     1       1.869   5.041  -0.640  0.00  0.00    -0.380 OA
ATOM     17  C   UNL     1      -0.061   3.280   0.568  0.00  0.00    +0.058 C 
ATOM     19  C   UNL     1      -0.328   4.775   0.364  0.00  0.00    +0.047 C 
ATOM     20  C   UNL     1       0.976   2.789  -0.446  0.00  0.00    +0.047 C 
ATOM     22  C   UNL     1       0.985   5.551   0.357  0.00  0.00    +0.161 C 
ATOM     23  C   UNL     1       2.216   3.676  -0.408  0.00  0.00    +0.161 C 
ENDBRANCH   3  17
ENDBRANCH  12   3
ENDBRANCH   7  12
BRANCH   9  14
ATOM     14  C   UNL     1      -1.046  -3.173  -0.906  0.00  0.00    +0.082 C 
BRANCH  14  21
ATOM      1 CL   UNL     1       6.122  -0.596  -0.731  0.00  0.00    -0.083 Cl
ATOM      4  N   UNL     1       1.264  -2.380  -1.442  0.00  0.00    -0.342 N 
ATOM      5  N   UNL     1       0.734  -2.434   0.715  0.00  0.00    -0.232 NA
ATOM     21  C   UNL     1       0.309  -2.663  -0.507  0.00  0.00    +0.109 A 
ATOM     24  C   UNL     1       2.381  -1.938  -0.780  0.00  0.00    +0.068 A 
ATOM     25  C   UNL     1       2.025  -1.981   0.565  0.00  0.00    +0.089 A 
ATOM     26  C   UNL     1       3.634  -1.518  -1.228  0.00  0.00    +0.047 A 
ATOM     27  C   UNL     1       2.961  -1.585   1.535  0.00  0.00    +0.031 A 
ATOM     28  C   UNL     1       4.554  -1.127  -0.249  0.00  0.00    +0.043 A 
ATOM     29  C   UNL     1       4.226  -1.160   1.108  0.00  0.00    +0.022 A 
ATOM     31  H   UNL     1       1.169  -2.476  -2.445  0.00  0.00    +0.167 HD
ENDBRANCH  14  21
ENDBRANCH   9  14
TORSDOF 6
