REMARK  Name = 11939797
REMARK  7 active torsions:
REMARK  status: ('A' for Active; 'I' for Inactive)
REMARK    1  A    between atoms: N_4  and  C_12
REMARK    2  A    between atoms: N_5  and  C_13
REMARK    3  A    between atoms: N_6  and  C_16
REMARK    4  A    between atoms: N_9  and  C_32
REMARK    5  A    between atoms: N_9  and  C_33
REMARK    6  A    between atoms: N_9  and  C_34
REMARK    7  A    between atoms: C_24  and  C_27
REMARK                            x       y       z     vdW  Elec       q    Type
REMARK                         _______ _______ _______ _____ _____    ______ ____
ROOT
ATOM      1  O   UNL     1      -0.677   0.947   1.827  0.00  0.00    -0.370 OA
ATOM      2  O   UNL     1      -1.560   3.875   1.210  0.00  0.00    -0.370 OA
ATOM     10  C   UNL     1      -1.787   2.619   0.549  0.00  0.00    +0.171 C 
ATOM     11  C   UNL     1      -0.515   1.804   0.683  0.00  0.00    +0.171 C 
ATOM     12  C   UNL     1      -2.823   1.811   1.297  0.00  0.00    +0.131 C 
ATOM     13  C   UNL     1       0.558   2.833   0.948  0.00  0.00    +0.130 C 
ATOM     14  C   UNL     1      -1.992   1.132   2.371  0.00  0.00    +0.185 C 
ATOM     15  C   UNL     1      -0.203   3.928   1.673  0.00  0.00    +0.185 C 
ENDROOT
BRANCH  13   5
ATOM      5  N   UNL     1       1.084   3.332  -0.303  0.00  0.00    -0.306 N 
ATOM      7  N   UNL     1       2.596   1.578  -0.477  0.00  0.00    -0.214 NA
ATOM      8  N   UNL     1       2.475   3.296  -2.162  0.00  0.00    -0.223 NA
ATOM     23  C   UNL     1       2.096   2.708  -1.012  0.00  0.00    +0.216 A 
ATOM     24  C   UNL     1       3.580   0.997  -1.193  0.00  0.00    +0.076 A 
ATOM     25  C   UNL     1       3.463   2.662  -2.827  0.00  0.00    +0.116 A 
ATOM     26  C   UNL     1       4.059   1.498  -2.386  0.00  0.00    +0.048 A 
ATOM     36  H   UNL     1       0.667   4.154  -0.726  0.00  0.00    +0.149 HD
BRANCH  24  27
ATOM     27  C   UNL     1       4.119  -0.215  -0.623  0.00  0.00    +0.001 A 
ATOM     28  C   UNL     1       5.472  -0.290  -0.293  0.00  0.00    +0.012 A 
ATOM     29  C   UNL     1       3.286  -1.313  -0.405  0.00  0.00    +0.012 A 
ATOM     30  C   UNL     1       5.992  -1.461   0.256  0.00  0.00    +0.024 A 
ATOM     31  C   UNL     1       3.806  -2.485   0.144  0.00  0.00    +0.024 A 
ATOM     32  C   UNL     1       5.159  -2.559   0.475  0.00  0.00    +0.029 A 
BRANCH  32   9
ATOM      9  N   UNL     1       5.686  -3.743   1.030  0.00  0.00    -0.336 N 
ATOM     33  C   UNL     1       4.827  -4.885   1.274  0.00  0.00    +0.129 C 
ATOM     34  C   UNL     1       7.091  -3.830   1.378  0.00  0.00    +0.129 C 
ENDBRANCH  32   9
ENDBRANCH  24  27
ENDBRANCH  13   5
BRANCH  12   4
ATOM      3  O   UNL     1      -5.439   0.661   1.620  0.00  0.00    -0.253 OA
ATOM      4  N   UNL     1      -3.453   0.843   0.432  0.00  0.00    -0.292 N 
ATOM      6  N   UNL     1      -5.101  -0.578  -0.315  0.00  0.00    -0.297 N 
ATOM     19  C   UNL     1      -4.731   0.338   0.667  0.00  0.00    +0.300 C 
ATOM     35  H   UNL     1      -2.921   0.463  -0.345  0.00  0.00    +0.151 HD
ATOM     37  H   UNL     1      -4.411  -0.826  -1.017  0.00  0.00    +0.151 HD
BRANCH   6  16
ATOM     16  C   UNL     1      -6.377  -1.258  -0.321  0.00  0.00    +0.074 C 
ATOM     17  C   UNL     1      -6.850  -1.527  -1.753  0.00  0.00    +0.022 C 
ATOM     18  C   UNL     1      -6.314  -2.554   0.496  0.00  0.00    +0.022 C 
ATOM     20  C   UNL     1      -6.034  -2.620  -2.444  0.00  0.00    +0.002 C 
ATOM     21  C   UNL     1      -5.498  -3.644  -0.199  0.00  0.00    +0.002 C 
ATOM     22  C   UNL     1      -5.996  -3.902  -1.618  0.00  0.00    +0.000 C 
ENDBRANCH   6  16
ENDBRANCH  12   4
TORSDOF 5
