REMARK  Name = 26745474
REMARK  9 active torsions:
REMARK  status: ('A' for Active; 'I' for Inactive)
REMARK    1  A    between atoms: S_2  and  N_8
REMARK    2  A    between atoms: S_2  and  C_19
REMARK    3  A    between atoms: O_5  and  C_16
REMARK    4  A    between atoms: O_5  and  C_28
REMARK    5  A    between atoms: N_9  and  C_17
REMARK    6  A    between atoms: C_11  and  C_16
REMARK    7  A    between atoms: C_17  and  C_20
REMARK    8  A    between atoms: C_27  and  C_32
REMARK    9  A    between atoms: C_32  and  C_33
REMARK                            x       y       z     vdW  Elec       q    Type
REMARK                         _______ _______ _______ _____ _____    ______ ____
ROOT
ATOM      8  N   UNL     1       2.026  -0.783  -0.363  0.00  0.00    -0.157 NA
ATOM      9  N   UNL     1       0.699   2.627   0.411  0.00  0.00    -0.328 N 
ATOM     10  N   UNL     1       2.085   3.288  -1.213  0.00  0.00    -0.240 NA
ATOM     11  C   UNL     1       3.338  -0.284  -0.912  0.00  0.00    +0.194 C 
ATOM     12  C   UNL     1       1.290   0.152   0.565  0.00  0.00    +0.165 C 
ATOM     13  C   UNL     1       3.173   1.048  -1.675  0.00  0.00    +0.089 C 
ATOM     14  C   UNL     1       1.394   1.521   0.025  0.00  0.00    +0.057 A 
ATOM     15  C   UNL     1       2.240   1.952  -0.968  0.00  0.00    +0.066 A 
ATOM     18  C   UNL     1       1.149   3.667  -0.364  0.00  0.00    +0.200 A 
ENDROOT
BRANCH   8   2
ATOM      2  S   UNL     1       1.953  -2.442   0.059  0.00  0.00    +0.062 S 
ATOM      3  O   UNL     1       2.376  -2.597   1.434  0.00  0.00    -0.153 OA
ATOM      4  O   UNL     1       2.555  -3.222  -1.000  0.00  0.00    -0.153 OA
BRANCH   2  19
ATOM     19  C   UNL     1       0.207  -2.698  -0.002  0.00  0.00    +0.106 A 
ATOM     21  C   UNL     1      -0.456  -2.686  -1.229  0.00  0.00    +0.029 A 
ATOM     22  C   UNL     1      -0.508  -2.909   1.176  0.00  0.00    +0.029 A 
ATOM     23  C   UNL     1      -1.836  -2.886  -1.277  0.00  0.00    +0.013 A 
ATOM     24  C   UNL     1      -1.888  -3.109   1.128  0.00  0.00    +0.013 A 
ATOM     27  C   UNL     1      -2.552  -3.098  -0.099  0.00  0.00    +0.017 A 
BRANCH  27  32
ATOM      7  O   UNL     1      -4.577  -4.008   0.697  0.00  0.00    -0.292 OA
ATOM     32  C   UNL     1      -3.990  -3.305  -0.149  0.00  0.00    +0.160 C 
ATOM     33  C   UNL     1      -4.822  -2.660  -1.254  0.00  0.00    +0.091 C 
ENDBRANCH  27  32
ENDBRANCH   2  19
ENDBRANCH   8   2
BRANCH  11  16
ATOM      6  O   UNL     1       4.051  -0.402   1.381  0.00  0.00    -0.249 OA
ATOM     16  C   UNL     1       4.320  -0.170   0.210  0.00  0.00    +0.326 C 
BRANCH  16   5
ATOM      5  O   UNL     1       5.529   0.225  -0.280  0.00  0.00    -0.467 OA
ATOM     28  C   UNL     1       6.568   0.375   0.694  0.00  0.00    +0.280 C 
ENDBRANCH  16   5
ENDBRANCH  11  16
BRANCH   9  17
ATOM     17  C   UNL     1      -0.311   2.710   1.437  0.00  0.00    +0.158 C 
BRANCH  17  20
ATOM      1 CL   UNL     1      -5.917   2.897  -0.746  0.00  0.00    -0.084 Cl
ATOM     20  C   UNL     1      -1.716   2.757   0.891  0.00  0.00    -0.028 A 
ATOM     25  C   UNL     1      -2.220   3.945   0.362  0.00  0.00    +0.007 A 
ATOM     26  C   UNL     1      -2.513   1.611   0.914  0.00  0.00    +0.007 A 
ATOM     29  C   UNL     1      -3.519   3.989  -0.143  0.00  0.00    +0.020 A 
ATOM     30  C   UNL     1      -3.812   1.655   0.409  0.00  0.00    +0.020 A 
ATOM     31  C   UNL     1      -4.315   2.843  -0.120  0.00  0.00    +0.041 A 
ENDBRANCH  17  20
ENDBRANCH   9  17
TORSDOF 7
