REMARK  Name = 25314544
REMARK  11 active torsions:
REMARK  status: ('A' for Active; 'I' for Inactive)
REMARK    1  A    between atoms: O_3  and  C_9
REMARK    2  A    between atoms: O_4  and  C_23
REMARK    3  A    between atoms: O_4  and  C_24
REMARK    4  A    between atoms: N_5  and  C_7
REMARK    5  A    between atoms: N_5  and  C_13
REMARK    6  A    between atoms: N_5  and  C_14
REMARK    7  A    between atoms: N_6  and  C_8
REMARK    8  A    between atoms: N_6  and  C_15
REMARK    9  A    between atoms: C_13  and  C_16
REMARK   10  A    between atoms: C_14  and  C_17
REMARK   11  A    between atoms: C_15  and  C_18
REMARK                            x       y       z     vdW  Elec       q    Type
REMARK                         _______ _______ _______ _____ _____    ______ ____
ROOT
ATOM      1  O   UNL     1       2.448   0.894  -1.618  0.00  0.00    -0.343 OA
ATOM      2  O   UNL     1       4.318   1.264  -0.297  0.00  0.00    -0.347 OA
ATOM      7  C   UNL     1       2.808  -0.527   0.300  0.00  0.00    +0.143 C 
ATOM      8  C   UNL     1       1.328   1.601   0.405  0.00  0.00    +0.116 C 
ATOM      9  C   UNL     1       1.983   0.435   1.186  0.00  0.00    +0.156 C 
ATOM     10  C   UNL     1       2.171   2.045  -0.812  0.00  0.00    +0.166 C 
ATOM     11  C   UNL     1       3.473   0.243  -0.855  0.00  0.00    +0.270 C 
ATOM     12  C   UNL     1       3.582   2.484  -0.466  0.00  0.00    +0.196 C 
ENDROOT
BRANCH   9   3
ATOM      3  O   UNL     1       2.871   0.987   2.170  0.00  0.00    -0.388 OA
ATOM     26  H   UNL     1       2.348   1.564   2.751  0.00  0.00    +0.210 HD
ENDBRANCH   9   3
BRANCH   8   6
ATOM      6  N   UNL     1      -0.003   1.215  -0.076  0.00  0.00    -0.305 NA
ATOM     25  H   UNL     1       0.038   0.279  -0.480  0.00  0.00    +0.123 HD
BRANCH   6  15
ATOM     15  C   UNL     1      -0.968   1.251   1.010  0.00  0.00    +0.116 C 
BRANCH  15  18
ATOM     18  C   UNL     1      -2.345   0.855   0.549  0.00  0.00    -0.033 A 
ATOM     19  C   UNL     1      -3.123   1.755  -0.179  0.00  0.00    +0.008 A 
ATOM     20  C   UNL     1      -2.842  -0.413   0.849  0.00  0.00    +0.008 A 
ATOM     21  C   UNL     1      -4.398   1.387  -0.608  0.00  0.00    +0.046 A 
ATOM     22  C   UNL     1      -4.118  -0.781   0.420  0.00  0.00    +0.046 A 
ATOM     23  C   UNL     1      -4.895   0.119  -0.309  0.00  0.00    +0.120 A 
BRANCH  23   4
ATOM      4  O   UNL     1      -6.139  -0.241  -0.729  0.00  0.00    -0.495 OA
ATOM     24  C   UNL     1      -6.585  -1.553  -0.387  0.00  0.00    +0.277 C 
ENDBRANCH  23   4
ENDBRANCH  15  18
ENDBRANCH   6  15
ENDBRANCH   8   6
BRANCH   7   5
ATOM      5  N   UNL     1       1.960  -1.594  -0.234  0.00  0.00    -0.293 NA
BRANCH   5  13
ATOM     13  C   UNL     1       1.366  -2.368   0.856  0.00  0.00    +0.081 C 
ATOM     16  C   UNL     1       0.483  -3.480   0.329  0.00  0.00    +0.020 C 
ENDBRANCH   5  13
BRANCH   5  14
ATOM     14  C   UNL     1       2.733  -2.466  -1.118  0.00  0.00    +0.081 C 
ATOM     17  C   UNL     1       3.891  -3.111  -0.386  0.00  0.00    +0.020 C 
ENDBRANCH   5  14
ENDBRANCH   7   5
TORSDOF 8
