REMARK  Name = 51137439
REMARK  6 active torsions:
REMARK  status: ('A' for Active; 'I' for Inactive)
REMARK    1  A    between atoms: N_5  and  C_12
REMARK    2  A    between atoms: C_8  and  C_13
REMARK    3  A    between atoms: C_12  and  C_14
REMARK    4  A    between atoms: C_17  and  C_21
REMARK    5  A    between atoms: C_20  and  C_24
REMARK    6  A    between atoms: C_27  and  C_28
REMARK                            x       y       z     vdW  Elec       q    Type
REMARK                         _______ _______ _______ _____ _____    ______ ____
ROOT
ATOM      5  N   UNL     1      -1.127  -0.878  -0.312  0.00  0.00    -0.297 NA
ATOM      8  C   UNL     1       0.822  -2.051   0.259  0.00  0.00    +0.092 C 
ATOM      9  C   UNL     1       0.229  -1.395   1.518  0.00  0.00    +0.029 C 
ATOM     10  C   UNL     1       0.124  -1.346  -0.912  0.00  0.00    +0.097 C 
ATOM     11  C   UNL     1      -0.742  -0.344   0.995  0.00  0.00    +0.085 C 
ENDROOT
BRANCH   8  13
ATOM      4  O   UNL     1       2.901  -0.763   0.152  0.00  0.00    -0.420 OA
ATOM      6  N   UNL     1       3.197  -2.979   0.091  0.00  0.00    -0.112 NA
ATOM      7  N   UNL     1       4.441  -2.380   0.024  0.00  0.00    -0.107 NA
ATOM     13  C   UNL     1       2.329  -1.998   0.165  0.00  0.00    +0.222 A 
ATOM     17  C   UNL     1       4.220  -1.087   0.062  0.00  0.00    +0.248 A 
BRANCH  17  21
ATOM     21  C   UNL     1       5.136   0.016   0.026  0.00  0.00    +0.038 A 
ATOM     22  C   UNL     1       6.508  -0.220  -0.065  0.00  0.00    +0.013 A 
ATOM     23  C   UNL     1       4.656   1.324   0.080  0.00  0.00    +0.013 A 
ATOM     25  C   UNL     1       7.399   0.852  -0.101  0.00  0.00    +0.004 A 
ATOM     26  C   UNL     1       5.547   2.396   0.044  0.00  0.00    +0.004 A 
ATOM     27  C   UNL     1       6.919   2.160  -0.046  0.00  0.00    -0.050 A 
ATOM     28  C   UNL     1       7.872   3.307  -0.084  0.00  0.00    +0.044 C 
ENDBRANCH  17  21
ENDBRANCH   8  13
BRANCH   5  12
ATOM     12  C   UNL     1      -1.803   0.112  -1.137  0.00  0.00    +0.119 C 
BRANCH  12  14
ATOM     14  C   UNL     1      -3.253   0.261  -0.759  0.00  0.00    -0.033 A 
ATOM     15  C   UNL     1      -4.179  -0.706  -1.150  0.00  0.00    +0.005 A 
ATOM     16  C   UNL     1      -3.670   1.366  -0.016  0.00  0.00    +0.005 A 
ATOM     18  C   UNL     1      -5.522  -0.568  -0.799  0.00  0.00    +0.012 A 
ATOM     19  C   UNL     1      -5.013   1.504   0.335  0.00  0.00    +0.012 A 
ATOM     20  C   UNL     1      -5.939   0.537  -0.057  0.00  0.00    +0.055 A 
BRANCH  20  24
ATOM      1  F   UNL     1      -7.583   0.726   1.670  0.00  0.00    -0.166 F 
ATOM      2  F   UNL     1      -8.144  -0.347  -0.136  0.00  0.00    -0.166 F 
ATOM      3  F   UNL     1      -7.955   1.819  -0.166  0.00  0.00    -0.166 F 
ATOM     24  C   UNL     1      -7.374   0.683   0.321  0.00  0.00    +0.417 C 
ENDBRANCH  20  24
ENDBRANCH  12  14
ENDBRANCH   5  12
TORSDOF 5
