REMARK  Name = 45784210
REMARK  4 active torsions:
REMARK  status: ('A' for Active; 'I' for Inactive)
REMARK    1  A    between atoms: N_1  and  C_9
REMARK    2  A    between atoms: C_4  and  C_8
REMARK    3  A    between atoms: C_9  and  C_10
REMARK    4  A    between atoms: C_17  and  C_21
REMARK                            x       y       z     vdW  Elec       q    Type
REMARK                         _______ _______ _______ _____ _____    ______ ____
ROOT
ATOM      1  N   UNL     1      -2.195   1.273   0.040  0.00  0.00    -0.297 NA
ATOM      4  C   UNL     1      -0.016   0.975   0.855  0.00  0.00    +0.070 C 
ATOM      5  C   UNL     1      -0.319   2.479   0.734  0.00  0.00    +0.028 C 
ATOM      6  C   UNL     1      -1.109   0.290   0.024  0.00  0.00    +0.096 C 
ATOM      7  C   UNL     1      -1.539   2.563  -0.175  0.00  0.00    +0.085 C 
ENDROOT
BRANCH   4   8
ATOM      2  N   UNL     1       2.235  -0.035   1.314  0.00  0.00    -0.342 N 
ATOM      3  N   UNL     1       1.926   0.742  -0.745  0.00  0.00    -0.232 NA
ATOM      8  C   UNL     1       1.380   0.573   0.439  0.00  0.00    +0.113 A 
ATOM     11  C   UNL     1       3.412  -0.275   0.652  0.00  0.00    +0.066 A 
ATOM     12  C   UNL     1       3.194   0.219  -0.631  0.00  0.00    +0.089 A 
ATOM     13  C   UNL     1       4.612  -0.864   1.053  0.00  0.00    +0.031 A 
ATOM     14  C   UNL     1       4.223   0.129  -1.584  0.00  0.00    +0.030 A 
ATOM     17  C   UNL     1       5.625  -0.946   0.092  0.00  0.00    -0.048 A 
ATOM     18  C   UNL     1       5.436  -0.458  -1.204  0.00  0.00    +0.005 A 
ATOM     21  C   UNL     1       6.933  -1.566   0.460  0.00  0.00    +0.044 C 
ATOM     23  H   UNL     1       2.039  -0.269   2.279  0.00  0.00    +0.167 HD
ENDBRANCH   4   8
BRANCH   1   9
ATOM      9  C   UNL     1      -3.211   0.994  -0.963  0.00  0.00    +0.119 C 
BRANCH   9  10
ATOM     10  C   UNL     1      -4.190  -0.049  -0.494  0.00  0.00    -0.033 A 
ATOM     15  C   UNL     1      -3.945  -1.399  -0.745  0.00  0.00    +0.005 A 
ATOM     16  C   UNL     1      -5.343   0.335   0.190  0.00  0.00    +0.005 A 
ATOM     19  C   UNL     1      -4.852  -2.366  -0.311  0.00  0.00    +0.000 A 
ATOM     20  C   UNL     1      -6.251  -0.631   0.625  0.00  0.00    +0.000 A 
ATOM     22  C   UNL     1      -6.005  -1.982   0.374  0.00  0.00    +0.000 A 
ENDBRANCH   9  10
ENDBRANCH   1   9
TORSDOF 3
