REMARK  Name = 45784178
REMARK  3 active torsions:
REMARK  status: ('A' for Active; 'I' for Inactive)
REMARK    1  A    between atoms: N_3  and  C_11
REMARK    2  A    between atoms: C_6  and  C_10
REMARK    3  A    between atoms: C_11  and  C_12
REMARK                            x       y       z     vdW  Elec       q    Type
REMARK                         _______ _______ _______ _____ _____    ______ ____
ROOT
ATOM      3  N   UNL     1      -2.041  -0.258  -0.141  0.00  0.00    -0.296 NA
ATOM      6  C   UNL     1       0.144  -0.922   0.392  0.00  0.00    +0.090 C 
ATOM      7  C   UNL     1      -0.547  -0.368   1.650  0.00  0.00    +0.029 C 
ATOM      8  C   UNL     1      -0.734  -0.448  -0.774  0.00  0.00    +0.097 C 
ATOM      9  C   UNL     1      -1.751   0.406   1.130  0.00  0.00    +0.085 C 
ENDROOT
BRANCH   6  10
ATOM      1 CL   UNL     1       7.184   1.811  -0.398  0.00  0.00    -0.083 Cl
ATOM      2  O   UNL     1       2.489  -1.551   0.189  0.00  0.00    -0.439 OA
ATOM      4  N   UNL     1       2.105   0.682   0.141  0.00  0.00    -0.213 NA
ATOM     10  C   UNL     1       1.594  -0.526   0.237  0.00  0.00    +0.201 A 
ATOM     13  C   UNL     1       3.453   0.445   0.019  0.00  0.00    +0.111 A 
ATOM     14  C   UNL     1       3.692  -0.921   0.047  0.00  0.00    +0.155 A 
ATOM     16  C   UNL     1       4.540   1.321  -0.121  0.00  0.00    +0.051 A 
ATOM     17  C   UNL     1       4.947  -1.507  -0.053  0.00  0.00    +0.050 A 
ATOM     18  C   UNL     1       5.824   0.766  -0.225  0.00  0.00    +0.043 A 
ATOM     19  C   UNL     1       6.021  -0.620  -0.191  0.00  0.00    +0.024 A 
ENDBRANCH   6  10
BRANCH   3  11
ATOM     11  C   UNL     1      -2.954   0.513  -0.972  0.00  0.00    +0.139 C 
BRANCH  11  12
ATOM      5  N   UNL     1      -4.939   1.360   0.150  0.00  0.00    -0.259 NA
ATOM     12  C   UNL     1      -4.386   0.339  -0.542  0.00  0.00    +0.055 A 
ATOM     15  C   UNL     1      -5.056  -0.830  -0.869  0.00  0.00    +0.024 A 
ATOM     20  C   UNL     1      -6.378  -0.959  -0.458  0.00  0.00    +0.003 A 
ATOM     21  C   UNL     1      -6.226   1.198   0.532  0.00  0.00    +0.111 A 
ATOM     22  C   UNL     1      -6.981   0.070   0.256  0.00  0.00    +0.020 A 
ENDBRANCH  11  12
ENDBRANCH   3  11
TORSDOF 3
