REMARK  Name = 45783578
REMARK  8 active torsions:
REMARK  status: ('A' for Active; 'I' for Inactive)
REMARK    1  A    between atoms: O_1  and  C_13
REMARK    2  A    between atoms: O_1  and  C_25
REMARK    3  A    between atoms: O_3  and  C_33
REMARK    4  A    between atoms: N_5  and  C_14
REMARK    5  A    between atoms: C_9  and  C_20
REMARK    6  A    between atoms: C_14  and  C_21
REMARK    7  A    between atoms: C_22  and  C_26
REMARK    8  A    between atoms: C_31  and  C_33
REMARK                            x       y       z     vdW  Elec       q    Type
REMARK                         _______ _______ _______ _____ _____    ______ ____
ROOT
ATOM      2  O   UNL     1       3.120  -1.506  -1.908  0.00  0.00    -0.336 OA
ATOM      6  N   UNL     1       1.843  -1.236  -0.088  0.00  0.00    -0.190 NA
ATOM      7  N   UNL     1       1.795  -1.490  -2.361  0.00  0.00    -0.056 NA
ATOM     20  C   UNL     1       3.058  -1.352  -0.559  0.00  0.00    +0.245 A 
ATOM     22  C   UNL     1       1.102  -1.327  -1.230  0.00  0.00    +0.204 A 
ENDROOT
BRANCH  22  26
ATOM      8  N   UNL     1      -2.365  -1.010   0.075  0.00  0.00    -0.221 NA
ATOM     25  C   UNL     1      -3.051  -1.105  -1.085  0.00  0.00    +0.215 A 
ATOM     26  C   UNL     1      -0.329  -1.253  -1.207  0.00  0.00    +0.041 A 
ATOM     29  C   UNL     1      -2.458  -1.273  -2.326  0.00  0.00    +0.068 A 
ATOM     30  C   UNL     1      -1.071  -1.347  -2.379  0.00  0.00    +0.018 A 
ATOM     32  C   UNL     1      -1.018  -1.086  -0.016  0.00  0.00    +0.126 A 
BRANCH  25   1
ATOM      1  O   UNL     1      -4.417  -1.029  -1.007  0.00  0.00    -0.473 OA
BRANCH   1  13
ATOM     13  C   UNL     1      -4.974  -0.857   0.292  0.00  0.00    +0.175 C 
ATOM     15  C   UNL     1      -6.342  -1.535   0.357  0.00  0.00    +0.044 C 
ATOM     16  C   UNL     1      -5.069   0.633   0.616  0.00  0.00    +0.044 C 
ATOM     17  C   UNL     1      -7.024  -1.295   1.700  0.00  0.00    +0.004 C 
ATOM     18  C   UNL     1      -5.751   0.874   1.958  0.00  0.00    +0.004 C 
ATOM     19  C   UNL     1      -7.117   0.194   2.024  0.00  0.00    +0.000 C 
ENDBRANCH   1  13
ENDBRANCH  25   1
ENDBRANCH  22  26
BRANCH  20   9
ATOM      5  N   UNL     1       4.320  -0.559   1.434  0.00  0.00    -0.287 NA
ATOM      9  C   UNL     1       4.381  -1.335   0.179  0.00  0.00    +0.146 C 
ATOM     10  C   UNL     1       4.839  -2.740   0.610  0.00  0.00    +0.030 C 
ATOM     11  C   UNL     1       5.069  -2.641   2.111  0.00  0.00    +0.017 C 
ATOM     12  C   UNL     1       5.299  -1.161   2.339  0.00  0.00    +0.085 C 
BRANCH   5  14
ATOM     14  C   UNL     1       4.556   0.866   1.240  0.00  0.00    +0.120 C 
BRANCH  14  21
ATOM     21  C   UNL     1       3.328   1.573   0.732  0.00  0.00    -0.033 A 
ATOM     23  C   UNL     1       3.372   2.263  -0.480  0.00  0.00    +0.006 A 
ATOM     24  C   UNL     1       2.146   1.538   1.471  0.00  0.00    +0.006 A 
ATOM     27  C   UNL     1       2.235   2.918  -0.952  0.00  0.00    +0.015 A 
ATOM     28  C   UNL     1       1.008   2.194   0.999  0.00  0.00    +0.015 A 
ATOM     31  C   UNL     1       1.053   2.884  -0.212  0.00  0.00    +0.059 A 
BRANCH  31  33
ATOM      4  O   UNL     1      -0.207   4.204  -1.760  0.00  0.00    -0.245 OA
ATOM     33  C   UNL     1      -0.133   3.566  -0.704  0.00  0.00    +0.337 C 
BRANCH  33   3
ATOM      3  O   UNL     1      -1.196   3.433   0.136  0.00  0.00    -0.477 OA
ATOM     34  H   UNL     1      -1.992   3.895  -0.206  0.00  0.00    +0.295 HD
ENDBRANCH  33   3
ENDBRANCH  31  33
ENDBRANCH  14  21
ENDBRANCH   5  14
ENDBRANCH  20   9
TORSDOF 8
