REMARK  Name = 75536089
REMARK  8 active torsions:
REMARK  status: ('A' for Active; 'I' for Inactive)
REMARK    1  A    between atoms: O_1  and  C_12
REMARK    2  A    between atoms: O_2  and  C_14
REMARK    3  A    between atoms: N_5  and  C_11
REMARK    4  A    between atoms: N_7  and  C_20
REMARK    5  A    between atoms: N_8  and  C_28
REMARK    6  A    between atoms: C_10  and  C_15
REMARK    7  A    between atoms: C_18  and  C_21
REMARK    8  A    between atoms: C_27  and  C_29
REMARK                            x       y       z     vdW  Elec       q    Type
REMARK                         _______ _______ _______ _____ _____    ______ ____
ROOT
ATOM     10  C   UNL     1       0.584  -2.072   1.008  0.00  0.00    +0.046 C 
ATOM     11  C   UNL     1       1.603  -1.933  -0.145  0.00  0.00    +0.112 C 
ATOM     12  C   UNL     1       2.350  -3.266  -0.123  0.00  0.00    +0.164 C 
ATOM     13  C   UNL     1       0.388  -3.596   1.217  0.00  0.00    +0.044 C 
ATOM     14  C   UNL     1       1.243  -4.277   0.151  0.00  0.00    +0.145 C 
ENDROOT
BRANCH  10  15
ATOM      6  N   UNL     1      -2.647  -0.934  -0.621  0.00  0.00    -0.240 NA
ATOM     15  C   UNL     1      -0.698  -1.306   0.760  0.00  0.00    -0.024 A 
ATOM     16  C   UNL     1      -1.114  -0.304   1.630  0.00  0.00    +0.009 A 
ATOM     17  C   UNL     1      -1.493  -1.580  -0.341  0.00  0.00    +0.116 A 
ATOM     19  C   UNL     1      -2.296   0.384   1.375  0.00  0.00    +0.044 A 
ATOM     20  C   UNL     1      -3.019   0.034   0.246  0.00  0.00    +0.121 A 
BRANCH  20   7
ATOM      4  O   UNL     1      -6.716   1.894  -0.498  0.00  0.00    -0.377 OA
ATOM      7  N   UNL     1      -4.205   0.734   0.003  0.00  0.00    -0.311 N 
ATOM     22  C   UNL     1      -5.266   0.676   1.018  0.00  0.00    +0.134 C 
ATOM     23  C   UNL     1      -4.669   0.931  -1.375  0.00  0.00    +0.134 C 
ATOM     24  C   UNL     1      -6.215   1.855   0.838  0.00  0.00    +0.178 C 
ATOM     25  C   UNL     1      -5.651   2.096  -1.427  0.00  0.00    +0.178 C 
ENDBRANCH  20   7
ENDBRANCH  10  15
BRANCH  11   5
ATOM      3  O   UNL     1       1.260   0.731  -1.161  0.00  0.00    -0.269 OA
ATOM      5  N   UNL     1       2.492  -0.816   0.051  0.00  0.00    -0.304 N 
ATOM     18  C   UNL     1       2.241   0.442  -0.482  0.00  0.00    +0.262 C 
ATOM     30  H   UNL     1       3.306  -0.951   0.643  0.00  0.00    +0.149 HD
BRANCH  18  21
ATOM      8  N   UNL     1       3.029   2.819  -0.099  0.00  0.00    -0.262 N 
ATOM      9  N   UNL     1       4.130   3.548   0.149  0.00  0.00    -0.176 NA
ATOM     21  C   UNL     1       3.268   1.481  -0.211  0.00  0.00    +0.123 A 
ATOM     26  C   UNL     1       4.620   1.324  -0.025  0.00  0.00    +0.057 A 
ATOM     27  C   UNL     1       5.099   2.630   0.193  0.00  0.00    +0.061 A 
ATOM     28  C   UNL     1       1.753   3.485  -0.218  0.00  0.00    +0.173 C 
ATOM     29  C   UNL     1       6.488   3.044   0.450  0.00  0.00    +0.067 C 
ENDBRANCH  18  21
ENDBRANCH  11   5
BRANCH  12   1
ATOM      1  O   UNL     1       2.999  -3.538  -1.351  0.00  0.00    -0.387 OA
ATOM     31  H   UNL     1       3.368  -4.436  -1.293  0.00  0.00    +0.210 HD
ENDBRANCH  12   1
BRANCH  14   2
ATOM      2  O   UNL     1       0.445  -4.487  -1.010  0.00  0.00    -0.389 OA
ATOM     32  H   UNL     1      -0.265  -5.106  -0.769  0.00  0.00    +0.210 HD
ENDBRANCH  14   2
TORSDOF 6
