REMARK  Name = 75537023
REMARK  2 active torsions:
REMARK  status: ('A' for Active; 'I' for Inactive)
REMARK    1  A    between atoms: N_3  and  C_8
REMARK    2  A    between atoms: N_6  and  C_20
REMARK                            x       y       z     vdW  Elec       q    Type
REMARK                         _______ _______ _______ _____ _____    ______ ____
ROOT
ATOM      1  O   UNL     1       3.448  -2.597   0.097  0.00  0.00    -0.252 OA
ATOM      2  O   UNL     1      -3.445  -2.101   0.184  0.00  0.00    -0.252 OA
ATOM      3  N   UNL     1       3.106  -0.264   0.128  0.00  0.00    -0.281 N 
ATOM      4  N   UNL     1       1.317  -1.618   0.246  0.00  0.00    -0.278 N 
ATOM      5  N   UNL     1      -1.375  -1.206  -0.313  0.00  0.00    -0.282 N 
ATOM      6  N   UNL     1      -3.157   0.196   0.332  0.00  0.00    -0.269 N 
ATOM      7  C   UNL     1       0.775  -0.279   0.409  0.00  0.00    +0.112 C 
ATOM      9  C   UNL     1       1.962   0.631   0.107  0.00  0.00    +0.133 C 
ATOM     12  C   UNL     1      -0.429  -0.087  -0.506  0.00  0.00    +0.133 C 
ATOM     13  C   UNL     1       2.716  -1.617   0.154  0.00  0.00    +0.305 C 
ATOM     14  C   UNL     1       0.431  -2.770   0.295  0.00  0.00    +0.128 C 
ATOM     18  C   UNL     1      -0.793  -2.530  -0.588  0.00  0.00    +0.128 C 
ATOM     19  C   UNL     1      -2.727  -1.104   0.070  0.00  0.00    +0.307 C 
ATOM     26  H   UNL     1      -2.473   0.868   0.662  0.00  0.00    +0.156 HD
ENDROOT
BRANCH   3   8
ATOM      8  C   UNL     1       4.458   0.221  -0.008  0.00  0.00    +0.078 C 
ATOM     10  C   UNL     1       4.609   1.053  -1.284  0.00  0.00    +0.022 C 
ATOM     11  C   UNL     1       4.868   1.022   1.230  0.00  0.00    +0.022 C 
ATOM     15  C   UNL     1       6.019   1.622  -1.420  0.00  0.00    +0.002 C 
ATOM     16  C   UNL     1       6.277   1.592   1.091  0.00  0.00    +0.002 C 
ATOM     17  C   UNL     1       6.427   2.418  -0.183  0.00  0.00    +0.000 C 
ENDBRANCH   3   8
BRANCH   6  20
ATOM     20  C   UNL     1      -4.463   0.720   0.161  0.00  0.00    +0.035 A 
ATOM     21  C   UNL     1      -4.725   2.054   0.473  0.00  0.00    +0.023 A 
ATOM     22  C   UNL     1      -5.485  -0.098  -0.318  0.00  0.00    +0.023 A 
ATOM     23  C   UNL     1      -6.010   2.570   0.305  0.00  0.00    +0.002 A 
ATOM     24  C   UNL     1      -6.770   0.418  -0.486  0.00  0.00    +0.002 A 
ATOM     25  C   UNL     1      -7.033   1.752  -0.174  0.00  0.00    +0.000 A 
ENDBRANCH   6  20
TORSDOF 2
