REMARK  Name = 45783260
REMARK  8 active torsions:
REMARK  status: ('A' for Active; 'I' for Inactive)
REMARK    1  A    between atoms: O_3  and  C_27
REMARK    2  A    between atoms: O_3  and  C_28
REMARK    3  A    between atoms: N_4  and  C_13
REMARK    4  A    between atoms: N_5  and  C_8
REMARK    5  A    between atoms: N_5  and  C_14
REMARK    6  A    between atoms: C_9  and  C_12
REMARK    7  A    between atoms: C_14  and  C_15
REMARK    8  A    between atoms: C_16  and  C_19
REMARK                            x       y       z     vdW  Elec       q    Type
REMARK                         _______ _______ _______ _____ _____    ______ ____
ROOT
ATOM      4  N   UNL     1      -0.408   2.091  -1.280  0.00  0.00    -0.293 NA
ATOM      8  C   UNL     1      -2.225   1.563   0.192  0.00  0.00    +0.070 C 
ATOM      9  C   UNL     1       0.054   2.179   0.120  0.00  0.00    +0.147 C 
ATOM     10  C   UNL     1      -0.897   1.232   0.855  0.00  0.00    +0.048 C 
ATOM     11  C   UNL     1      -1.849   1.788  -1.272  0.00  0.00    +0.103 C 
ATOM     13  C   UNL     1      -0.091   3.279  -2.062  0.00  0.00    +0.105 C 
ENDROOT
BRANCH   9  12
ATOM      2  O   UNL     1       2.300   2.745   0.895  0.00  0.00    -0.336 OA
ATOM      6  N   UNL     1       2.131   0.701  -0.005  0.00  0.00    -0.190 NA
ATOM      7  N   UNL     1       3.580   2.181   0.964  0.00  0.00    -0.056 NA
ATOM     12  C   UNL     1       1.507   1.807   0.312  0.00  0.00    +0.245 A 
ATOM     16  C   UNL     1       3.399   0.977   0.414  0.00  0.00    +0.202 A 
BRANCH  16  19
ATOM     19  C   UNL     1       4.464   0.027   0.270  0.00  0.00    +0.023 A 
ATOM     22  C   UNL     1       4.216  -1.217  -0.311  0.00  0.00    +0.015 A 
ATOM     23  C   UNL     1       5.748   0.346   0.713  0.00  0.00    +0.015 A 
ATOM     25  C   UNL     1       5.251  -2.142  -0.449  0.00  0.00    +0.046 A 
ATOM     26  C   UNL     1       6.783  -0.579   0.575  0.00  0.00    +0.046 A 
ATOM     27  C   UNL     1       6.535  -1.822  -0.006  0.00  0.00    +0.120 A 
BRANCH  27   3
ATOM      3  O   UNL     1       7.546  -2.723  -0.141  0.00  0.00    -0.495 OA
ATOM     28  C   UNL     1       7.223  -3.976  -0.744  0.00  0.00    +0.277 C 
ENDBRANCH  27   3
ENDBRANCH  16  19
ENDBRANCH   9  12
BRANCH   8   5
ATOM      5  N   UNL     1      -3.236   0.539   0.390  0.00  0.00    -0.308 NA
ATOM     29  H   UNL     1      -3.400   0.414   1.389  0.00  0.00    +0.123 HD
BRANCH   5  14
ATOM     14  C   UNL     1      -4.484   0.899  -0.273  0.00  0.00    +0.116 C 
BRANCH  14  15
ATOM      1  F   UNL     1      -8.436  -3.060   0.401  0.00  0.00    -0.205 F 
ATOM     15  C   UNL     1      -5.540  -0.159  -0.093  0.00  0.00    -0.033 A 
ATOM     17  C   UNL     1      -5.652  -1.197  -1.018  0.00  0.00    +0.008 A 
ATOM     18  C   UNL     1      -6.407  -0.101   0.998  0.00  0.00    +0.008 A 
ATOM     20  C   UNL     1      -6.630  -2.177  -0.851  0.00  0.00    +0.038 A 
ATOM     21  C   UNL     1      -7.386  -1.080   1.165  0.00  0.00    +0.038 A 
ATOM     24  C   UNL     1      -7.497  -2.119   0.240  0.00  0.00    +0.123 A 
ENDBRANCH  14  15
ENDBRANCH   5  14
ENDBRANCH   8   5
TORSDOF 6
