REMARK  Name = 75536682
REMARK  8 active torsions:
REMARK  status: ('A' for Active; 'I' for Inactive)
REMARK    1  A    between atoms: S_1  and  N_7
REMARK    2  A    between atoms: S_1  and  C_15
REMARK    3  A    between atoms: O_3  and  C_9
REMARK    4  A    between atoms: N_6  and  C_8
REMARK    5  A    between atoms: N_6  and  C_13
REMARK    6  A    between atoms: N_7  and  C_12
REMARK    7  A    between atoms: C_10  and  C_12
REMARK    8  A    between atoms: C_13  and  C_14
REMARK                            x       y       z     vdW  Elec       q    Type
REMARK                         _______ _______ _______ _____ _____    ______ ____
ROOT
ATOM      2  O   UNL     1       0.135  -1.271   1.377  0.00  0.00    -0.371 OA
ATOM      8  C   UNL     1      -1.827  -1.080   0.052  0.00  0.00    +0.111 C 
ATOM      9  C   UNL     1      -0.628  -0.654  -0.775  0.00  0.00    +0.164 C 
ATOM     10  C   UNL     1       0.508  -1.321  -0.010  0.00  0.00    +0.164 C 
ATOM     11  C   UNL     1      -1.271  -0.979   1.463  0.00  0.00    +0.181 C 
ENDROOT
BRANCH   9   3
ATOM      3  O   UNL     1      -0.699  -1.106  -2.113  0.00  0.00    -0.388 OA
ATOM     27  H   UNL     1      -0.798  -2.073  -2.104  0.00  0.00    +0.210 HD
ENDBRANCH   9   3
BRANCH   8   6
ATOM      6  N   UNL     1      -3.002  -0.249  -0.154  0.00  0.00    -0.305 NA
ATOM     26  H   UNL     1      -3.132  -0.099  -1.155  0.00  0.00    +0.123 HD
BRANCH   6  13
ATOM     13  C   UNL     1      -4.197  -0.886   0.387  0.00  0.00    +0.116 C 
BRANCH  13  14
ATOM     14  C   UNL     1      -5.422  -0.033   0.197  0.00  0.00    -0.034 A 
ATOM     16  C   UNL     1      -5.788   0.891   1.177  0.00  0.00    +0.005 A 
ATOM     17  C   UNL     1      -6.192  -0.165  -0.958  0.00  0.00    +0.005 A 
ATOM     20  C   UNL     1      -6.923   1.682   1.001  0.00  0.00    +0.000 A 
ATOM     21  C   UNL     1      -7.327   0.626  -1.134  0.00  0.00    +0.000 A 
ATOM     22  C   UNL     1      -7.693   1.549  -0.155  0.00  0.00    +0.000 A 
ENDBRANCH  13  14
ENDBRANCH   6  13
ENDBRANCH   8   6
BRANCH  10  12
ATOM     12  C   UNL     1       1.848  -0.635  -0.206  0.00  0.00    +0.140 C 
BRANCH  12   7
ATOM      7  N   UNL     1       2.885  -1.345   0.568  0.00  0.00    -0.187 NA
ATOM     28  H   UNL     1       2.717  -1.416   1.579  0.00  0.00    +0.148 HD
BRANCH   7   1
ATOM      1  S   UNL     1       4.492  -1.377   0.010  0.00  0.00    +0.058 S 
ATOM      4  O   UNL     1       4.518  -1.877  -1.352  0.00  0.00    -0.153 OA
ATOM      5  O   UNL     1       5.332  -1.983   1.025  0.00  0.00    -0.153 OA
BRANCH   1  15
ATOM     15  C   UNL     1       4.894   0.344  -0.034  0.00  0.00    +0.105 A 
ATOM     18  C   UNL     1       5.447   0.959   1.089  0.00  0.00    +0.028 A 
ATOM     19  C   UNL     1       4.655   1.087  -1.190  0.00  0.00    +0.028 A 
ATOM     23  C   UNL     1       5.761   2.318   1.056  0.00  0.00    +0.002 A 
ATOM     24  C   UNL     1       4.969   2.446  -1.222  0.00  0.00    +0.002 A 
ATOM     25  C   UNL     1       5.522   3.061  -0.100  0.00  0.00    +0.000 A 
ENDBRANCH   1  15
ENDBRANCH   7   1
ENDBRANCH  12   7
ENDBRANCH  10  12
TORSDOF 8
