REMARK  Name = 51136823
REMARK  5 active torsions:
REMARK  status: ('A' for Active; 'I' for Inactive)
REMARK    1  A    between atoms: N_3  and  C_14
REMARK    2  A    between atoms: C_10  and  C_15
REMARK    3  A    between atoms: C_14  and  C_20
REMARK    4  A    between atoms: C_22  and  C_23
REMARK    5  A    between atoms: C_26  and  C_30
REMARK                            x       y       z     vdW  Elec       q    Type
REMARK                         _______ _______ _______ _____ _____    ______ ____
ROOT
ATOM      1  O   UNL     1      -3.741   1.721   0.820  0.00  0.00    -0.336 OA
ATOM      6  N   UNL     1      -1.909   0.433   0.778  0.00  0.00    -0.190 NA
ATOM      7  N   UNL     1      -2.657   2.591   0.647  0.00  0.00    -0.056 NA
ATOM     15  C   UNL     1      -3.213   0.471   0.888  0.00  0.00    +0.245 A 
ATOM     22  C   UNL     1      -1.613   1.757   0.633  0.00  0.00    +0.202 A 
ENDROOT
BRANCH  22  23
ATOM      2  O   UNL     1       6.366  -2.904   1.192  0.00  0.00    -0.276 OA
ATOM      4  N   UNL     1       3.114   0.868   0.307  0.00  0.00    -0.312 N 
ATOM      5  N   UNL     1       5.231  -1.106   0.254  0.00  0.00    -0.299 N 
ATOM      9  N   UNL     1       2.370   3.105   0.167  0.00  0.00    -0.240 NA
ATOM     16  C   UNL     1       4.342   1.114  -0.454  0.00  0.00    +0.125 C 
ATOM     17  C   UNL     1       3.024  -0.363   1.097  0.00  0.00    +0.125 C 
ATOM     18  C   UNL     1       4.992  -0.204  -0.875  0.00  0.00    +0.126 C 
ATOM     19  C   UNL     1       4.416  -0.884   1.446  0.00  0.00    +0.126 C 
ATOM     21  C   UNL     1       2.074   1.794   0.311  0.00  0.00    +0.122 A 
ATOM     23  C   UNL     1      -0.262   2.214   0.476  0.00  0.00    +0.027 A 
ATOM     24  C   UNL     1       0.788   1.302   0.468  0.00  0.00    +0.055 A 
ATOM     26  C   UNL     1       6.163  -2.144   0.242  0.00  0.00    +0.213 C 
ATOM     27  C   UNL     1       0.004   3.572   0.330  0.00  0.00    +0.031 A 
ATOM     29  C   UNL     1       1.325   3.962   0.180  0.00  0.00    +0.113 A 
ATOM     30  C   UNL     1       6.958  -2.311  -1.030  0.00  0.00    +0.109 C 
ENDBRANCH  22  23
BRANCH  15  10
ATOM      3  N   UNL     1      -3.700  -1.941   0.516  0.00  0.00    -0.286 NA
ATOM     10  C   UNL     1      -4.195  -0.667   1.075  0.00  0.00    +0.146 C 
ATOM     11  C   UNL     1      -4.476  -0.973   2.558  0.00  0.00    +0.030 C 
ATOM     12  C   UNL     1      -4.168  -2.454   2.724  0.00  0.00    +0.017 C 
ATOM     13  C   UNL     1      -4.303  -3.006   1.319  0.00  0.00    +0.085 C 
BRANCH   3  14
ATOM     14  C   UNL     1      -3.987  -2.096  -0.904  0.00  0.00    +0.140 C 
BRANCH  14  20
ATOM      8  N   UNL     1      -3.536  -0.397  -2.586  0.00  0.00    -0.259 NA
ATOM     20  C   UNL     1      -3.013  -1.330  -1.760  0.00  0.00    +0.055 A 
ATOM     25  C   UNL     1      -1.660  -1.610  -1.664  0.00  0.00    +0.024 A 
ATOM     28  C   UNL     1      -0.787  -0.886  -2.468  0.00  0.00    +0.003 A 
ATOM     31  C   UNL     1      -2.657   0.287  -3.352  0.00  0.00    +0.111 A 
ATOM     32  C   UNL     1      -1.287   0.083  -3.331  0.00  0.00    +0.020 A 
ENDBRANCH  14  20
ENDBRANCH   3  14
ENDBRANCH  15  10
TORSDOF 4
