REMARK  Name = 11939796
REMARK  8 active torsions:
REMARK  status: ('A' for Active; 'I' for Inactive)
REMARK    1  A    between atoms: N_4  and  C_12
REMARK    2  A    between atoms: N_5  and  C_13
REMARK    3  A    between atoms: N_6  and  C_18
REMARK    4  A    between atoms: N_9  and  C_26
REMARK    5  A    between atoms: N_9  and  C_29
REMARK    6  A    between atoms: N_9  and  C_30
REMARK    7  A    between atoms: C_18  and  C_23
REMARK    8  A    between atoms: C_19  and  C_22
REMARK                            x       y       z     vdW  Elec       q    Type
REMARK                         _______ _______ _______ _____ _____    ______ ____
ROOT
ATOM      4  N   UNL     1       0.688  -2.582   0.482  0.00  0.00    -0.306 N 
ATOM      7  N   UNL     1      -1.363  -1.565  -0.036  0.00  0.00    -0.214 NA
ATOM      8  N   UNL     1      -0.628  -3.537  -1.209  0.00  0.00    -0.223 NA
ATOM     16  C   UNL     1      -0.469  -2.561  -0.277  0.00  0.00    +0.216 A 
ATOM     19  C   UNL     1      -2.479  -1.575  -0.794  0.00  0.00    +0.076 A 
ATOM     20  C   UNL     1      -1.766  -3.487  -1.931  0.00  0.00    +0.116 A 
ATOM     21  C   UNL     1      -2.737  -2.520  -1.766  0.00  0.00    +0.048 A 
ATOM     31  H   UNL     1       1.370  -3.297   0.258  0.00  0.00    +0.149 HD
ENDROOT
BRANCH   4  12
ATOM      1  O   UNL     1       3.335  -1.754   1.856  0.00  0.00    -0.370 OA
ATOM      2  O   UNL     1       1.478   0.751   1.745  0.00  0.00    -0.370 OA
ATOM     10  C   UNL     1       1.641  -0.392   0.888  0.00  0.00    +0.171 C 
ATOM     11  C   UNL     1       3.118  -0.733   0.868  0.00  0.00    +0.171 C 
ATOM     12  C   UNL     1       0.990  -1.606   1.507  0.00  0.00    +0.130 C 
ATOM     13  C   UNL     1       3.798   0.552   1.284  0.00  0.00    +0.131 C 
ATOM     14  C   UNL     1       2.075  -2.132   2.429  0.00  0.00    +0.185 C 
ATOM     15  C   UNL     1       2.768   1.181   2.205  0.00  0.00    +0.185 C 
BRANCH  13   5
ATOM      3  O   UNL     1       6.245   0.700  -0.238  0.00  0.00    -0.253 OA
ATOM      5  N   UNL     1       4.063   1.395   0.143  0.00  0.00    -0.292 N 
ATOM      6  N   UNL     1       5.265   2.306  -1.595  0.00  0.00    -0.300 N 
ATOM     17  C   UNL     1       5.280   1.402  -0.536  0.00  0.00    +0.300 C 
ATOM     32  H   UNL     1       3.307   1.965  -0.224  0.00  0.00    +0.151 HD
ATOM     33  H   UNL     1       4.422   2.846  -1.766  0.00  0.00    +0.150 HD
BRANCH   6  18
ATOM     18  C   UNL     1       6.399   2.514  -2.464  0.00  0.00    +0.102 C 
ATOM     23  C   UNL     1       7.568   1.635  -2.069  0.00  0.00    +0.024 C 
ENDBRANCH   6  18
ENDBRANCH  13   5
ENDBRANCH   4  12
BRANCH  19  22
ATOM     22  C   UNL     1      -3.413  -0.509  -0.523  0.00  0.00    +0.001 A 
ATOM     24  C   UNL     1      -4.781  -0.708  -0.723  0.00  0.00    +0.012 A 
ATOM     25  C   UNL     1      -2.953   0.726  -0.061  0.00  0.00    +0.012 A 
ATOM     26  C   UNL     1      -5.222   1.555  -0.001  0.00  0.00    +0.029 A 
ATOM     27  C   UNL     1      -5.684   0.322  -0.462  0.00  0.00    +0.024 A 
ATOM     28  C   UNL     1      -3.856   1.756   0.200  0.00  0.00    +0.024 A 
BRANCH  26   9
ATOM      9  N   UNL     1      -6.135   2.597   0.264  0.00  0.00    -0.336 N 
ATOM     29  C   UNL     1      -5.854   3.574   1.297  0.00  0.00    +0.129 C 
ATOM     30  C   UNL     1      -7.372   2.696  -0.484  0.00  0.00    +0.129 C 
ENDBRANCH  26   9
ENDBRANCH  19  22
TORSDOF 5
