REMARK  Name = 26743994
REMARK  5 active torsions:
REMARK  status: ('A' for Active; 'I' for Inactive)
REMARK    1  A    between atoms: O_1  and  C_14
REMARK    2  A    between atoms: N_3  and  C_10
REMARK    3  A    between atoms: C_7  and  C_10
REMARK    4  A    between atoms: C_11  and  C_15
REMARK    5  A    between atoms: C_16  and  C_17
REMARK                            x       y       z     vdW  Elec       q    Type
REMARK                         _______ _______ _______ _____ _____    ______ ____
ROOT
ATOM      3  N   UNL     1      -2.511  -0.210   0.032  0.00  0.00    -0.289 NA
ATOM     11  C   UNL     1      -1.949   0.986  -0.628  0.00  0.00    +0.148 C 
ATOM     12  C   UNL     1      -3.755   0.216   0.671  0.00  0.00    +0.116 C 
ATOM     13  C   UNL     1      -2.473   2.175   0.200  0.00  0.00    +0.061 C 
ATOM     14  C   UNL     1      -3.356   1.550   1.272  0.00  0.00    +0.130 C 
ENDROOT
BRANCH  11  15
ATOM      2  O   UNL     1       0.130   1.636  -1.736  0.00  0.00    -0.336 OA
ATOM      4  N   UNL     1       0.422   0.347   0.072  0.00  0.00    -0.190 NA
ATOM      5  N   UNL     1       1.513   1.457  -1.605  0.00  0.00    -0.056 NA
ATOM     15  C   UNL     1      -0.438   0.950  -0.710  0.00  0.00    +0.245 A 
ATOM     16  C   UNL     1       1.605   0.687  -0.517  0.00  0.00    +0.204 A 
BRANCH  16  17
ATOM      6  N   UNL     1       5.275   0.208  -0.158  0.00  0.00    -0.263 NA
ATOM     17  C   UNL     1       2.863   0.241   0.008  0.00  0.00    +0.041 A 
ATOM     18  C   UNL     1       2.923  -0.559   1.144  0.00  0.00    +0.014 A 
ATOM     19  C   UNL     1       4.057   0.594  -0.600  0.00  0.00    +0.122 A 
ATOM     20  C   UNL     1       4.158  -0.976   1.630  0.00  0.00    +0.020 A 
ATOM     21  C   UNL     1       5.294  -0.569   0.949  0.00  0.00    +0.111 A 
ENDBRANCH  16  17
ENDBRANCH  11  15
BRANCH  14   1
ATOM      1  O   UNL     1      -4.481   2.365   1.534  0.00  0.00    -0.390 OA
ATOM     22  H   UNL     1      -4.152   3.227   1.843  0.00  0.00    +0.210 HD
ENDBRANCH  14   1
BRANCH   3  10
ATOM     10  C   UNL     1      -2.719  -1.326  -0.882  0.00  0.00    +0.088 C 
BRANCH  10   7
ATOM      7  C   UNL     1      -2.774  -2.626  -0.148  0.00  0.00    +0.003 C 
ATOM      8  C   UNL     1      -1.496  -3.272   0.298  0.00  0.00    +0.005 C 
ATOM      9  C   UNL     1      -2.286  -3.872  -0.827  0.00  0.00    +0.005 C 
ENDBRANCH  10   7
ENDBRANCH   3  10
TORSDOF 5
