REMARK  Name = 75536696
REMARK  10 active torsions:
REMARK  status: ('A' for Active; 'I' for Inactive)
REMARK    1  A    between atoms: S_1  and  N_7
REMARK    2  A    between atoms: S_1  and  C_16
REMARK    3  A    between atoms: O_3  and  C_9
REMARK    4  A    between atoms: N_6  and  C_8
REMARK    5  A    between atoms: N_6  and  C_13
REMARK    6  A    between atoms: N_7  and  C_12
REMARK    7  A    between atoms: C_10  and  C_12
REMARK    8  A    between atoms: C_13  and  C_14
REMARK    9  A    between atoms: C_13  and  C_15
REMARK   10  A    between atoms: C_21  and  C_22
REMARK                            x       y       z     vdW  Elec       q    Type
REMARK                         _______ _______ _______ _____ _____    ______ ____
ROOT
ATOM     12  C   UNL     1       0.094   0.592   0.213  0.00  0.00    +0.140 C 
ENDROOT
BRANCH  12  10
ATOM      2  O   UNL     1      -1.736   0.801  -1.353  0.00  0.00    -0.371 OA
ATOM      8  C   UNL     1      -3.570   0.066  -0.034  0.00  0.00    +0.111 C 
ATOM      9  C   UNL     1      -2.296  -0.054   0.781  0.00  0.00    +0.164 C 
ATOM     10  C   UNL     1      -1.380   0.908   0.036  0.00  0.00    +0.164 C 
ATOM     11  C   UNL     1      -3.017   0.153  -1.447  0.00  0.00    +0.181 C 
BRANCH   9   3
ATOM      3  O   UNL     1      -2.474   0.327   2.131  0.00  0.00    -0.388 OA
ATOM     24  H   UNL     1      -2.824   1.233   2.150  0.00  0.00    +0.210 HD
ENDBRANCH   9   3
BRANCH   8   6
ATOM      6  N   UNL     1      -4.486  -1.048   0.147  0.00  0.00    -0.307 NA
ATOM     23  H   UNL     1      -4.552  -1.291   1.135  0.00  0.00    +0.123 HD
BRANCH   6  13
ATOM     13  C   UNL     1      -5.809  -0.732  -0.377  0.00  0.00    +0.048 C 
ATOM     14  C   UNL     1      -6.576   0.140   0.615  0.00  0.00    +0.023 C 
ATOM     15  C   UNL     1      -6.564  -2.025  -0.666  0.00  0.00    +0.023 C 
ENDBRANCH   6  13
ENDBRANCH   8   6
ENDBRANCH  12  10
BRANCH  12   7
ATOM      7  N   UNL     1       0.905   1.570  -0.539  0.00  0.00    -0.187 NA
ATOM     25  H   UNL     1       0.717   1.622  -1.548  0.00  0.00    +0.148 HD
BRANCH   7   1
ATOM      1  S   UNL     1       2.451   2.006   0.020  0.00  0.00    +0.058 S 
ATOM      4  O   UNL     1       2.355   2.457   1.395  0.00  0.00    -0.153 OA
ATOM      5  O   UNL     1       3.096   2.838  -0.977  0.00  0.00    -0.153 OA
BRANCH   1  16
ATOM     16  C   UNL     1       3.290   0.450   0.015  0.00  0.00    +0.105 A 
ATOM     17  C   UNL     1       3.977   0.032  -1.125  0.00  0.00    +0.029 A 
ATOM     18  C   UNL     1       3.262  -0.362   1.149  0.00  0.00    +0.029 A 
ATOM     19  C   UNL     1       4.636  -1.197  -1.130  0.00  0.00    +0.005 A 
ATOM     20  C   UNL     1       3.921  -1.591   1.144  0.00  0.00    +0.005 A 
ATOM     21  C   UNL     1       4.609  -2.008   0.004  0.00  0.00    -0.050 A 
ATOM     22  C   UNL     1       5.314  -3.322  -0.002  0.00  0.00    +0.044 C 
ENDBRANCH   1  16
ENDBRANCH   7   1
ENDBRANCH  12   7
TORSDOF 7
