REMARK  Name = 26743452
REMARK  7 active torsions:
REMARK  status: ('A' for Active; 'I' for Inactive)
REMARK    1  A    between atoms: S_1  and  C_23
REMARK    2  A    between atoms: S_1  and  C_24
REMARK    3  A    between atoms: O_3  and  C_15
REMARK    4  A    between atoms: N_7  and  C_11
REMARK    5  A    between atoms: N_8  and  C_21
REMARK    6  A    between atoms: C_12  and  C_20
REMARK    7  A    between atoms: C_22  and  C_23
REMARK                            x       y       z     vdW  Elec       q    Type
REMARK                         _______ _______ _______ _____ _____    ______ ____
ROOT
ATOM      4  O   UNL     1      -1.296   2.008  -2.035  0.00  0.00    -0.336 OA
ATOM      9  N   UNL     1      -0.590   1.365  -0.009  0.00  0.00    -0.193 NA
ATOM     10  N   UNL     1       0.102   2.067  -2.074  0.00  0.00    -0.060 NA
ATOM     20  C   UNL     1      -1.621   1.586  -0.785  0.00  0.00    +0.245 A 
ATOM     22  C   UNL     1       0.445   1.673  -0.844  0.00  0.00    +0.193 A 
ENDROOT
BRANCH  20  12
ATOM      7  N   UNL     1      -3.366   0.424   0.557  0.00  0.00    -0.286 NA
ATOM     12  C   UNL     1      -3.097   1.437  -0.484  0.00  0.00    +0.149 C 
ATOM     13  C   UNL     1      -4.589   0.845   1.238  0.00  0.00    +0.116 C 
ATOM     14  C   UNL     1      -3.730   2.733   0.055  0.00  0.00    +0.061 C 
ATOM     15  C   UNL     1      -4.368   2.338   1.381  0.00  0.00    +0.130 C 
BRANCH   7  11
ATOM      8  N   UNL     1      -2.497  -3.692  -0.052  0.00  0.00    -0.305 NA
ATOM     11  C   UNL     1      -3.471  -0.934   0.026  0.00  0.00    +0.060 C 
ATOM     16  C   UNL     1      -2.197  -1.329  -0.725  0.00  0.00    +0.034 C 
ATOM     17  C   UNL     1      -3.738  -1.927   1.160  0.00  0.00    +0.034 C 
ATOM     18  C   UNL     1      -2.262  -2.787  -1.186  0.00  0.00    +0.085 C 
ATOM     19  C   UNL     1      -3.753  -3.365   0.638  0.00  0.00    +0.085 C 
ATOM     21  C   UNL     1      -2.506  -5.084  -0.501  0.00  0.00    +0.104 C 
ENDBRANCH   7  11
BRANCH  15   3
ATOM      3  O   UNL     1      -5.585   3.032   1.578  0.00  0.00    -0.390 OA
ATOM     30  H   UNL     1      -5.381   3.983   1.585  0.00  0.00    +0.210 HD
ENDBRANCH  15   3
ENDBRANCH  20  12
BRANCH  22  23
ATOM     23  C   UNL     1       1.846   1.578  -0.420  0.00  0.00    +0.251 C 
BRANCH  23   1
ATOM      1  S   UNL     1       2.300  -0.132  -0.338  0.00  0.00    +0.004 S 
ATOM      5  O   UNL     1       2.185  -0.680  -1.677  0.00  0.00    -0.169 OA
ATOM      6  O   UNL     1       1.592  -0.744   0.771  0.00  0.00    -0.169 OA
BRANCH   1  24
ATOM      2  F   UNL     1       8.014  -0.009   1.106  0.00  0.00    -0.205 F 
ATOM     24  C   UNL     1       4.012  -0.096   0.095  0.00  0.00    +0.089 A 
ATOM     25  C   UNL     1       4.392  -0.104   1.437  0.00  0.00    +0.030 A 
ATOM     26  C   UNL     1       4.983  -0.059  -0.905  0.00  0.00    +0.030 A 
ATOM     27  C   UNL     1       5.744  -0.075   1.779  0.00  0.00    +0.040 A 
ATOM     28  C   UNL     1       6.335  -0.030  -0.563  0.00  0.00    +0.040 A 
ATOM     29  C   UNL     1       6.716  -0.038   0.779  0.00  0.00    +0.124 A 
ENDBRANCH   1  24
ENDBRANCH  23   1
ENDBRANCH  22  23
TORSDOF 6
