REMARK  Name = 40777714
REMARK  16 active torsions:
REMARK  status: ('A' for Active; 'I' for Inactive)
REMARK    1  A    between atoms: O_2  and  C_28
REMARK    2  A    between atoms: N_4  and  C_9
REMARK    3  A    between atoms: N_5  and  C_22
REMARK    4  A    between atoms: C_7  and  C_10
REMARK    5  A    between atoms: C_13  and  C_14
REMARK    6  A    between atoms: C_13  and  C_18
REMARK    7  A    between atoms: C_13  and  C_19
REMARK    8  A    between atoms: C_13  and  C_20
REMARK    9  A    between atoms: C_14  and  C_17
REMARK   10  A    between atoms: C_15  and  C_21
REMARK   11  A    between atoms: C_16  and  C_24
REMARK   12  A    between atoms: C_18  and  C_28
REMARK   13  A    between atoms: C_23  and  C_25
REMARK   14  A    between atoms: C_23  and  C_31
REMARK   15  A    between atoms: C_23  and  C_32
REMARK   16  A    between atoms: C_23  and  C_33
REMARK                            x       y       z     vdW  Elec       q    Type
REMARK                         _______ _______ _______ _____ _____    ______ ____
ROOT
ATOM      7  C   UNL     1      -0.605  -1.460  -0.113  0.00  0.00    +0.047 C 
ATOM      8  C   UNL     1      -1.322  -0.174   0.348  0.00  0.00    +0.039 C 
ATOM      9  C   UNL     1      -2.400   0.105  -0.707  0.00  0.00    +0.097 C 
ATOM     11  C   UNL     1      -0.921  -1.497  -1.580  0.00  0.00    -0.021 C 
ATOM     12  C   UNL     1      -1.902  -0.646  -1.897  0.00  0.00    -0.009 C 
ENDROOT
BRANCH   7  10
ATOM      5  N   UNL     1       2.997  -1.002   0.368  0.00  0.00    -0.236 N 
ATOM      6  N   UNL     1       2.875  -2.127   1.092  0.00  0.00    -0.171 NA
ATOM     10  C   UNL     1       0.870  -1.472   0.217  0.00  0.00    +0.003 A 
ATOM     15  C   UNL     1       1.825  -0.568  -0.178  0.00  0.00    +0.046 A 
ATOM     16  C   UNL     1       1.573  -2.410   0.996  0.00  0.00    +0.064 A 
ATOM     21  C   UNL     1       1.719   0.648  -1.010  0.00  0.00    +0.066 C 
ATOM     24  C   UNL     1       1.039  -3.603   1.676  0.00  0.00    +0.068 C 
BRANCH   5  22
ATOM     22  C   UNL     1       4.247  -0.396   0.236  0.00  0.00    +0.066 A 
ATOM     25  C   UNL     1       6.747   0.815  -0.018  0.00  0.00    -0.042 A 
ATOM     26  C   UNL     1       5.305  -1.096  -0.343  0.00  0.00    +0.028 A 
ATOM     27  C   UNL     1       4.439   0.910   0.688  0.00  0.00    +0.028 A 
ATOM     29  C   UNL     1       6.555  -0.490  -0.470  0.00  0.00    +0.006 A 
ATOM     30  C   UNL     1       5.689   1.515   0.561  0.00  0.00    +0.006 A 
BRANCH  25  23
ATOM     23  C   UNL     1       8.084   1.462  -0.154  0.00  0.00    -0.013 C 
ATOM     31  C   UNL     1       8.524   1.544  -1.649  0.00  0.00    +0.015 C 
ATOM     32  C   UNL     1       9.181   0.662   0.615  0.00  0.00    +0.015 C 
ATOM     33  C   UNL     1       8.180   2.926   0.388  0.00  0.00    +0.015 C 
ENDBRANCH  25  23
ENDBRANCH   5  22
ENDBRANCH   7  10
BRANCH   9   4
ATOM      1  O   UNL     1      -4.492   1.539   0.646  0.00  0.00    -0.276 OA
ATOM      4  N   UNL     1      -3.691  -0.407  -0.332  0.00  0.00    -0.309 N 
ATOM     17  C   UNL     1      -4.639   0.363   0.321  0.00  0.00    +0.214 C 
ATOM     34  H   UNL     1      -3.899  -1.383  -0.525  0.00  0.00    +0.149 HD
BRANCH  17  14
ATOM     14  C   UNL     1      -5.927  -0.393   0.609  0.00  0.00    +0.102 C 
BRANCH  14  13
ATOM     13  C   UNL     1      -7.027  -0.239  -0.473  0.00  0.00    -0.017 C 
ATOM     19  C   UNL     1      -6.519  -0.757  -1.835  0.00  0.00    +0.012 C 
ATOM     20  C   UNL     1      -8.225  -1.121  -0.061  0.00  0.00    +0.012 C 
BRANCH  13  18
ATOM     18  C   UNL     1      -7.485   1.227  -0.660  0.00  0.00    +0.127 C 
BRANCH  18  28
ATOM      3  O   UNL     1      -7.313   2.451   1.422  0.00  0.00    -0.251 OA
ATOM     28  C   UNL     1      -8.017   1.892   0.591  0.00  0.00    +0.305 C 
BRANCH  28   2
ATOM      2  O   UNL     1      -9.365   1.798   0.705  0.00  0.00    -0.481 OA
ATOM     35  H   UNL     1      -9.693   2.228   1.523  0.00  0.00    +0.295 HD
ENDBRANCH  28   2
ENDBRANCH  18  28
ENDBRANCH  13  18
ENDBRANCH  14  13
ENDBRANCH  17  14
ENDBRANCH   9   4
TORSDOF 9
