REMARK  Name = 26744397
REMARK  5 active torsions:
REMARK  status: ('A' for Active; 'I' for Inactive)
REMARK    1  A    between atoms: O_2  and  C_10
REMARK    2  A    between atoms: N_4  and  C_12
REMARK    3  A    between atoms: C_8  and  C_13
REMARK    4  A    between atoms: C_12  and  C_14
REMARK    5  A    between atoms: C_15  and  C_18
REMARK                            x       y       z     vdW  Elec       q    Type
REMARK                         _______ _______ _______ _____ _____    ______ ____
ROOT
ATOM      4  N   UNL     1       2.926  -0.350   0.504  0.00  0.00    -0.285 NA
ATOM      8  C   UNL     1       2.390  -0.947  -0.737  0.00  0.00    +0.149 C 
ATOM      9  C   UNL     1       2.717  -2.447  -0.625  0.00  0.00    +0.061 C 
ATOM     10  C   UNL     1       3.476  -2.589   0.689  0.00  0.00    +0.130 C 
ATOM     11  C   UNL     1       4.038  -1.200   0.925  0.00  0.00    +0.116 C 
ENDROOT
BRANCH   8  13
ATOM      3  O   UNL     1       0.546  -0.047  -2.064  0.00  0.00    -0.336 OA
ATOM      5  N   UNL     1      -0.089  -0.975  -0.127  0.00  0.00    -0.190 NA
ATOM      6  N   UNL     1      -0.848   0.085  -2.007  0.00  0.00    -0.056 NA
ATOM     13  C   UNL     1       0.911  -0.681  -0.919  0.00  0.00    +0.245 A 
ATOM     15  C   UNL     1      -1.147  -0.485  -0.836  0.00  0.00    +0.202 A 
BRANCH  15  18
ATOM      1  F   UNL     1      -6.364  -0.865   1.060  0.00  0.00    -0.205 F 
ATOM     18  C   UNL     1      -2.492  -0.583  -0.347  0.00  0.00    +0.023 A 
ATOM     21  C   UNL     1      -2.745  -1.191   0.883  0.00  0.00    +0.014 A 
ATOM     22  C   UNL     1      -3.547  -0.070  -1.101  0.00  0.00    +0.014 A 
ATOM     23  C   UNL     1      -4.052  -1.286   1.358  0.00  0.00    +0.039 A 
ATOM     24  C   UNL     1      -4.855  -0.165  -0.626  0.00  0.00    +0.039 A 
ATOM     25  C   UNL     1      -5.108  -0.773   0.604  0.00  0.00    +0.123 A 
ENDBRANCH  15  18
ENDBRANCH   8  13
BRANCH  10   2
ATOM      2  O   UNL     1       4.500  -3.558   0.574  0.00  0.00    -0.390 OA
ATOM     26  H   UNL     1       4.078  -4.404   0.348  0.00  0.00    +0.210 HD
ENDBRANCH  10   2
BRANCH   4  12
ATOM     12  C   UNL     1       3.329   1.041   0.345  0.00  0.00    +0.122 C 
BRANCH  12  14
ATOM      7  N   UNL     1       0.822   3.680  -0.694  0.00  0.00    -0.263 NA
ATOM     14  C   UNL     1       2.149   1.975   0.391  0.00  0.00    -0.015 A 
ATOM     16  C   UNL     1       1.314   2.021   1.502  0.00  0.00    +0.008 A 
ATOM     17  C   UNL     1       1.863   2.817  -0.671  0.00  0.00    +0.115 A 
ATOM     19  C   UNL     1       0.233   2.896   1.516  0.00  0.00    +0.020 A 
ATOM     20  C   UNL     1       0.032   3.697   0.403  0.00  0.00    +0.111 A 
ENDBRANCH  12  14
ENDBRANCH   4  12
TORSDOF 5
