REMARK  Name = 56774925
REMARK  10 active torsions:
REMARK  status: ('A' for Active; 'I' for Inactive)
REMARK    1  A    between atoms: O_3  and  C_10
REMARK    2  A    between atoms: O_4  and  C_16
REMARK    3  A    between atoms: O_4  and  C_22
REMARK    4  A    between atoms: N_7  and  C_12
REMARK    5  A    between atoms: N_8  and  C_21
REMARK    6  A    between atoms: C_9  and  C_10
REMARK    7  A    between atoms: C_10  and  C_14
REMARK    8  A    between atoms: C_12  and  C_16
REMARK    9  A    between atoms: C_22  and  C_23
REMARK   10  A    between atoms: C_24  and  C_25
REMARK                            x       y       z     vdW  Elec       q    Type
REMARK                         _______ _______ _______ _____ _____    ______ ____
ROOT
ATOM     10  C   UNL     1      -1.779   0.979  -0.950  0.00  0.00    +0.167 C 
ENDROOT
BRANCH  10   9
ATOM      2  O   UNL     1      -2.542   1.978   1.701  0.00  0.00    -0.369 OA
ATOM      5  O   UNL     1      -5.822   2.080   0.194  0.00  0.00    -0.273 OA
ATOM      7  N   UNL     1      -4.085   0.575  -0.172  0.00  0.00    -0.289 N 
ATOM      9  C   UNL     1      -2.672   0.248   0.057  0.00  0.00    +0.135 C 
ATOM     11  C   UNL     1      -2.283   0.595   1.489  0.00  0.00    +0.185 C 
ATOM     13  C   UNL     1      -4.700   1.649   0.467  0.00  0.00    +0.242 C 
ATOM     15  C   UNL     1      -3.924   2.248   1.635  0.00  0.00    +0.255 C 
BRANCH   7  12
ATOM     12  C   UNL     1      -4.780  -0.147  -1.230  0.00  0.00    +0.136 C 
BRANCH  12  16
ATOM     16  C   UNL     1      -5.626  -1.276  -0.671  0.00  0.00    +0.178 C 
BRANCH  16   4
ATOM      4  O   UNL     1      -4.787  -2.210  -0.004  0.00  0.00    -0.378 OA
BRANCH   4  22
ATOM     22  C   UNL     1      -5.537  -3.289   0.538  0.00  0.00    +0.156 C 
ATOM     23  C   UNL     1      -4.591  -4.246   1.233  0.00  0.00    +0.034 C 
ENDBRANCH   4  22
ENDBRANCH  16   4
ENDBRANCH  12  16
ENDBRANCH   7  12
ENDBRANCH  10   9
BRANCH  10  14
ATOM     14  C   UNL     1      -0.324   0.634  -0.762  0.00  0.00    -0.017 A 
ATOM     17  C   UNL     1       0.097  -0.692  -0.863  0.00  0.00    +0.008 A 
ATOM     18  C   UNL     1       0.602   1.641  -0.488  0.00  0.00    +0.008 A 
ATOM     19  C   UNL     1       1.444  -1.012  -0.690  0.00  0.00    +0.023 A 
ATOM     20  C   UNL     1       1.949   1.321  -0.315  0.00  0.00    +0.023 A 
ATOM     21  C   UNL     1       2.370  -0.005  -0.416  0.00  0.00    +0.034 A 
BRANCH  21   8
ATOM      6  O   UNL     1       4.719   1.760   0.178  0.00  0.00    -0.269 OA
ATOM      8  N   UNL     1       3.717  -0.324  -0.243  0.00  0.00    -0.281 N 
ATOM     24  C   UNL     1       4.781   0.544   0.035  0.00  0.00    +0.255 C 
ATOM     30  H   UNL     1       3.943  -1.313  -0.328  0.00  0.00    +0.155 HD
BRANCH  24  25
ATOM      1  S   UNL     1       6.230  -1.805   0.028  0.00  0.00    -0.092 S 
ATOM     25  C   UNL     1       6.109  -0.105   0.193  0.00  0.00    +0.074 A 
ATOM     26  C   UNL     1       7.327   0.476   0.466  0.00  0.00    +0.021 A 
ATOM     27  C   UNL     1       8.374  -0.487   0.541  0.00  0.00    +0.008 A 
ATOM     28  C   UNL     1       7.916  -1.768   0.323  0.00  0.00    +0.046 A 
ENDBRANCH  24  25
ENDBRANCH  21   8
ENDBRANCH  10  14
BRANCH  10   3
ATOM      3  O   UNL     1      -2.182   0.637  -2.272  0.00  0.00    -0.385 OA
ATOM     29  H   UNL     1      -1.899  -0.271  -2.469  0.00  0.00    +0.210 HD
ENDBRANCH  10   3
TORSDOF 9
