REMARK  Name = 75536617
REMARK  6 active torsions:
REMARK  status: ('A' for Active; 'I' for Inactive)
REMARK    1  A    between atoms: O_4  and  C_10
REMARK    2  A    between atoms: N_6  and  C_8
REMARK    3  A    between atoms: N_6  and  C_9
REMARK    4  A    between atoms: N_7  and  C_18
REMARK    5  A    between atoms: C_13  and  C_18
REMARK    6  A    between atoms: C_19  and  C_20
REMARK                            x       y       z     vdW  Elec       q    Type
REMARK                         _______ _______ _______ _____ _____    ______ ____
ROOT
ATOM      3  O   UNL     1       0.554   0.314  -1.028  0.00  0.00    -0.371 OA
ATOM      9  C   UNL     1      -1.537  -0.483  -0.230  0.00  0.00    +0.111 C 
ATOM     10  C   UNL     1      -0.515  -1.602  -0.143  0.00  0.00    +0.164 C 
ATOM     13  C   UNL     1       0.787  -0.812  -0.165  0.00  0.00    +0.165 C 
ATOM     14  C   UNL     1      -0.865   0.462  -1.212  0.00  0.00    +0.181 C 
ENDROOT
BRANCH  10   4
ATOM      4  O   UNL     1      -0.646  -2.371   1.037  0.00  0.00    -0.388 OA
ATOM     27  H   UNL     1      -0.584  -1.772   1.800  0.00  0.00    +0.210 HD
ENDBRANCH  10   4
BRANCH   9   6
ATOM      6  N   UNL     1      -2.848  -0.925  -0.676  0.00  0.00    -0.306 NA
ATOM     26  H   UNL     1      -3.105  -1.794  -0.210  0.00  0.00    +0.123 HD
BRANCH   6   8
ATOM      1  F   UNL     1      -7.487   1.851   0.646  0.00  0.00    -0.206 F 
ATOM      2  F   UNL     1      -7.191  -0.303   0.666  0.00  0.00    -0.206 F 
ATOM      8  C   UNL     1      -3.857   0.099  -0.410  0.00  0.00    +0.054 C 
ATOM     11  C   UNL     1      -5.053  -0.092  -1.351  0.00  0.00    +0.024 C 
ATOM     12  C   UNL     1      -4.291   0.034   1.060  0.00  0.00    +0.024 C 
ATOM     15  C   UNL     1      -6.160   0.917  -1.054  0.00  0.00    +0.077 C 
ATOM     16  C   UNL     1      -5.397   1.044   1.357  0.00  0.00    +0.077 C 
ATOM     17  C   UNL     1      -6.572   0.878   0.408  0.00  0.00    +0.249 C 
ENDBRANCH   6   8
ENDBRANCH   9   6
BRANCH  13  18
ATOM     18  C   UNL     1       1.968  -1.616  -0.679  0.00  0.00    +0.138 C 
BRANCH  18   7
ATOM      5  O   UNL     1       3.867  -1.371   1.461  0.00  0.00    -0.270 OA
ATOM      7  N   UNL     1       3.169  -0.832  -0.686  0.00  0.00    -0.309 N 
ATOM     19  C   UNL     1       4.036  -0.772   0.402  0.00  0.00    +0.244 C 
ATOM     28  H   UNL     1       3.332  -0.257  -1.505  0.00  0.00    +0.149 HD
BRANCH  19  20
ATOM     20  C   UNL     1       5.224   0.107   0.246  0.00  0.00    +0.037 A 
ATOM     21  C   UNL     1       5.821   0.679   1.369  0.00  0.00    +0.013 A 
ATOM     22  C   UNL     1       5.743   0.358  -1.024  0.00  0.00    +0.013 A 
ATOM     23  C   UNL     1       6.937   1.502   1.223  0.00  0.00    +0.001 A 
ATOM     24  C   UNL     1       6.859   1.181  -1.170  0.00  0.00    +0.001 A 
ATOM     25  C   UNL     1       7.456   1.754  -0.047  0.00  0.00    +0.000 A 
ENDBRANCH  19  20
ENDBRANCH  18   7
ENDBRANCH  13  18
TORSDOF 6
