REMARK  Name = 7156591
REMARK  7 active torsions:
REMARK  status: ('A' for Active; 'I' for Inactive)
REMARK    1  A    between atoms: O_3  and  C_22
REMARK    2  A    between atoms: N_8  and  C_24
REMARK    3  A    between atoms: C_9  and  C_12
REMARK    4  A    between atoms: C_9  and  C_17
REMARK    5  A    between atoms: C_12  and  C_20
REMARK    6  A    between atoms: C_17  and  C_22
REMARK    7  A    between atoms: C_29  and  C_30
REMARK                            x       y       z     vdW  Elec       q    Type
REMARK                         _______ _______ _______ _____ _____    ______ ____
ROOT
ATOM      1  O   UNL     1      -1.634   1.041   1.038  0.00  0.00    -0.276 OA
ATOM      2  O   UNL     1       1.173   1.030  -0.279  0.00  0.00    -0.273 OA
ATOM      5  O   UNL     1       4.042  -2.572   0.674  0.00  0.00    -0.252 OA
ATOM      6  N   UNL     1      -0.926  -0.683  -0.333  0.00  0.00    -0.288 N 
ATOM      7  N   UNL     1       1.841  -2.919   0.303  0.00  0.00    -0.293 N 
ATOM      8  N   UNL     1       2.689  -0.705   0.196  0.00  0.00    -0.193 N 
ATOM     15  C   UNL     1       0.248  -1.059   0.456  0.00  0.00    +0.183 C 
ATOM     16  C   UNL     1       0.505  -2.486   0.019  0.00  0.00    +0.105 C 
ATOM     18  C   UNL     1       0.143  -2.467  -1.465  0.00  0.00    +0.043 C 
ATOM     19  C   UNL     1      -1.089  -1.570  -1.486  0.00  0.00    +0.110 C 
ATOM     20  C   UNL     1      -1.806   0.313   0.059  0.00  0.00    +0.217 C 
ATOM     21  C   UNL     1       1.398  -0.128   0.079  0.00  0.00    +0.250 C 
ATOM     23  C   UNL     1       2.941  -2.089   0.391  0.00  0.00    +0.313 C 
ATOM     31  H   UNL     1       1.996  -3.914   0.432  0.00  0.00    +0.151 HD
ENDROOT
BRANCH   8  24
ATOM     24  C   UNL     1       3.832   0.180   0.090  0.00  0.00    +0.045 A 
ATOM     25  C   UNL     1       3.715   1.501   0.500  0.00  0.00    +0.024 A 
ATOM     26  C   UNL     1       5.028  -0.306  -0.420  0.00  0.00    +0.024 A 
ATOM     27  C   UNL     1       4.815   2.353   0.399  0.00  0.00    +0.005 A 
ATOM     28  C   UNL     1       6.129   0.546  -0.522  0.00  0.00    +0.005 A 
ATOM     29  C   UNL     1       6.022   1.875  -0.112  0.00  0.00    -0.050 A 
ATOM     30  C   UNL     1       7.199   2.785  -0.221  0.00  0.00    +0.044 C 
ENDBRANCH   8  24
BRANCH  20  12
ATOM     12  C   UNL     1      -3.029   0.477  -0.808  0.00  0.00    +0.103 C 
BRANCH  12   9
ATOM      9  C   UNL     1      -4.214   0.955   0.043  0.00  0.00    -0.011 C 
ATOM     10  C   UNL     1      -3.887   2.314   0.705  0.00  0.00    +0.008 C 
ATOM     11  C   UNL     1      -5.450   1.223  -0.845  0.00  0.00    +0.008 C 
ATOM     13  C   UNL     1      -5.064   3.225   0.378  0.00  0.00    +0.001 C 
ATOM     14  C   UNL     1      -5.519   2.737  -0.985  0.00  0.00    +0.001 C 
BRANCH   9  17
ATOM     17  C   UNL     1      -4.533  -0.109   1.100  0.00  0.00    +0.127 C 
BRANCH  17  22
ATOM      4  O   UNL     1      -5.759  -1.669  -0.316  0.00  0.00    -0.251 OA
ATOM     22  C   UNL     1      -4.851  -1.431   0.466  0.00  0.00    +0.305 C 
BRANCH  22   3
ATOM      3  O   UNL     1      -3.960  -2.362   0.894  0.00  0.00    -0.481 OA
ATOM     32  H   UNL     1      -4.132  -3.243   0.497  0.00  0.00    +0.295 HD
ENDBRANCH  22   3
ENDBRANCH  17  22
ENDBRANCH   9  17
ENDBRANCH  12   9
ENDBRANCH  20  12
TORSDOF 6
