REMARK  Name = 38026473
REMARK  6 active torsions:
REMARK  status: ('A' for Active; 'I' for Inactive)
REMARK    1  A    between atoms: N_3  and  C_14
REMARK    2  A    between atoms: N_4  and  C_9
REMARK    3  A    between atoms: N_6  and  C_18
REMARK    4  A    between atoms: C_10  and  C_13
REMARK    5  A    between atoms: C_16  and  C_17
REMARK    6  A    between atoms: C_24  and  C_28
REMARK                            x       y       z     vdW  Elec       q    Type
REMARK                         _______ _______ _______ _____ _____    ______ ____
ROOT
ATOM      3  N   UNL     1      -1.506   3.042   1.047  0.00  0.00    -0.293 NA
ATOM      9  C   UNL     1       0.480   3.060  -0.174  0.00  0.00    +0.090 C 
ATOM     10  C   UNL     1      -1.932   2.705  -0.325  0.00  0.00    +0.147 C 
ATOM     11  C   UNL     1      -0.617   2.562  -1.115  0.00  0.00    +0.052 C 
ATOM     12  C   UNL     1      -0.274   3.825   0.904  0.00  0.00    +0.107 C 
ATOM     14  C   UNL     1      -2.523   3.761   1.804  0.00  0.00    +0.105 C 
ENDROOT
BRANCH   9   4
ATOM      2  O   UNL     1       2.889   1.923  -1.225  0.00  0.00    -0.253 OA
ATOM      4  N   UNL     1       1.235   1.966   0.389  0.00  0.00    -0.295 N 
ATOM      6  N   UNL     1       2.916   0.414   0.573  0.00  0.00    -0.269 N 
ATOM     15  C   UNL     1       2.407   1.469  -0.190  0.00  0.00    +0.304 C 
ATOM     29  H   UNL     1       0.859   1.489   1.204  0.00  0.00    +0.151 HD
ATOM     30  H   UNL     1       2.392   0.160   1.407  0.00  0.00    +0.156 HD
BRANCH   6  18
ATOM     18  C   UNL     1       4.079  -0.353   0.328  0.00  0.00    +0.035 A 
ATOM     19  C   UNL     1       4.436  -1.378   1.204  0.00  0.00    +0.023 A 
ATOM     20  C   UNL     1       4.869  -0.084  -0.790  0.00  0.00    +0.023 A 
ATOM     22  C   UNL     1       5.583  -2.133   0.963  0.00  0.00    +0.005 A 
ATOM     23  C   UNL     1       6.016  -0.840  -1.031  0.00  0.00    +0.005 A 
ATOM     24  C   UNL     1       6.373  -1.865  -0.155  0.00  0.00    -0.050 A 
ATOM     28  C   UNL     1       7.599  -2.674  -0.414  0.00  0.00    +0.044 C 
ENDBRANCH   6  18
ENDBRANCH   9   4
BRANCH  10  13
ATOM      1  O   UNL     1      -4.022   1.611  -0.963  0.00  0.00    -0.336 OA
ATOM      5  N   UNL     1      -2.532   0.244   0.001  0.00  0.00    -0.189 NA
ATOM      7  N   UNL     1      -4.623   0.347  -0.921  0.00  0.00    -0.054 NA
ATOM     13  C   UNL     1      -2.794   1.463  -0.401  0.00  0.00    +0.245 A 
ATOM     16  C   UNL     1      -3.683  -0.404  -0.339  0.00  0.00    +0.220 A 
BRANCH  16  17
ATOM      8  N   UNL     1      -5.050  -2.322  -0.471  0.00  0.00    -0.252 NA
ATOM     17  C   UNL     1      -3.862  -1.804  -0.085  0.00  0.00    +0.111 A 
ATOM     21  C   UNL     1      -2.856  -2.539   0.520  0.00  0.00    +0.031 A 
ATOM     25  C   UNL     1      -3.082  -3.893   0.743  0.00  0.00    +0.004 A 
ATOM     26  C   UNL     1      -5.234  -3.641  -0.237  0.00  0.00    +0.111 A 
ATOM     27  C   UNL     1      -4.292  -4.462   0.360  0.00  0.00    +0.020 A 
ENDBRANCH  16  17
ENDBRANCH  10  13
TORSDOF 4
