REMARK  Name = 75536779
REMARK  7 active torsions:
REMARK  status: ('A' for Active; 'I' for Inactive)
REMARK    1  A    between atoms: O_2  and  C_10
REMARK    2  A    between atoms: N_4  and  C_9
REMARK    3  A    between atoms: N_4  and  C_14
REMARK    4  A    between atoms: N_5  and  C_13
REMARK    5  A    between atoms: N_8  and  C_19
REMARK    6  A    between atoms: C_11  and  C_13
REMARK    7  A    between atoms: C_14  and  C_15
REMARK                            x       y       z     vdW  Elec       q    Type
REMARK                         _______ _______ _______ _____ _____    ______ ____
ROOT
ATOM      1  O   UNL     1      -0.525  -1.220   0.179  0.00  0.00    -0.371 OA
ATOM      9  C   UNL     1      -2.465   0.091  -0.224  0.00  0.00    +0.111 C 
ATOM     10  C   UNL     1      -1.551   0.839   0.728  0.00  0.00    +0.164 C 
ATOM     11  C   UNL     1      -0.218   0.157   0.452  0.00  0.00    +0.165 C 
ATOM     12  C   UNL     1      -1.933  -1.327  -0.100  0.00  0.00    +0.181 C 
ENDROOT
BRANCH  10   2
ATOM      2  O   UNL     1      -1.499   2.227   0.458  0.00  0.00    -0.388 OA
ATOM     26  H   UNL     1      -1.224   2.348  -0.466  0.00  0.00    +0.210 HD
ENDBRANCH  10   2
BRANCH   9   4
ATOM      4  N   UNL     1      -3.875   0.198   0.115  0.00  0.00    -0.302 NA
ATOM     25  H   UNL     1      -4.093   1.171   0.331  0.00  0.00    +0.123 HD
BRANCH   4  14
ATOM     14  C   UNL     1      -4.716  -0.240  -0.993  0.00  0.00    +0.156 C 
BRANCH  14  15
ATOM      6  N   UNL     1      -6.780  -1.076   0.155  0.00  0.00    -0.347 N 
ATOM      7  N   UNL     1      -7.029   0.766  -1.060  0.00  0.00    -0.240 NA
ATOM     15  C   UNL     1      -6.180  -0.151  -0.653  0.00  0.00    +0.121 A 
ATOM     17  C   UNL     1      -8.096  -0.726   0.271  0.00  0.00    +0.104 A 
ATOM     18  C   UNL     1      -8.226   0.413  -0.488  0.00  0.00    +0.130 A 
ATOM     28  H   UNL     1      -6.334  -1.873   0.589  0.00  0.00    +0.167 HD
ENDBRANCH  14  15
ENDBRANCH   4  14
ENDBRANCH   9   4
BRANCH  11  13
ATOM     13  C   UNL     1       0.754   0.245   1.616  0.00  0.00    +0.140 C 
BRANCH  13   5
ATOM      3  O   UNL     1       3.068   1.423   0.407  0.00  0.00    -0.253 OA
ATOM      5  N   UNL     1       1.992  -0.414   1.312  0.00  0.00    -0.297 N 
ATOM      8  N   UNL     1       4.150  -0.657   0.543  0.00  0.00    -0.269 N 
ATOM     16  C   UNL     1       3.086   0.234   0.717  0.00  0.00    +0.304 C 
ATOM     27  H   UNL     1       2.074  -1.402   1.529  0.00  0.00    +0.150 HD
ATOM     29  H   UNL     1       4.000  -1.613   0.855  0.00  0.00    +0.156 HD
BRANCH   8  19
ATOM     19  C   UNL     1       5.421  -0.392  -0.019  0.00  0.00    +0.035 A 
ATOM     20  C   UNL     1       6.367  -1.412  -0.114  0.00  0.00    +0.023 A 
ATOM     21  C   UNL     1       5.727   0.889  -0.477  0.00  0.00    +0.023 A 
ATOM     22  C   UNL     1       7.620  -1.150  -0.668  0.00  0.00    +0.002 A 
ATOM     23  C   UNL     1       6.980   1.151  -1.031  0.00  0.00    +0.002 A 
ATOM     24  C   UNL     1       7.927   0.131  -1.127  0.00  0.00    +0.000 A 
ENDBRANCH   8  19
ENDBRANCH  13   5
ENDBRANCH  11  13
TORSDOF 7
