REMARK  Name = 45783276
REMARK  10 active torsions:
REMARK  status: ('A' for Active; 'I' for Inactive)
REMARK    1  A    between atoms: O_2  and  C_24
REMARK    2  A    between atoms: O_2  and  C_25
REMARK    3  A    between atoms: N_3  and  C_12
REMARK    4  A    between atoms: N_6  and  C_23
REMARK    5  A    between atoms: C_8  and  C_14
REMARK    6  A    between atoms: C_12  and  C_13
REMARK    7  A    between atoms: C_13  and  C_15
REMARK    8  A    between atoms: C_13  and  C_16
REMARK    9  A    between atoms: C_17  and  C_18
REMARK   10  A    between atoms: C_23  and  C_24
REMARK                            x       y       z     vdW  Elec       q    Type
REMARK                         _______ _______ _______ _____ _____    ______ ____
ROOT
ATOM      1  O   UNL     1      -2.518   1.962   0.629  0.00  0.00    -0.336 OA
ATOM      4  N   UNL     1      -0.933   0.380   0.684  0.00  0.00    -0.190 NA
ATOM      5  N   UNL     1      -1.305   2.618   0.388  0.00  0.00    -0.056 NA
ATOM     14  C   UNL     1      -2.210   0.648   0.792  0.00  0.00    +0.245 A 
ATOM     17  C   UNL     1      -0.418   1.619   0.436  0.00  0.00    +0.202 A 
ENDROOT
BRANCH  17  18
ATOM      6  N   UNL     1       4.098  -0.106   0.175  0.00  0.00    -0.327 N 
ATOM      7  N   UNL     1       3.728   2.226  -0.138  0.00  0.00    -0.240 NA
ATOM     18  C   UNL     1       0.988   1.825   0.243  0.00  0.00    +0.027 A 
ATOM     19  C   UNL     1       1.866   0.749   0.304  0.00  0.00    +0.055 A 
ATOM     20  C   UNL     1       1.478   3.102  -0.008  0.00  0.00    +0.031 A 
ATOM     21  C   UNL     1       3.215   1.000   0.108  0.00  0.00    +0.119 A 
ATOM     22  C   UNL     1       2.844   3.248  -0.190  0.00  0.00    +0.113 A 
ATOM     26  H   UNL     1       5.081   0.090   0.026  0.00  0.00    +0.148 HD
BRANCH   6  23
ATOM     23  C   UNL     1       3.648  -1.436   0.430  0.00  0.00    +0.131 C 
BRANCH  23  24
ATOM     24  C   UNL     1       4.832  -2.386   0.474  0.00  0.00    +0.178 C 
BRANCH  24   2
ATOM      2  O   UNL     1       5.490  -2.381  -0.787  0.00  0.00    -0.381 OA
ATOM     25  C   UNL     1       6.605  -3.262  -0.797  0.00  0.00    +0.194 C 
ENDBRANCH  24   2
ENDBRANCH  23  24
ENDBRANCH   6  23
ENDBRANCH  17  18
BRANCH  14   8
ATOM      3  N   UNL     1      -3.466  -1.377   0.076  0.00  0.00    -0.291 NA
ATOM      8  C   UNL     1      -3.368  -0.288   1.068  0.00  0.00    +0.146 C 
ATOM      9  C   UNL     1      -3.243  -1.004   2.425  0.00  0.00    +0.030 C 
ATOM     10  C   UNL     1      -4.067  -2.516   0.771  0.00  0.00    +0.085 C 
ATOM     11  C   UNL     1      -3.342  -2.488   2.102  0.00  0.00    +0.017 C 
BRANCH   3  12
ATOM     12  C   UNL     1      -4.218  -1.003  -1.115  0.00  0.00    +0.088 C 
BRANCH  12  13
ATOM     13  C   UNL     1      -3.360  -0.234  -2.134  0.00  0.00    -0.003 C 
ATOM     15  C   UNL     1      -2.181  -1.105  -2.578  0.00  0.00    +0.008 C 
ATOM     16  C   UNL     1      -4.162   0.210  -3.360  0.00  0.00    +0.008 C 
ENDBRANCH  12  13
ENDBRANCH   3  12
ENDBRANCH  14   8
TORSDOF 7
