REMARK  Name = 45784368
REMARK  13 active torsions:
REMARK  status: ('A' for Active; 'I' for Inactive)
REMARK    1  A    between atoms: O_1  and  C_10
REMARK    2  A    between atoms: O_4  and  C_29
REMARK    3  A    between atoms: O_4  and  C_37
REMARK    4  A    between atoms: N_5  and  C_14
REMARK    5  A    between atoms: N_6  and  C_24
REMARK    6  A    between atoms: C_7  and  C_17
REMARK    7  A    between atoms: C_9  and  C_19
REMARK    8  A    between atoms: C_13  and  C_18
REMARK    9  A    between atoms: C_18  and  C_20
REMARK   10  A    between atoms: C_18  and  C_21
REMARK   11  A    between atoms: C_22  and  C_23
REMARK   12  A    between atoms: C_23  and  C_25
REMARK   13  A    between atoms: C_24  and  C_26
REMARK                            x       y       z     vdW  Elec       q    Type
REMARK                         _______ _______ _______ _____ _____    ______ ____
ROOT
ATOM      7  C   UNL     1      -0.154   0.127   1.785  0.00  0.00    -0.027 C 
ATOM      8  C   UNL     1       0.366   0.657   0.407  0.00  0.00    +0.028 C 
ATOM      9  C   UNL     1       1.899   0.992   0.480  0.00  0.00    +0.012 C 
ATOM     10  C   UNL     1      -0.542   1.796  -0.137  0.00  0.00    +0.122 C 
ATOM     11  C   UNL     1      -1.635  -0.299   1.649  0.00  0.00    +0.007 C 
ATOM     12  C   UNL     1       0.661  -1.125   2.184  0.00  0.00    +0.009 C 
ATOM     13  C   UNL     1      -2.037   1.400  -0.173  0.00  0.00    +0.029 C 
ATOM     14  C   UNL     1       2.700  -0.253   0.954  0.00  0.00    +0.076 C 
ATOM     15  C   UNL     1      -2.534   0.826   1.153  0.00  0.00    +0.007 C 
ATOM     16  C   UNL     1       2.160  -0.868   2.245  0.00  0.00    +0.023 C 
ATOM     17  C   UNL     1      -0.043   1.187   2.910  0.00  0.00    +0.011 C 
ATOM     19  C   UNL     1       2.483   1.492  -0.852  0.00  0.00    +0.010 C 
ENDROOT
BRANCH  14   5
ATOM      3  O   UNL     1       4.922  -2.039   0.557  0.00  0.00    -0.275 OA
ATOM      5  N   UNL     1       4.103   0.052   1.144  0.00  0.00    -0.312 N 
ATOM     22  C   UNL     1       5.104  -0.881   0.925  0.00  0.00    +0.218 C 
ATOM     38  H   UNL     1       4.340   0.970   1.510  0.00  0.00    +0.149 HD
BRANCH  22  23
ATOM     23  C   UNL     1       6.476  -0.293   1.193  0.00  0.00    +0.130 C 
BRANCH  23  25
ATOM     25  C   UNL     1       7.380  -0.314  -0.011  0.00  0.00    -0.039 A 
ATOM     27  C   UNL     1       8.203  -1.415  -0.247  0.00  0.00    +0.004 A 
ATOM     28  C   UNL     1       7.393   0.768  -0.892  0.00  0.00    +0.004 A 
ATOM     31  C   UNL     1       9.040  -1.434  -1.362  0.00  0.00    +0.000 A 
ATOM     32  C   UNL     1       8.230   0.749  -2.007  0.00  0.00    +0.000 A 
ATOM     33  C   UNL     1       9.053  -0.352  -2.243  0.00  0.00    +0.000 A 
ENDBRANCH  23  25
ENDBRANCH  22  23
ENDBRANCH  14   5
BRANCH  10   1
ATOM      1  O   UNL     1      -0.169   2.103  -1.481  0.00  0.00    -0.391 OA
ATOM     39  H   UNL     1      -0.278   1.298  -2.017  0.00  0.00    +0.210 HD
ENDBRANCH  10   1
BRANCH  13  18
ATOM     18  C   UNL     1      -2.928   2.577  -0.588  0.00  0.00    +0.077 C 
ATOM     20  C   UNL     1      -2.759   3.734   0.391  0.00  0.00    +0.017 C 
BRANCH  18  21
ATOM      2  O   UNL     1      -5.277   2.640  -0.001  0.00  0.00    -0.276 OA
ATOM      6  N   UNL     1      -4.567   1.084  -1.567  0.00  0.00    -0.311 N 
ATOM     21  C   UNL     1      -4.383   2.125  -0.669  0.00  0.00    +0.216 C 
ATOM     40  H   UNL     1      -3.785   0.749  -2.122  0.00  0.00    +0.149 HD
BRANCH   6  24
ATOM     24  C   UNL     1      -5.857   0.485  -1.815  0.00  0.00    +0.143 C 
BRANCH  24  26
ATOM     26  C   UNL     1      -6.148  -0.638  -0.862  0.00  0.00    +0.011 A 
ATOM     29  C   UNL     1      -5.530  -1.879  -1.011  0.00  0.00    +0.125 A 
ATOM     30  C   UNL     1      -7.049  -0.429   0.183  0.00  0.00    +0.009 A 
ATOM     34  C   UNL     1      -5.811  -2.911  -0.116  0.00  0.00    +0.046 A 
ATOM     35  C   UNL     1      -7.331  -1.461   1.078  0.00  0.00    +0.001 A 
ATOM     36  C   UNL     1      -6.712  -2.702   0.928  0.00  0.00    +0.004 A 
BRANCH  29   4
ATOM      4  O   UNL     1      -4.648  -2.100  -2.026  0.00  0.00    -0.495 OA
ATOM     37  C   UNL     1      -4.062  -3.398  -2.103  0.00  0.00    +0.277 C 
ENDBRANCH  29   4
ENDBRANCH  24  26
ENDBRANCH   6  24
ENDBRANCH  18  21
ENDBRANCH  13  18
TORSDOF 9
