REMARK  Name = 71694020
REMARK  9 active torsions:
REMARK  status: ('A' for Active; 'I' for Inactive)
REMARK    1  A    between atoms: S_1  and  N_7
REMARK    2  A    between atoms: S_1  and  C_17
REMARK    3  A    between atoms: O_2  and  C_10
REMARK    4  A    between atoms: O_3  and  C_12
REMARK    5  A    between atoms: O_6  and  C_25
REMARK    6  A    between atoms: O_6  and  C_26
REMARK    7  A    between atoms: N_7  and  C_9
REMARK    8  A    between atoms: C_8  and  C_13
REMARK    9  A    between atoms: C_14  and  C_18
REMARK                            x       y       z     vdW  Elec       q    Type
REMARK                         _______ _______ _______ _____ _____    ______ ____
ROOT
ATOM      8  C   UNL     1      -1.636  -0.734  -0.739  0.00  0.00    +0.043 C 
ATOM      9  C   UNL     1      -1.957   0.504   0.142  0.00  0.00    +0.115 C 
ATOM     10  C   UNL     1      -3.464   0.440   0.424  0.00  0.00    +0.162 C 
ATOM     11  C   UNL     1      -2.950  -1.530  -0.821  0.00  0.00    +0.043 C 
ATOM     12  C   UNL     1      -4.014  -0.452  -0.686  0.00  0.00    +0.145 C 
ENDROOT
BRANCH   8  13
ATOM     13  C   UNL     1      -0.472  -1.560  -0.240  0.00  0.00    -0.040 A 
ATOM     14  C   UNL     1       0.648  -1.781  -1.041  0.00  0.00    -0.047 A 
ATOM     15  C   UNL     1      -0.530  -2.106   1.043  0.00  0.00    +0.004 A 
ATOM     16  C   UNL     1       1.710  -2.546  -0.560  0.00  0.00    +0.003 A 
ATOM     18  C   UNL     1       0.733  -1.208  -2.417  0.00  0.00    +0.044 C 
ATOM     19  C   UNL     1       0.532  -2.871   1.524  0.00  0.00    +0.000 A 
ATOM     20  C   UNL     1       1.652  -3.091   0.723  0.00  0.00    +0.000 A 
ENDBRANCH   8  13
BRANCH  10   2
ATOM      2  O   UNL     1      -3.650  -0.171   1.699  0.00  0.00    -0.388 OA
ATOM     28  H   UNL     1      -3.281   0.431   2.368  0.00  0.00    +0.210 HD
ENDBRANCH  10   2
BRANCH  12   3
ATOM      3  O   UNL     1      -5.275  -1.005  -0.368  0.00  0.00    -0.389 OA
ATOM     29  H   UNL     1      -5.511  -1.623  -1.080  0.00  0.00    +0.210 HD
ENDBRANCH  12   3
BRANCH   9   7
ATOM      7  N   UNL     1      -1.650   1.743  -0.621  0.00  0.00    -0.184 NA
ATOM     27  H   UNL     1      -1.940   1.784  -1.605  0.00  0.00    +0.148 HD
BRANCH   7   1
ATOM      1  S   UNL     1      -0.559   2.880   0.013  0.00  0.00    +0.059 S 
ATOM      4  O   UNL     1      -0.981   3.261   1.348  0.00  0.00    -0.153 OA
ATOM      5  O   UNL     1      -0.307   3.896  -0.990  0.00  0.00    -0.153 OA
BRANCH   1  17
ATOM     17  C   UNL     1       0.919   1.922   0.162  0.00  0.00    +0.105 A 
ATOM     21  C   UNL     1       1.821   1.864  -0.900  0.00  0.00    +0.032 A 
ATOM     22  C   UNL     1       1.183   1.225   1.341  0.00  0.00    +0.032 A 
ATOM     23  C   UNL     1       2.988   1.108  -0.783  0.00  0.00    +0.047 A 
ATOM     24  C   UNL     1       2.350   0.470   1.458  0.00  0.00    +0.047 A 
ATOM     25  C   UNL     1       3.252   0.411   0.396  0.00  0.00    +0.120 A 
BRANCH  25   6
ATOM      6  O   UNL     1       4.390  -0.327   0.509  0.00  0.00    -0.495 OA
ATOM     26  C   UNL     1       5.268  -0.344  -0.616  0.00  0.00    +0.277 C 
ENDBRANCH  25   6
ENDBRANCH   1  17
ENDBRANCH   7   1
ENDBRANCH   9   7
TORSDOF 7
