REMARK  Name = 26762199
REMARK  7 active torsions:
REMARK  status: ('A' for Active; 'I' for Inactive)
REMARK    1  A    between atoms: N_6  and  C_11
REMARK    2  A    between atoms: N_8  and  C_24
REMARK    3  A    between atoms: C_10  and  C_15
REMARK    4  A    between atoms: C_15  and  C_17
REMARK    5  A    between atoms: C_17  and  C_18
REMARK    6  A    between atoms: C_24  and  C_28
REMARK    7  A    between atoms: C_24  and  C_29
REMARK                            x       y       z     vdW  Elec       q    Type
REMARK                         _______ _______ _______ _____ _____    ______ ____
ROOT
ATOM      1  O   UNL     1      -4.279   1.527   2.291  0.00  0.00    -0.274 OA
ATOM      4  N   UNL     1      -2.594   0.914  -0.640  0.00  0.00    -0.285 NA
ATOM      5  N   UNL     1      -3.315   3.049   0.844  0.00  0.00    -0.313 N 
ATOM      9  C   UNL     1      -3.916   0.878  -0.018  0.00  0.00    +0.145 C 
ATOM     10  C   UNL     1      -2.272   2.202  -1.260  0.00  0.00    +0.075 C 
ATOM     11  C   UNL     1      -3.178  -1.335  -0.669  0.00  0.00    +0.090 C 
ATOM     12  C   UNL     1      -4.102  -0.599   0.309  0.00  0.00    +0.052 C 
ATOM     13  C   UNL     1      -2.541  -0.244  -1.527  0.00  0.00    +0.107 C 
ATOM     14  C   UNL     1      -2.972   3.371  -0.531  0.00  0.00    +0.123 C 
ATOM     16  C   UNL     1      -3.858   1.815   1.174  0.00  0.00    +0.230 C 
ATOM     31  H   UNL     1      -3.254   3.770   1.556  0.00  0.00    +0.149 HD
ENDROOT
BRANCH  11   6
ATOM      3  O   UNL     1      -1.747  -3.744  -1.463  0.00  0.00    -0.253 OA
ATOM      6  N   UNL     1      -2.124  -2.058   0.089  0.00  0.00    -0.295 N 
ATOM      8  N   UNL     1      -0.553  -3.680   0.525  0.00  0.00    -0.297 N 
ATOM     19  C   UNL     1      -1.498  -3.210  -0.383  0.00  0.00    +0.300 C 
ATOM     32  H   UNL     1      -1.784  -1.644   0.952  0.00  0.00    +0.151 HD
ATOM     33  H   UNL     1      -0.363  -3.126   1.355  0.00  0.00    +0.150 HD
BRANCH   8  24
ATOM     24  C   UNL     1       0.242  -4.862   0.286  0.00  0.00    +0.068 C 
ATOM     28  C   UNL     1       0.558  -5.563   1.601  0.00  0.00    +0.027 C 
ATOM     29  C   UNL     1       1.517  -4.504  -0.469  0.00  0.00    +0.027 C 
ENDBRANCH   8  24
ENDBRANCH  11   6
BRANCH  10  15
ATOM     15  C   UNL     1      -0.753   2.393  -1.230  0.00  0.00    +0.029 C 
BRANCH  15  17
ATOM     17  C   UNL     1      -0.194   2.375   0.184  0.00  0.00    +0.098 C 
BRANCH  17  18
ATOM      2  O   UNL     1       1.805   3.647   0.229  0.00  0.00    -0.275 OA
ATOM      7  N   UNL     1       2.011   1.326   0.109  0.00  0.00    -0.271 N 
ATOM     18  C   UNL     1       1.309   2.522   0.177  0.00  0.00    +0.220 C 
ATOM     20  C   UNL     1       1.413  -0.025   0.046  0.00  0.00    +0.118 C 
ATOM     21  C   UNL     1       3.415   1.191   0.088  0.00  0.00    +0.039 A 
ATOM     22  C   UNL     1       2.559  -1.041  -0.009  0.00  0.00    +0.056 C 
ATOM     23  C   UNL     1       3.764  -0.159   0.019  0.00  0.00    -0.024 A 
ATOM     25  C   UNL     1       4.394   2.173   0.125  0.00  0.00    +0.024 A 
ATOM     26  C   UNL     1       5.091  -0.560  -0.014  0.00  0.00    +0.005 A 
ATOM     27  C   UNL     1       5.735   1.778   0.092  0.00  0.00    +0.002 A 
ATOM     30  C   UNL     1       6.082   0.421   0.023  0.00  0.00    +0.000 A 
ENDBRANCH  17  18
ENDBRANCH  15  17
ENDBRANCH  10  15
TORSDOF 5
