REMARK  Name = 11882468
REMARK  11 active torsions:
REMARK  status: ('A' for Active; 'I' for Inactive)
REMARK    1  A    between atoms: S_1  and  N_10
REMARK    2  A    between atoms: S_1  and  C_24
REMARK    3  A    between atoms: N_10  and  C_15
REMARK    4  A    between atoms: N_11  and  C_23
REMARK    5  A    between atoms: N_12  and  C_31
REMARK    6  A    between atoms: C_17  and  C_20
REMARK    7  A    between atoms: C_21  and  C_22
REMARK    8  A    between atoms: C_23  and  C_25
REMARK    9  A    between atoms: C_23  and  C_27
REMARK   10  A    between atoms: C_25  and  C_30
REMARK   11  A    between atoms: C_28  and  C_34
REMARK                            x       y       z     vdW  Elec       q    Type
REMARK                         _______ _______ _______ _____ _____    ______ ____
ROOT
ATOM      5  O   UNL     1       2.998   0.721   1.598  0.00  0.00    -0.268 OA
ATOM      9  N   UNL     1       1.010   1.450   0.647  0.00  0.00    -0.285 N 
ATOM     15  C   UNL     1      -1.907   1.622   0.804  0.00  0.00    +0.080 C 
ATOM     16  C   UNL     1      -1.120   0.727   1.764  0.00  0.00    +0.052 C 
ATOM     17  C   UNL     1       0.255   0.332   1.228  0.00  0.00    +0.164 C 
ATOM     18  C   UNL     1      -1.054   2.818   0.389  0.00  0.00    +0.039 C 
ATOM     19  C   UNL     1       0.264   2.369  -0.232  0.00  0.00    +0.110 C 
ATOM     21  C   UNL     1       2.407   1.507   0.855  0.00  0.00    +0.265 C 
ENDROOT
BRANCH  21  22
ATOM     12  N   UNL     1       3.710   2.408  -1.085  0.00  0.00    -0.262 N 
ATOM     13  N   UNL     1       4.345   3.513  -1.513  0.00  0.00    -0.176 NA
ATOM     22  C   UNL     1       3.153   2.543   0.150  0.00  0.00    +0.123 A 
ATOM     26  C   UNL     1       3.439   3.818   0.561  0.00  0.00    +0.057 A 
ATOM     28  C   UNL     1       4.176   4.371  -0.503  0.00  0.00    +0.061 A 
ATOM     31  C   UNL     1       3.679   1.238  -1.931  0.00  0.00    +0.173 C 
ATOM     34  C   UNL     1       4.741   5.728  -0.595  0.00  0.00    +0.067 C 
ENDBRANCH  21  22
BRANCH  17  20
ATOM      4  O   UNL     1       0.097  -0.434  -1.029  0.00  0.00    -0.274 OA
ATOM     11  N   UNL     1       0.157  -2.001   0.692  0.00  0.00    -0.302 N 
ATOM     20  C   UNL     1       0.169  -0.722   0.163  0.00  0.00    +0.234 C 
ATOM     39  H   UNL     1       0.139  -2.116   1.701  0.00  0.00    +0.150 HD
BRANCH  11  23
ATOM     23  C   UNL     1       0.057  -3.191  -0.122  0.00  0.00    +0.163 C 
BRANCH  23  27
ATOM      8  O   UNL     1      -2.294  -3.229   0.495  0.00  0.00    -0.274 OA
ATOM     14  N   UNL     1      -1.698  -3.933  -1.609  0.00  0.00    -0.328 N 
ATOM     27  C   UNL     1      -1.425  -3.457  -0.344  0.00  0.00    +0.231 C 
ATOM     40  H   UNL     1      -0.972  -4.113  -2.294  0.00  0.00    +0.145 HD
ATOM     41  H   UNL     1      -2.651  -4.136  -1.894  0.00  0.00    +0.145 HD
ENDBRANCH  23  27
BRANCH  23  25
ATOM     25  C   UNL     1       0.724  -4.404   0.537  0.00  0.00    +0.074 C 
BRANCH  25  30
ATOM      3  S   UNL     1       2.970  -5.726  -0.372  0.00  0.00    -0.102 S 
ATOM     30  C   UNL     1       2.226  -4.394   0.371  0.00  0.00    -0.008 A 
ATOM     35  C   UNL     1       3.092  -3.420   0.754  0.00  0.00    +0.011 A 
ATOM     36  C   UNL     1       4.434  -3.773   0.428  0.00  0.00    +0.008 A 
ATOM     37  C   UNL     1       4.510  -5.002  -0.189  0.00  0.00    +0.045 A 
ENDBRANCH  25  30
ENDBRANCH  23  25
ENDBRANCH  11  23
ENDBRANCH  17  20
BRANCH  15  10
ATOM     10  N   UNL     1      -3.143   2.060   1.410  0.00  0.00    -0.186 NA
ATOM     38  H   UNL     1      -3.042   2.677   2.225  0.00  0.00    +0.148 HD
BRANCH  10   1
ATOM      1  S   UNL     1      -4.482   2.335   0.382  0.00  0.00    +0.065 S 
ATOM      6  O   UNL     1      -4.101   3.257  -0.670  0.00  0.00    -0.153 OA
ATOM      7  O   UNL     1      -5.658   2.566   1.198  0.00  0.00    -0.153 OA
BRANCH   1  24
ATOM      2  S   UNL     1      -5.482  -0.406   0.580  0.00  0.00    -0.077 S 
ATOM     24  C   UNL     1      -4.841   0.786  -0.447  0.00  0.00    +0.142 A 
ATOM     29  C   UNL     1      -4.697   0.390  -1.734  0.00  0.00    +0.036 A 
ATOM     32  C   UNL     1      -5.129  -0.957  -1.905  0.00  0.00    +0.010 A 
ATOM     33  C   UNL     1      -5.580  -1.509  -0.726  0.00  0.00    +0.047 A 
ENDBRANCH   1  24
ENDBRANCH  10   1
ENDBRANCH  15  10
TORSDOF 9
