REMARK  Name = 45783718
REMARK  7 active torsions:
REMARK  status: ('A' for Active; 'I' for Inactive)
REMARK    1  A    between atoms: O_2  and  C_23
REMARK    2  A    between atoms: O_2  and  C_25
REMARK    3  A    between atoms: O_3  and  C_26
REMARK    4  A    between atoms: O_3  and  C_27
REMARK    5  A    between atoms: C_10  and  C_14
REMARK    6  A    between atoms: C_16  and  C_17
REMARK    7  A    between atoms: C_25  and  C_26
REMARK                            x       y       z     vdW  Elec       q    Type
REMARK                         _______ _______ _______ _____ _____    ______ ____
ROOT
ATOM      1  O   UNL     1       1.900   2.818  -0.127  0.00  0.00    -0.336 OA
ATOM      5  N   UNL     1       0.707   0.947  -0.429  0.00  0.00    -0.190 NA
ATOM      8  N   UNL     1       0.598   3.114   0.296  0.00  0.00    -0.056 NA
ATOM     14  C   UNL     1       1.877   1.523  -0.538  0.00  0.00    +0.248 A 
ATOM     16  C   UNL     1      -0.045   1.962   0.087  0.00  0.00    +0.202 A 
ENDROOT
BRANCH  14  10
ATOM      4  N   UNL     1       3.299  -0.507  -0.898  0.00  0.00    -0.288 N 
ATOM      6  N   UNL     1       3.614  -0.404   1.399  0.00  0.00    -0.223 NA
ATOM      7  N   UNL     1       3.846  -2.479   0.198  0.00  0.00    -0.223 NA
ATOM     10  C   UNL     1       3.188   0.952  -1.051  0.00  0.00    +0.165 C 
ATOM     11  C   UNL     1       3.351   1.166  -2.567  0.00  0.00    +0.034 C 
ATOM     12  C   UNL     1       2.803  -0.114  -3.178  0.00  0.00    +0.021 C 
ATOM     13  C   UNL     1       3.244  -1.192  -2.193  0.00  0.00    +0.109 C 
ATOM     15  C   UNL     1       3.599  -1.158   0.284  0.00  0.00    +0.218 A 
ATOM     18  C   UNL     1       4.135  -3.083   1.370  0.00  0.00    +0.116 A 
ATOM     19  C   UNL     1       3.910  -1.070   2.534  0.00  0.00    +0.116 A 
ATOM     20  C   UNL     1       4.182  -2.422   2.580  0.00  0.00    +0.039 A 
ENDBRANCH  14  10
BRANCH  16  17
ATOM      9  N   UNL     1      -4.154   1.461   0.956  0.00  0.00    -0.221 NA
ATOM     17  C   UNL     1      -1.439   1.792   0.382  0.00  0.00    +0.029 A 
ATOM     21  C   UNL     1      -2.059   0.571   0.143  0.00  0.00    +0.079 A 
ATOM     22  C   UNL     1      -2.175   2.848   0.907  0.00  0.00    +0.031 A 
ATOM     23  C   UNL     1      -3.407   0.458   0.445  0.00  0.00    +0.215 A 
ATOM     24  C   UNL     1      -3.517   2.634   1.175  0.00  0.00    +0.115 A 
BRANCH  23   2
ATOM      2  O   UNL     1      -4.041  -0.736   0.219  0.00  0.00    -0.474 OA
BRANCH   2  25
ATOM     25  C   UNL     1      -5.424  -0.797   0.546  0.00  0.00    +0.258 C 
BRANCH  25  26
ATOM     26  C   UNL     1      -5.952  -2.178   0.207  0.00  0.00    +0.200 C 
BRANCH  26   3
ATOM      3  O   UNL     1      -5.791  -2.407  -1.188  0.00  0.00    -0.380 OA
ATOM     27  C   UNL     1      -6.250  -3.699  -1.560  0.00  0.00    +0.194 C 
ENDBRANCH  26   3
ENDBRANCH  25  26
ENDBRANCH   2  25
ENDBRANCH  23   2
ENDBRANCH  16  17
TORSDOF 6
