REMARK  Name = 75536883
REMARK  5 active torsions:
REMARK  status: ('A' for Active; 'I' for Inactive)
REMARK    1  A    between atoms: O_2  and  C_6
REMARK    2  A    between atoms: O_2  and  C_13
REMARK    3  A    between atoms: O_4  and  C_16
REMARK    4  A    between atoms: O_4  and  C_19
REMARK    5  A    between atoms: C_11  and  C_12
REMARK                            x       y       z     vdW  Elec       q    Type
REMARK                         _______ _______ _______ _____ _____    ______ ____
ROOT
ATOM      1  O   UNL     1      -3.708   0.543   1.243  0.00  0.00    -0.376 OA
ATOM      3  O   UNL     1       0.263   2.824  -0.283  0.00  0.00    -0.270 OA
ATOM      5  N   UNL     1      -1.139   0.959  -0.503  0.00  0.00    -0.293 N 
ATOM      6  C   UNL     1      -2.591  -1.112  -0.159  0.00  0.00    +0.161 C 
ATOM      7  C   UNL     1      -1.276  -0.495  -0.644  0.00  0.00    +0.142 C 
ATOM      8  C   UNL     1      -2.356   1.764  -0.392  0.00  0.00    +0.136 C 
ATOM      9  C   UNL     1      -2.974  -0.677   1.254  0.00  0.00    +0.193 C 
ATOM     10  C   UNL     1      -2.923   1.709   1.021  0.00  0.00    +0.179 C 
ATOM     11  C   UNL     1       0.102   1.613  -0.432  0.00  0.00    +0.247 C 
ENDROOT
BRANCH  11  12
ATOM     12  C   UNL     1       1.325   0.803  -0.545  0.00  0.00    +0.040 A 
ATOM     14  C   UNL     1       1.916   0.270   0.600  0.00  0.00    +0.058 A 
ATOM     15  C   UNL     1       1.894   0.570  -1.797  0.00  0.00    +0.013 A 
ATOM     16  C   UNL     1       3.076  -0.498   0.493  0.00  0.00    +0.121 A 
ATOM     17  C   UNL     1       3.054  -0.198  -1.904  0.00  0.00    +0.004 A 
ATOM     18  C   UNL     1       3.645  -0.732  -0.759  0.00  0.00    +0.045 A 
BRANCH  16   4
ATOM      4  O   UNL     1       3.653  -1.020   1.610  0.00  0.00    -0.495 OA
ATOM     19  C   UNL     1       3.019  -0.742   2.858  0.00  0.00    +0.277 C 
ENDBRANCH  16   4
ENDBRANCH  11  12
BRANCH   6   2
ATOM      2  O   UNL     1      -2.412  -2.529  -0.176  0.00  0.00    -0.376 OA
ATOM     13  C   UNL     1      -2.567  -3.051  -1.486  0.00  0.00    +0.194 C 
ENDBRANCH   6   2
TORSDOF 3
