REMARK  Name = 26742478
REMARK  9 active torsions:
REMARK  status: ('A' for Active; 'I' for Inactive)
REMARK    1  A    between atoms: N_3  and  C_14
REMARK    2  A    between atoms: N_6  and  C_30
REMARK    3  A    between atoms: N_6  and  C_31
REMARK    4  A    between atoms: N_6  and  C_32
REMARK    5  A    between atoms: C_8  and  C_15
REMARK    6  A    between atoms: C_9  and  C_14
REMARK    7  A    between atoms: C_16  and  C_18
REMARK    8  A    between atoms: C_22  and  C_24
REMARK    9  A    between atoms: C_23  and  C_25
REMARK                            x       y       z     vdW  Elec       q    Type
REMARK                         _______ _______ _______ _____ _____    ______ ____
ROOT
ATOM      2  N   UNL     1      -2.248  -1.891   1.758  0.00  0.00    -0.297 NA
ATOM      7  C   UNL     1      -1.889  -2.361  -0.779  0.00  0.00    +0.002 C 
ATOM      8  C   UNL     1      -0.528  -2.106  -0.075  0.00  0.00    +0.055 C 
ATOM      9  C   UNL     1      -3.156  -1.036   0.949  0.00  0.00    +0.074 C 
ATOM     10  C   UNL     1      -2.816  -1.148  -0.553  0.00  0.00    +0.024 C 
ATOM     11  C   UNL     1      -2.539  -3.567  -0.066  0.00  0.00    +0.019 C 
ATOM     12  C   UNL     1      -0.836  -1.637   1.375  0.00  0.00    +0.094 C 
ATOM     13  C   UNL     1      -2.563  -3.307   1.450  0.00  0.00    +0.085 C 
ENDROOT
BRANCH   8  15
ATOM      4  N   UNL     1       0.110  -0.677  -1.956  0.00  0.00    -0.237 NA
ATOM      5  N   UNL     1       2.253   0.419  -2.067  0.00  0.00    -0.232 NA
ATOM     15  C   UNL     1       0.482  -1.204  -0.771  0.00  0.00    +0.050 A 
ATOM     17  C   UNL     1       1.706  -0.969  -0.178  0.00  0.00    +0.052 A 
ATOM     22  C   UNL     1       2.559  -0.141  -0.879  0.00  0.00    +0.075 A 
ATOM     23  C   UNL     1       1.030   0.113  -2.541  0.00  0.00    +0.127 A 
ATOM     25  C   UNL     1       0.655   0.713  -3.854  0.00  0.00    +0.088 C 
BRANCH  22  24
ATOM     24  C   UNL     1       3.870   0.182  -0.367  0.00  0.00    +0.001 A 
ATOM     26  C   UNL     1       3.999   0.828   0.862  0.00  0.00    +0.012 A 
ATOM     27  C   UNL     1       5.007  -0.151  -1.103  0.00  0.00    +0.012 A 
ATOM     28  C   UNL     1       5.266   1.140   1.356  0.00  0.00    +0.024 A 
ATOM     29  C   UNL     1       6.274   0.161  -0.609  0.00  0.00    +0.024 A 
ATOM     30  C   UNL     1       6.403   0.807   0.621  0.00  0.00    +0.029 A 
BRANCH  30   6
ATOM      6  N   UNL     1       7.684   1.123   1.119  0.00  0.00    -0.336 N 
ATOM     31  C   UNL     1       7.829   1.794   2.396  0.00  0.00    +0.129 C 
ATOM     32  C   UNL     1       8.872   0.774   0.366  0.00  0.00    +0.129 C 
ENDBRANCH  30   6
ENDBRANCH  22  24
ENDBRANCH   8  15
BRANCH   9  14
ATOM     14  C   UNL     1      -3.165   0.418   1.425  0.00  0.00    +0.123 C 
BRANCH  14   3
ATOM      1  O   UNL     1      -5.919   0.817   2.131  0.00  0.00    -0.276 OA
ATOM      3  N   UNL     1      -4.133   1.185   0.704  0.00  0.00    -0.314 N 
ATOM     18  C   UNL     1      -5.460   1.336   1.108  0.00  0.00    +0.216 C 
ATOM     33  H   UNL     1      -3.834   1.641  -0.154  0.00  0.00    +0.149 HD
BRANCH  18  16
ATOM     16  C   UNL     1      -6.306   2.202   0.156  0.00  0.00    +0.075 C 
ATOM     19  C   UNL     1      -6.618   1.625  -1.240  0.00  0.00    +0.013 C 
ATOM     20  C   UNL     1      -7.830   2.241   0.397  0.00  0.00    +0.013 C 
ATOM     21  C   UNL     1      -7.992   2.319  -1.136  0.00  0.00    +0.001 C 
ENDBRANCH  18  16
ENDBRANCH  14   3
ENDBRANCH   9  14
TORSDOF 6
