REMARK  Name = 11943580
REMARK  5 active torsions:
REMARK  status: ('A' for Active; 'I' for Inactive)
REMARK    1  A    between atoms: N_4  and  C_12
REMARK    2  A    between atoms: N_4  and  C_15
REMARK    3  A    between atoms: C_6  and  C_12
REMARK    4  A    between atoms: C_7  and  C_13
REMARK    5  A    between atoms: C_15  and  C_16
REMARK                            x       y       z     vdW  Elec       q    Type
REMARK                         _______ _______ _______ _____ _____    ______ ____
ROOT
ATOM      4  N   UNL     1      -0.051   0.858  -0.347  0.00  0.00    -0.311 NA
ATOM     23  H   UNL     1      -0.258   1.665   0.241  0.00  0.00    +0.122 HD
ENDROOT
BRANCH   4  12
ATOM     12  C   UNL     1       1.270   1.013  -0.933  0.00  0.00    +0.100 C 
BRANCH  12   6
ATOM      3  N   UNL     1       3.680   1.454  -0.397  0.00  0.00    -0.298 NA
ATOM      5  C   UNL     1       3.862  -0.502   1.308  0.00  0.00    -0.000 C 
ATOM      6  C   UNL     1       2.337   1.136   0.158  0.00  0.00    +0.071 C 
ATOM      7  C   UNL     1       4.522  -0.886  -0.038  0.00  0.00    +0.028 C 
ATOM      8  C   UNL     1       2.390  -0.122   1.052  0.00  0.00    +0.024 C 
ATOM      9  C   UNL     1       4.582   0.757   1.824  0.00  0.00    +0.019 C 
ATOM     10  C   UNL     1       4.265   0.256  -1.050  0.00  0.00    +0.092 C 
ATOM     11  C   UNL     1       4.561   1.839   0.732  0.00  0.00    +0.085 C 
BRANCH   7  13
ATOM     13  C   UNL     1       4.055  -2.210  -0.561  0.00  0.00    -0.030 C 
ATOM     14  C   UNL     1       4.859  -3.259  -0.769  0.00  0.00    +0.004 C 
ENDBRANCH   7  13
ENDBRANCH  12   6
ENDBRANCH   4  12
BRANCH   4  15
ATOM     15  C   UNL     1      -1.071   0.731  -1.381  0.00  0.00    +0.116 C 
BRANCH  15  16
ATOM      1  O   UNL     1      -4.812  -1.999   0.329  0.00  0.00    -0.453 OA
ATOM      2  O   UNL     1      -6.164  -0.061   0.798  0.00  0.00    -0.453 OA
ATOM     16  C   UNL     1      -2.446   0.555  -0.795  0.00  0.00    -0.030 A 
ATOM     17  C   UNL     1      -2.914  -0.727  -0.532  0.00  0.00    +0.054 A 
ATOM     18  C   UNL     1      -3.223   1.688  -0.526  0.00  0.00    +0.009 A 
ATOM     19  C   UNL     1      -4.180  -0.838   0.006  0.00  0.00    +0.167 A 
ATOM     20  C   UNL     1      -4.502   1.548   0.018  0.00  0.00    +0.050 A 
ATOM     21  C   UNL     1      -4.952   0.269   0.273  0.00  0.00    +0.166 A 
ATOM     22  C   UNL     1      -6.068  -1.499   0.831  0.00  0.00    +0.466 C 
ENDBRANCH  15  16
ENDBRANCH   4  15
TORSDOF 5
