REMARK  Name = 40780647
REMARK  9 active torsions:
REMARK  status: ('A' for Active; 'I' for Inactive)
REMARK    1  A    between atoms: N_3  and  C_9
REMARK    2  A    between atoms: N_4  and  C_18
REMARK    3  A    between atoms: N_6  and  C_26
REMARK    4  A    between atoms: N_6  and  C_30
REMARK    5  A    between atoms: N_6  and  C_31
REMARK    6  A    between atoms: C_7  and  C_10
REMARK    7  A    between atoms: C_13  and  C_15
REMARK    8  A    between atoms: C_14  and  C_16
REMARK    9  A    between atoms: C_17  and  C_19
REMARK                            x       y       z     vdW  Elec       q    Type
REMARK                         _______ _______ _______ _____ _____    ______ ____
ROOT
ATOM      7  C   UNL     1      -0.623  -0.663   0.651  0.00  0.00    +0.047 C 
ATOM      8  C   UNL     1       0.021   0.547  -0.054  0.00  0.00    +0.039 C 
ATOM      9  C   UNL     1       0.974   1.183   0.972  0.00  0.00    +0.097 C 
ATOM     11  C   UNL     1      -0.453  -0.313   2.100  0.00  0.00    -0.021 C 
ATOM     12  C   UNL     1       0.421   0.685   2.270  0.00  0.00    -0.009 C 
ENDROOT
BRANCH   7  10
ATOM      4  N   UNL     1      -4.189  -0.729  -0.185  0.00  0.00    -0.236 N 
ATOM      5  N   UNL     1      -3.892  -1.962  -0.629  0.00  0.00    -0.171 NA
ATOM     10  C   UNL     1      -2.051  -0.912   0.225  0.00  0.00    +0.003 A 
ATOM     13  C   UNL     1      -3.121  -0.058   0.336  0.00  0.00    +0.046 A 
ATOM     14  C   UNL     1      -2.584  -2.068  -0.377  0.00  0.00    +0.064 A 
ATOM     15  C   UNL     1      -3.212   1.311   0.882  0.00  0.00    +0.066 C 
ATOM     16  C   UNL     1      -1.876  -3.310  -0.733  0.00  0.00    +0.068 C 
BRANCH   4  18
ATOM      1  F   UNL     1      -9.369   1.151  -0.579  0.00  0.00    -0.205 F 
ATOM     18  C   UNL     1      -5.497  -0.254  -0.284  0.00  0.00    +0.066 A 
ATOM     20  C   UNL     1      -5.767   0.897  -1.025  0.00  0.00    +0.030 A 
ATOM     21  C   UNL     1      -6.535  -0.930   0.357  0.00  0.00    +0.030 A 
ATOM     24  C   UNL     1      -7.075   1.371  -1.124  0.00  0.00    +0.040 A 
ATOM     25  C   UNL     1      -7.843  -0.456   0.257  0.00  0.00    +0.040 A 
ATOM     29  C   UNL     1      -8.113   0.695  -0.483  0.00  0.00    +0.124 A 
ENDBRANCH   4  18
ENDBRANCH   7  10
BRANCH   9   3
ATOM      2  O   UNL     1       3.013   2.522  -0.568  0.00  0.00    -0.270 OA
ATOM      3  N   UNL     1       2.353   0.752   0.778  0.00  0.00    -0.305 N 
ATOM     17  C   UNL     1       3.266   1.470   0.013  0.00  0.00    +0.245 C 
ATOM     32  H   UNL     1       2.607  -0.155   1.156  0.00  0.00    +0.150 HD
BRANCH  17  19
ATOM     19  C   UNL     1       4.625   0.883  -0.108  0.00  0.00    +0.037 A 
ATOM     22  C   UNL     1       5.408   1.161  -1.229  0.00  0.00    +0.015 A 
ATOM     23  C   UNL     1       5.119   0.053   0.899  0.00  0.00    +0.015 A 
ATOM     26  C   UNL     1       7.177  -0.221  -0.336  0.00  0.00    +0.029 A 
ATOM     27  C   UNL     1       6.684   0.609  -1.343  0.00  0.00    +0.024 A 
ATOM     28  C   UNL     1       6.395  -0.499   0.785  0.00  0.00    +0.024 A 
BRANCH  26   6
ATOM      6  N   UNL     1       8.467  -0.780  -0.451  0.00  0.00    -0.336 N 
ATOM     30  C   UNL     1       9.289  -0.498  -1.611  0.00  0.00    +0.129 C 
ATOM     31  C   UNL     1       8.991  -1.637   0.594  0.00  0.00    +0.129 C 
ENDBRANCH  26   6
ENDBRANCH  17  19
ENDBRANCH   9   3
TORSDOF 5
