REMARK  Name = 7049381
REMARK  9 active torsions:
REMARK  status: ('A' for Active; 'I' for Inactive)
REMARK    1  A    between atoms: S_1  and  C_24
REMARK    2  A    between atoms: S_1  and  C_28
REMARK    3  A    between atoms: O_5  and  C_23
REMARK    4  A    between atoms: O_5  and  C_26
REMARK    5  A    between atoms: N_11  and  C_15
REMARK    6  A    between atoms: N_12  and  C_27
REMARK    7  A    between atoms: C_13  and  C_18
REMARK    8  A    between atoms: C_17  and  C_23
REMARK    9  A    between atoms: C_22  and  C_24
REMARK                            x       y       z     vdW  Elec       q    Type
REMARK                         _______ _______ _______ _____ _____    ______ ____
ROOT
ATOM      6  O   UNL     1      -4.394   1.528   0.149  0.00  0.00    -0.275 OA
ATOM      9  N   UNL     1      -2.284   2.028  -0.661  0.00  0.00    -0.287 N 
ATOM     13  C   UNL     1      -2.115   0.805  -1.432  0.00  0.00    +0.164 C 
ATOM     14  C   UNL     1      -0.901   1.062  -2.323  0.00  0.00    +0.056 C 
ATOM     15  C   UNL     1      -0.089   2.116  -1.565  0.00  0.00    +0.094 C 
ATOM     16  C   UNL     1      -1.156   2.939  -0.849  0.00  0.00    +0.131 C 
ATOM     22  C   UNL     1      -3.462   2.322   0.009  0.00  0.00    +0.226 C 
ENDROOT
BRANCH  13  18
ATOM      4  O   UNL     1      -1.315  -0.134   0.596  0.00  0.00    -0.274 OA
ATOM     10  N   UNL     1      -2.319  -1.572  -0.914  0.00  0.00    -0.286 N 
ATOM     17  C   UNL     1      -2.022  -2.803  -0.194  0.00  0.00    +0.185 C 
ATOM     18  C   UNL     1      -1.871  -0.332  -0.486  0.00  0.00    +0.237 C 
ATOM     19  C   UNL     1      -2.982  -1.852  -2.185  0.00  0.00    +0.109 C 
ATOM     20  C   UNL     1      -2.276  -3.914  -1.206  0.00  0.00    +0.035 C 
ATOM     21  C   UNL     1      -3.351  -3.326  -2.117  0.00  0.00    +0.021 C 
BRANCH  17  23
ATOM      7  O   UNL     1      -3.817  -2.029   1.212  0.00  0.00    -0.249 OA
ATOM     23  C   UNL     1      -2.971  -2.877   0.965  0.00  0.00    +0.328 C 
BRANCH  23   5
ATOM      5  O   UNL     1      -2.736  -4.017   1.675  0.00  0.00    -0.467 OA
ATOM     26  C   UNL     1      -3.576  -4.215   2.816  0.00  0.00    +0.280 C 
ENDBRANCH  23   5
ENDBRANCH  17  23
ENDBRANCH  13  18
BRANCH  15  11
ATOM      8  O   UNL     1       2.640   1.413  -2.079  0.00  0.00    -0.252 OA
ATOM     11  N   UNL     1       0.835   1.514  -0.637  0.00  0.00    -0.295 N 
ATOM     12  N   UNL     1       2.814   0.630   0.128  0.00  0.00    -0.267 N 
ATOM     25  C   UNL     1       2.160   1.201  -0.968  0.00  0.00    +0.304 C 
ATOM     34  H   UNL     1       0.495   1.251   0.283  0.00  0.00    +0.151 HD
ATOM     35  H   UNL     1       2.272   0.522   0.981  0.00  0.00    +0.156 HD
BRANCH  12  27
ATOM      2  F   UNL     1       3.856  -0.476   2.464  0.00  0.00    -0.203 F 
ATOM      3  F   UNL     1       8.060  -1.140   0.400  0.00  0.00    -0.205 F 
ATOM     27  C   UNL     1       4.153   0.179   0.201  0.00  0.00    +0.070 A 
ATOM     29  C   UNL     1       4.644  -0.371   1.385  0.00  0.00    +0.147 A 
ATOM     30  C   UNL     1       4.982   0.283  -0.916  0.00  0.00    +0.029 A 
ATOM     31  C   UNL     1       5.964  -0.816   1.452  0.00  0.00    +0.078 A 
ATOM     32  C   UNL     1       6.302  -0.162  -0.848  0.00  0.00    +0.040 A 
ATOM     33  C   UNL     1       6.793  -0.711   0.336  0.00  0.00    +0.126 A 
ENDBRANCH  12  27
ENDBRANCH  15  11
BRANCH  22  24
ATOM     24  C   UNL     1      -3.550   3.709   0.594  0.00  0.00    +0.164 C 
BRANCH  24   1
ATOM      1  S   UNL     1      -2.902   3.638   2.270  0.00  0.00    -0.155 S 
ATOM     28  C   UNL     1      -3.115   5.376   2.726  0.00  0.00    +0.085 C 
ENDBRANCH  24   1
ENDBRANCH  22  24
TORSDOF 7
