REMARK  Name = 71693271
REMARK  8 active torsions:
REMARK  status: ('A' for Active; 'I' for Inactive)
REMARK    1  A    between atoms: O_2  and  C_11
REMARK    2  A    between atoms: N_6  and  C_13
REMARK    3  A    between atoms: N_7  and  C_21
REMARK    4  A    between atoms: C_9  and  C_11
REMARK    5  A    between atoms: C_10  and  C_12
REMARK    6  A    between atoms: C_13  and  C_16
REMARK    7  A    between atoms: C_27  and  C_28
REMARK    8  A    between atoms: C_30  and  C_31
REMARK                            x       y       z     vdW  Elec       q    Type
REMARK                         _______ _______ _______ _____ _____    ______ ____
ROOT
ATOM      1  O   UNL     1       2.884  -1.825  -1.714  0.00  0.00    -0.361 OA
ATOM      3  O   UNL     1       5.264   0.633  -1.783  0.00  0.00    -0.273 OA
ATOM      6  N   UNL     1       4.025  -0.116   0.048  0.00  0.00    -0.287 N 
ATOM      9  C   UNL     1       3.365  -1.266   0.675  0.00  0.00    +0.135 C 
ATOM     10  C   UNL     1       2.535  -2.084  -0.350  0.00  0.00    +0.171 C 
ATOM     14  C   UNL     1       4.573  -0.219  -1.228  0.00  0.00    +0.242 C 
ATOM     15  C   UNL     1       4.252  -1.530  -1.905  0.00  0.00    +0.256 C 
ENDROOT
BRANCH  10  12
ATOM     12  C   UNL     1       1.052  -1.798  -0.207  0.00  0.00    -0.017 A 
ATOM     17  C   UNL     1       0.464  -0.773  -0.948  0.00  0.00    +0.008 A 
ATOM     18  C   UNL     1       0.276  -2.562   0.666  0.00  0.00    +0.008 A 
ATOM     19  C   UNL     1      -0.900  -0.512  -0.817  0.00  0.00    +0.023 A 
ATOM     20  C   UNL     1      -1.088  -2.300   0.797  0.00  0.00    +0.023 A 
ATOM     21  C   UNL     1      -1.676  -1.275   0.055  0.00  0.00    +0.034 A 
BRANCH  21   7
ATOM      4  O   UNL     1      -3.392   0.782  -1.291  0.00  0.00    -0.268 OA
ATOM      7  N   UNL     1      -3.040  -1.014   0.186  0.00  0.00    -0.280 N 
ATOM     27  C   UNL     1      -3.797  -0.035  -0.471  0.00  0.00    +0.270 C 
ATOM     33  H   UNL     1      -3.539  -1.615   0.838  0.00  0.00    +0.155 HD
BRANCH  27  28
ATOM      5  O   UNL     1      -7.097  -0.618   0.806  0.00  0.00    -0.359 OA
ATOM      8  N   UNL     1      -5.740  -0.906   0.732  0.00  0.00    -0.073 NA
ATOM     28  C   UNL     1      -5.247  -0.021  -0.140  0.00  0.00    +0.168 A 
ATOM     29  C   UNL     1      -6.236   0.841  -0.642  0.00  0.00    +0.080 A 
ATOM     30  C   UNL     1      -7.380   0.424  -0.016  0.00  0.00    +0.135 A 
ATOM     31  C   UNL     1      -8.781   0.863  -0.060  0.00  0.00    +0.089 C 
ENDBRANCH  27  28
ENDBRANCH  21   7
ENDBRANCH  10  12
BRANCH   9  11
ATOM     11  C   UNL     1       4.391  -2.155   1.392  0.00  0.00    +0.181 C 
BRANCH  11   2
ATOM      2  O   UNL     1       4.781  -1.504   2.583  0.00  0.00    -0.393 OA
ATOM     32  H   UNL     1       5.425  -2.080   3.029  0.00  0.00    +0.209 HD
ENDBRANCH  11   2
ENDBRANCH   9  11
BRANCH   6  13
ATOM     13  C   UNL     1       4.208   1.087   0.847  0.00  0.00    +0.143 C 
BRANCH  13  16
ATOM     16  C   UNL     1       3.090   2.069   0.648  0.00  0.00    -0.030 A 
ATOM     22  C   UNL     1       3.180   3.036  -0.353  0.00  0.00    +0.005 A 
ATOM     23  C   UNL     1       1.961   2.014   1.465  0.00  0.00    +0.005 A 
ATOM     24  C   UNL     1       2.141   3.948  -0.538  0.00  0.00    +0.000 A 
ATOM     25  C   UNL     1       0.922   2.926   1.281  0.00  0.00    +0.000 A 
ATOM     26  C   UNL     1       1.012   3.893   0.280  0.00  0.00    +0.000 A 
ENDBRANCH  13  16
ENDBRANCH   6  13
TORSDOF 7
