REMARK  Name = 40777425
REMARK  9 active torsions:
REMARK  status: ('A' for Active; 'I' for Inactive)
REMARK    1  A    between atoms: O_4  and  C_28
REMARK    2  A    between atoms: O_4  and  C_32
REMARK    3  A    between atoms: N_6  and  C_19
REMARK    4  A    between atoms: C_8  and  C_14
REMARK    5  A    between atoms: C_9  and  C_13
REMARK    6  A    between atoms: C_13  and  C_15
REMARK    7  A    between atoms: C_14  and  C_16
REMARK    8  A    between atoms: C_18  and  C_20
REMARK    9  A    between atoms: C_19  and  C_21
REMARK                            x       y       z     vdW  Elec       q    Type
REMARK                         _______ _______ _______ _____ _____    ______ ____
ROOT
ATOM      5  N   UNL     1       6.418  -0.416   0.256  0.00  0.00    -0.316 NA
ATOM      8  C   UNL     1       3.496  -0.132   0.552  0.00  0.00    +0.004 C 
ATOM      9  C   UNL     1       4.144  -1.174  -0.392  0.00  0.00    +0.012 C 
ATOM     10  C   UNL     1       4.494   0.225   1.666  0.00  0.00    +0.019 C 
ATOM     11  C   UNL     1       5.533  -0.720  -0.869  0.00  0.00    +0.085 C 
ATOM     12  C   UNL     1       5.862   0.625   1.117  0.00  0.00    +0.081 C 
ATOM     33  H   UNL     1       7.324  -0.112  -0.100  0.00  0.00    +0.122 HD
ENDROOT
BRANCH   9  13
ATOM     13  C   UNL     1       3.257  -1.535  -1.584  0.00  0.00    +0.064 C 
BRANCH  13  15
ATOM      3  O   UNL     1       0.450  -3.530  -0.533  0.00  0.00    -0.354 OA
ATOM      7  N   UNL     1       1.773  -3.382  -0.933  0.00  0.00    -0.083 NA
ATOM     15  C   UNL     1       1.928  -2.071  -1.135  0.00  0.00    +0.085 A 
ATOM     17  C   UNL     1       0.750  -1.348  -0.881  0.00  0.00    +0.076 A 
ATOM     18  C   UNL     1      -0.148  -2.312  -0.505  0.00  0.00    +0.167 A 
BRANCH  18  20
ATOM     20  C   UNL     1      -1.526  -2.305  -0.107  0.00  0.00    +0.020 A 
ATOM     22  C   UNL     1      -2.392  -1.332  -0.606  0.00  0.00    +0.015 A 
ATOM     23  C   UNL     1      -2.001  -3.273   0.778  0.00  0.00    +0.015 A 
ATOM     26  C   UNL     1      -3.732  -1.326  -0.220  0.00  0.00    +0.046 A 
ATOM     27  C   UNL     1      -3.341  -3.267   1.165  0.00  0.00    +0.046 A 
ATOM     28  C   UNL     1      -4.206  -2.293   0.666  0.00  0.00    +0.120 A 
BRANCH  28   4
ATOM      4  O   UNL     1      -5.514  -2.289   1.042  0.00  0.00    -0.495 OA
ATOM     32  C   UNL     1      -6.345  -1.268   0.491  0.00  0.00    +0.277 C 
ENDBRANCH  28   4
ENDBRANCH  18  20
ENDBRANCH  13  15
ENDBRANCH   9  13
BRANCH   8  14
ATOM     14  C   UNL     1       2.999   1.131  -0.161  0.00  0.00    +0.099 C 
BRANCH  14  16
ATOM      2  O   UNL     1       1.547   1.490   1.740  0.00  0.00    -0.276 OA
ATOM      6  N   UNL     1       1.538   3.022  -0.007  0.00  0.00    -0.311 N 
ATOM     16  C   UNL     1       1.957   1.873   0.648  0.00  0.00    +0.214 C 
ATOM     34  H   UNL     1       1.927   3.243  -0.920  0.00  0.00    +0.149 HD
BRANCH   6  19
ATOM     19  C   UNL     1       0.546   3.923   0.534  0.00  0.00    +0.139 C 
BRANCH  19  21
ATOM      1  F   UNL     1      -4.669   2.510  -1.047  0.00  0.00    -0.205 F 
ATOM     21  C   UNL     1      -0.844   3.546   0.113  0.00  0.00    -0.030 A 
ATOM     24  C   UNL     1      -1.385   4.074  -1.060  0.00  0.00    +0.008 A 
ATOM     25  C   UNL     1      -1.596   2.667   0.893  0.00  0.00    +0.008 A 
ATOM     29  C   UNL     1      -2.677   3.724  -1.451  0.00  0.00    +0.038 A 
ATOM     30  C   UNL     1      -2.888   2.318   0.502  0.00  0.00    +0.038 A 
ATOM     31  C   UNL     1      -3.429   2.846  -0.671  0.00  0.00    +0.123 A 
ENDBRANCH  19  21
ENDBRANCH   6  19
ENDBRANCH  14  16
ENDBRANCH   8  14
TORSDOF 8
