REMARK  Name = 11912444
REMARK  11 active torsions:
REMARK  status: ('A' for Active; 'I' for Inactive)
REMARK    1  A    between atoms: N_4  and  C_20
REMARK    2  A    between atoms: N_4  and  C_21
REMARK    3  A    between atoms: C_6  and  C_11
REMARK    4  A    between atoms: C_7  and  C_12
REMARK    5  A    between atoms: C_11  and  C_15
REMARK    6  A    between atoms: C_12  and  C_16
REMARK    7  A    between atoms: C_13  and  C_14
REMARK    8  A    between atoms: C_14  and  C_17
REMARK    9  A    between atoms: C_14  and  C_18
REMARK   10  A    between atoms: C_14  and  C_19
REMARK   11  A    between atoms: C_20  and  C_22
REMARK                            x       y       z     vdW  Elec       q    Type
REMARK                         _______ _______ _______ _____ _____    ______ ____
ROOT
ATOM      1  O   UNL     1      -3.847   0.753  -1.081  0.00  0.00    -0.275 OA
ATOM      3  N   UNL     1      -1.718   0.271  -0.283  0.00  0.00    -0.301 N 
ATOM      6  C   UNL     1      -0.217   2.242  -0.232  0.00  0.00    +0.010 C 
ATOM      7  C   UNL     1       0.799   1.454   0.631  0.00  0.00    +0.004 C 
ATOM      8  C   UNL     1       0.058   0.366   1.429  0.00  0.00    +0.023 C 
ATOM      9  C   UNL     1      -1.075   1.306  -1.097  0.00  0.00    +0.111 C 
ATOM     10  C   UNL     1      -0.804  -0.530   0.540  0.00  0.00    +0.108 C 
ATOM     13  C   UNL     1      -3.095   0.068  -0.383  0.00  0.00    +0.221 C 
ENDROOT
BRANCH  13  14
ATOM     14  C   UNL     1      -3.673  -1.066   0.425  0.00  0.00    +0.039 C 
ATOM     17  C   UNL     1      -5.183  -1.124   0.185  0.00  0.00    +0.020 C 
ATOM     18  C   UNL     1      -3.014  -2.373  -0.018  0.00  0.00    +0.020 C 
ATOM     19  C   UNL     1      -3.376  -0.790   1.900  0.00  0.00    +0.020 C 
ENDBRANCH  13  14
BRANCH   6  11
ATOM     11  C   UNL     1       0.438   3.320  -1.094  0.00  0.00    +0.002 C 
ATOM     15  C   UNL     1       1.313   4.230  -0.259  0.00  0.00    +0.004 C 
ENDBRANCH   6  11
BRANCH   7  12
ATOM     12  C   UNL     1       1.962   0.853  -0.167  0.00  0.00    +0.100 C 
BRANCH  12  16
ATOM      2  O   UNL     1       3.130   0.457   1.889  0.00  0.00    -0.276 OA
ATOM      4  N   UNL     1       3.617  -0.964   0.121  0.00  0.00    -0.291 N 
ATOM     16  C   UNL     1       2.949   0.111   0.718  0.00  0.00    +0.216 C 
ATOM     21  C   UNL     1       4.593  -1.774   0.840  0.00  0.00    +0.133 C 
BRANCH   4  20
ATOM     20  C   UNL     1       3.386  -1.355  -1.268  0.00  0.00    +0.226 C 
BRANCH  20  22
ATOM      5  N   UNL     1       1.451  -3.117  -1.436  0.00  0.00    -0.195 NA
ATOM     22  C   UNL     1       2.307  -2.338  -1.359  0.00  0.00    +0.082 C 
ENDBRANCH  20  22
ENDBRANCH   4  20
ENDBRANCH  12  16
ENDBRANCH   7  12
TORSDOF 6
