REMARK  Name = 28961644
REMARK  9 active torsions:
REMARK  status: ('A' for Active; 'I' for Inactive)
REMARK    1  A    between atoms: S_1  and  N_10
REMARK    2  A    between atoms: S_1  and  C_22
REMARK    3  A    between atoms: O_4  and  C_13
REMARK    4  A    between atoms: O_5  and  C_20
REMARK    5  A    between atoms: N_8  and  C_11
REMARK    6  A    between atoms: N_9  and  C_21
REMARK    7  A    between atoms: N_10  and  C_17
REMARK    8  A    between atoms: C_12  and  C_17
REMARK    9  A    between atoms: C_14  and  C_20
REMARK                            x       y       z     vdW  Elec       q    Type
REMARK                         _______ _______ _______ _____ _____    ______ ____
ROOT
ATOM      3  O   UNL     1      -0.103  -2.606  -0.931  0.00  0.00    -0.366 OA
ATOM     11  C   UNL     1      -1.890  -1.096  -0.490  0.00  0.00    +0.118 C 
ATOM     12  C   UNL     1      -0.496  -1.229  -1.118  0.00  0.00    +0.154 C 
ATOM     13  C   UNL     1      -1.901  -2.202   0.555  0.00  0.00    +0.165 C 
ATOM     14  C   UNL     1      -1.124  -3.289  -0.179  0.00  0.00    +0.174 C 
ENDROOT
BRANCH  11   8
ATOM      8  N   UNL     1      -2.253   0.231   0.003  0.00  0.00    -0.292 NA
ATOM      9  N   UNL     1      -3.931   2.584   0.066  0.00  0.00    -0.303 NA
ATOM     15  C   UNL     1      -2.223   1.217  -1.083  0.00  0.00    +0.100 C 
ATOM     16  C   UNL     1      -3.576   0.207   0.638  0.00  0.00    +0.100 C 
ATOM     18  C   UNL     1      -2.607   2.608  -0.569  0.00  0.00    +0.099 C 
ATOM     19  C   UNL     1      -3.959   1.599   1.153  0.00  0.00    +0.099 C 
ATOM     21  C   UNL     1      -4.296   3.911   0.557  0.00  0.00    +0.105 C 
ENDBRANCH  11   8
BRANCH  13   4
ATOM      4  O   UNL     1      -1.211  -1.811   1.735  0.00  0.00    -0.388 OA
ATOM     26  H   UNL     1      -1.343  -2.509   2.398  0.00  0.00    +0.210 HD
ENDBRANCH  13   4
BRANCH  12  17
ATOM     17  C   UNL     1       0.607  -0.359  -0.524  0.00  0.00    +0.139 C 
BRANCH  17  10
ATOM     10  N   UNL     1       1.699  -0.217  -1.440  0.00  0.00    -0.187 NA
ATOM     27  H   UNL     1       2.197  -1.093  -1.646  0.00  0.00    +0.148 HD
BRANCH  10   1
ATOM      1  S   UNL     1       2.662   1.213  -1.470  0.00  0.00    +0.065 S 
ATOM      6  O   UNL     1       1.784   2.358  -1.620  0.00  0.00    -0.153 OA
ATOM      7  O   UNL     1       3.792   1.038  -2.362  0.00  0.00    -0.153 OA
BRANCH   1  22
ATOM      2  S   UNL     1       4.449   0.004   0.514  0.00  0.00    -0.077 S 
ATOM     22  C   UNL     1       3.302   1.230   0.178  0.00  0.00    +0.142 A 
ATOM     23  C   UNL     1       3.071   2.036   1.271  0.00  0.00    +0.036 A 
ATOM     24  C   UNL     1       3.846   1.642   2.400  0.00  0.00    +0.010 A 
ATOM     25  C   UNL     1       4.640   0.550   2.126  0.00  0.00    +0.047 A 
ENDBRANCH   1  22
ENDBRANCH  10   1
ENDBRANCH  17  10
ENDBRANCH  12  17
BRANCH  14  20
ATOM     20  C   UNL     1      -0.476  -4.339   0.706  0.00  0.00    +0.190 C 
BRANCH  20   5
ATOM      5  O   UNL     1       0.195  -5.280  -0.116  0.00  0.00    -0.392 OA
ATOM     28  H   UNL     1       0.596  -5.941   0.474  0.00  0.00    +0.210 HD
ENDBRANCH  20   5
ENDBRANCH  14  20
TORSDOF 8
