REMARK  Name = 7685242
REMARK  4 active torsions:
REMARK  status: ('A' for Active; 'I' for Inactive)
REMARK    1  A    between atoms: S_2  and  C_20
REMARK    2  A    between atoms: S_2  and  C_24
REMARK    3  A    between atoms: C_14  and  C_19
REMARK    4  A    between atoms: C_16  and  C_20
REMARK                            x       y       z     vdW  Elec       q    Type
REMARK                         _______ _______ _______ _____ _____    ______ ____
ROOT
ATOM      3  O   UNL     1       0.893   3.017  -2.417  0.00  0.00    -0.268 OA
ATOM      4  O   UNL     1       3.800  -0.574   0.098  0.00  0.00    -0.275 OA
ATOM      5  N   UNL     1       1.841  -0.184   1.284  0.00  0.00    -0.300 N 
ATOM      6  N   UNL     1       0.184   1.855  -0.510  0.00  0.00    -0.311 N 
ATOM      7  C   UNL     1       1.321   2.203   1.763  0.00  0.00    +0.027 C 
ATOM      8  C   UNL     1      -0.514   0.583   1.543  0.00  0.00    +0.054 C 
ATOM      9  C   UNL     1      -0.026   1.794   2.336  0.00  0.00    +0.018 C 
ATOM     10  C   UNL     1       2.337   1.055   1.881  0.00  0.00    +0.113 C 
ATOM     11  C   UNL     1       1.118   2.639   0.311  0.00  0.00    +0.130 C 
ATOM     12  C   UNL     1       0.490  -0.577   1.706  0.00  0.00    +0.117 C 
ATOM     13  C   UNL     1      -0.702   0.917   0.058  0.00  0.00    +0.035 A 
ATOM     14  C   UNL     1      -1.655   0.332  -0.717  0.00  0.00    +0.009 A 
ATOM     15  C   UNL     1       0.153   2.196  -1.874  0.00  0.00    +0.252 A 
ATOM     16  C   UNL     1       2.668  -0.925   0.440  0.00  0.00    +0.225 C 
ATOM     17  C   UNL     1      -1.712   0.657  -2.131  0.00  0.00    +0.016 A 
ATOM     18  C   UNL     1      -0.867   1.516  -2.702  0.00  0.00    +0.071 A 
ENDROOT
BRANCH  14  19
ATOM      1  S   UNL     1      -4.078  -0.047   0.465  0.00  0.00    -0.097 S 
ATOM     19  C   UNL     1      -2.586  -0.609  -0.157  0.00  0.00    +0.021 A 
ATOM     21  C   UNL     1      -2.456  -1.975  -0.034  0.00  0.00    +0.016 A 
ATOM     22  C   UNL     1      -3.598  -2.568   0.579  0.00  0.00    +0.008 A 
ATOM     23  C   UNL     1      -4.556  -1.632   0.901  0.00  0.00    +0.046 A 
ENDBRANCH  14  19
BRANCH  16  20
ATOM     20  C   UNL     1       2.113  -2.228  -0.078  0.00  0.00    +0.164 C 
BRANCH  20   2
ATOM      2  S   UNL     1       3.362  -2.972  -1.137  0.00  0.00    -0.155 S 
ATOM     24  C   UNL     1       2.468  -4.473  -1.610  0.00  0.00    +0.085 C 
ENDBRANCH  20   2
ENDBRANCH  16  20
TORSDOF 3
