REMARK  Name = 51136849
REMARK  7 active torsions:
REMARK  status: ('A' for Active; 'I' for Inactive)
REMARK    1  A    between atoms: O_2  and  C_33
REMARK    2  A    between atoms: N_4  and  C_14
REMARK    3  A    between atoms: N_6  and  C_25
REMARK    4  A    between atoms: C_10  and  C_15
REMARK    5  A    between atoms: C_14  and  C_16
REMARK    6  A    between atoms: C_21  and  C_26
REMARK    7  A    between atoms: C_32  and  C_33
REMARK                            x       y       z     vdW  Elec       q    Type
REMARK                         _______ _______ _______ _____ _____    ______ ____
ROOT
ATOM      1  O   UNL     1      -2.789  -1.539   2.059  0.00  0.00    -0.336 OA
ATOM      7  N   UNL     1      -1.910  -1.230   0.022  0.00  0.00    -0.190 NA
ATOM      8  N   UNL     1      -1.404  -1.444   2.243  0.00  0.00    -0.056 NA
ATOM     15  C   UNL     1      -3.001  -1.404   0.724  0.00  0.00    +0.245 A 
ATOM     21  C   UNL     1      -0.956  -1.262   0.998  0.00  0.00    +0.204 A 
ENDROOT
BRANCH  21  26
ATOM      5  N   UNL     1       4.467  -0.683  -0.090  0.00  0.00    -0.313 N 
ATOM      6  N   UNL     1       7.295  -0.555  -0.473  0.00  0.00    -0.302 NA
ATOM      9  N   UNL     1       2.722  -1.008   1.476  0.00  0.00    -0.240 NA
ATOM     17  C   UNL     1       5.321  -0.069   0.933  0.00  0.00    +0.122 C 
ATOM     18  C   UNL     1       5.132  -1.641  -0.980  0.00  0.00    +0.122 C 
ATOM     19  C   UNL     1       6.603   0.481   0.303  0.00  0.00    +0.103 C 
ATOM     20  C   UNL     1       6.420  -1.040  -1.548  0.00  0.00    +0.103 C 
ATOM     22  C   UNL     1       3.104  -0.829   0.192  0.00  0.00    +0.121 A 
ATOM     25  C   UNL     1       8.544  -0.033  -1.025  0.00  0.00    +0.105 C 
ATOM     26  C   UNL     1       0.437  -1.111   0.694  0.00  0.00    +0.041 A 
ATOM     27  C   UNL     1       2.226  -0.781  -0.879  0.00  0.00    +0.044 A 
ATOM     28  C   UNL     1       0.868  -0.925  -0.615  0.00  0.00    +0.016 A 
ATOM     31  C   UNL     1       1.395  -1.145   1.694  0.00  0.00    +0.124 A 
ENDBRANCH  21  26
BRANCH  15  10
ATOM      4  N   UNL     1      -4.671  -0.714  -0.988  0.00  0.00    -0.287 NA
ATOM     10  C   UNL     1      -4.441  -1.471   0.259  0.00  0.00    +0.146 C 
ATOM     11  C   UNL     1      -4.894  -2.906  -0.066  0.00  0.00    +0.030 C 
ATOM     12  C   UNL     1      -5.419  -2.845  -1.493  0.00  0.00    +0.017 C 
ATOM     13  C   UNL     1      -5.772  -1.383  -1.681  0.00  0.00    +0.085 C 
BRANCH   4  14
ATOM     14  C   UNL     1      -4.944   0.699  -0.760  0.00  0.00    +0.120 C 
BRANCH  14  16
ATOM     16  C   UNL     1      -3.682   1.480  -0.506  0.00  0.00    -0.033 A 
ATOM     23  C   UNL     1      -3.528   2.187   0.687  0.00  0.00    +0.006 A 
ATOM     24  C   UNL     1      -2.667   1.497  -1.463  0.00  0.00    +0.006 A 
ATOM     29  C   UNL     1      -2.360   2.910   0.923  0.00  0.00    +0.015 A 
ATOM     30  C   UNL     1      -1.499   2.221  -1.227  0.00  0.00    +0.015 A 
ATOM     32  C   UNL     1      -1.345   2.928  -0.034  0.00  0.00    +0.059 A 
BRANCH  32  33
ATOM      3  O   UNL     1       0.117   4.340   1.229  0.00  0.00    -0.245 OA
ATOM     33  C   UNL     1      -0.126   3.681   0.212  0.00  0.00    +0.337 C 
BRANCH  33   2
ATOM      2  O   UNL     1       0.759   3.592  -0.819  0.00  0.00    -0.477 OA
ATOM     34  H   UNL     1       1.578   4.103  -0.643  0.00  0.00    +0.295 HD
ENDBRANCH  33   2
ENDBRANCH  32  33
ENDBRANCH  14  16
ENDBRANCH   4  14
ENDBRANCH  15  10
TORSDOF 6
