REMARK  Name = 45783508
REMARK  5 active torsions:
REMARK  status: ('A' for Active; 'I' for Inactive)
REMARK    1  A    between atoms: N_3  and  C_13
REMARK    2  A    between atoms: C_9  and  C_14
REMARK    3  A    between atoms: C_13  and  C_15
REMARK    4  A    between atoms: C_16  and  C_21
REMARK    5  A    between atoms: C_25  and  C_31
REMARK                            x       y       z     vdW  Elec       q    Type
REMARK                         _______ _______ _______ _____ _____    ______ ____
ROOT
ATOM      1  O   UNL     1      -2.423   2.178  -1.488  0.00  0.00    -0.336 OA
ATOM      4  N   UNL     1      -1.591   1.028   0.245  0.00  0.00    -0.190 NA
ATOM      6  N   UNL     1      -1.035   2.143  -1.674  0.00  0.00    -0.056 NA
ATOM     14  C   UNL     1      -2.665   1.499  -0.336  0.00  0.00    +0.245 A 
ATOM     16  C   UNL     1      -0.616   1.448  -0.613  0.00  0.00    +0.204 A 
ENDROOT
BRANCH  16  21
ATOM      2  O   UNL     1       7.523  -0.210   0.372  0.00  0.00    -0.377 OA
ATOM      5  N   UNL     1       4.777   0.368   0.215  0.00  0.00    -0.311 N 
ATOM      7  N   UNL     1       3.070   1.350  -1.097  0.00  0.00    -0.240 NA
ATOM     19  C   UNL     1       5.768   1.330  -0.285  0.00  0.00    +0.134 C 
ATOM     20  C   UNL     1       5.238  -1.023   0.290  0.00  0.00    +0.134 C 
ATOM     21  C   UNL     1       0.769   1.157  -0.379  0.00  0.00    +0.041 A 
ATOM     22  C   UNL     1       7.086   1.146   0.459  0.00  0.00    +0.178 C 
ATOM     23  C   UNL     1       6.585  -1.082   1.003  0.00  0.00    +0.178 C 
ATOM     24  C   UNL     1       3.422   0.643  -0.000  0.00  0.00    +0.121 A 
ATOM     27  C   UNL     1       1.171   0.432   0.738  0.00  0.00    +0.016 A 
ATOM     28  C   UNL     1       2.521   0.166   0.938  0.00  0.00    +0.044 A 
ATOM     30  C   UNL     1       1.749   1.590  -1.258  0.00  0.00    +0.124 A 
ENDBRANCH  16  21
BRANCH  14   9
ATOM      3  N   UNL     1      -4.378   0.186   0.903  0.00  0.00    -0.287 NA
ATOM      9  C   UNL     1      -4.114   1.391   0.092  0.00  0.00    +0.146 C 
ATOM     10  C   UNL     1      -4.559   2.567   0.982  0.00  0.00    +0.030 C 
ATOM     11  C   UNL     1      -5.115   1.922   2.244  0.00  0.00    +0.017 C 
ATOM     12  C   UNL     1      -5.487   0.523   1.796  0.00  0.00    +0.085 C 
BRANCH   3  13
ATOM     13  C   UNL     1      -4.660  -0.996   0.100  0.00  0.00    +0.120 C 
BRANCH  13  15
ATOM     15  C   UNL     1      -3.401  -1.622  -0.439  0.00  0.00    -0.032 A 
ATOM     17  C   UNL     1      -2.408  -2.059   0.437  0.00  0.00    +0.023 A 
ATOM     18  C   UNL     1      -3.230  -1.766  -1.816  0.00  0.00    +0.005 A 
ATOM     25  C   UNL     1      -1.242  -2.639  -0.064  0.00  0.00    +0.052 A 
ATOM     26  C   UNL     1      -2.065  -2.347  -2.317  0.00  0.00    +0.002 A 
ATOM     29  C   UNL     1      -1.071  -2.783  -1.440  0.00  0.00    +0.019 A 
BRANCH  25  31
ATOM      8  N   UNL     1       0.603  -3.451   1.561  0.00  0.00    -0.191 NA
ATOM     31  C   UNL     1      -0.224  -3.087   0.833  0.00  0.00    +0.099 C 
ENDBRANCH  25  31
ENDBRANCH  13  15
ENDBRANCH   3  13
ENDBRANCH  14   9
TORSDOF 5
