REMARK  Name = 11882557
REMARK  11 active torsions:
REMARK  status: ('A' for Active; 'I' for Inactive)
REMARK    1  A    between atoms: O_2  and  C_12
REMARK    2  A    between atoms: O_3  and  C_15
REMARK    3  A    between atoms: O_4  and  C_17
REMARK    4  A    between atoms: N_8  and  C_13
REMARK    5  A    between atoms: N_9  and  C_19
REMARK    6  A    between atoms: N_10  and  C_24
REMARK    7  A    between atoms: C_12  and  C_18
REMARK    8  A    between atoms: C_19  and  C_21
REMARK    9  A    between atoms: C_19  and  C_22
REMARK   10  A    between atoms: C_21  and  C_23
REMARK   11  A    between atoms: C_32  and  C_33
REMARK                            x       y       z     vdW  Elec       q    Type
REMARK                         _______ _______ _______ _____ _____    ______ ____
ROOT
ATOM     12  C   UNL     1      -2.070  -1.542   0.886  0.00  0.00    +0.146 C 
ATOM     13  C   UNL     1       0.216  -2.046  -0.103  0.00  0.00    +0.109 C 
ATOM     14  C   UNL     1      -0.763  -0.957   0.349  0.00  0.00    +0.069 C 
ATOM     15  C   UNL     1      -0.429  -3.014  -1.103  0.00  0.00    +0.163 C 
ATOM     16  C   UNL     1      -2.712  -2.488  -0.126  0.00  0.00    +0.078 C 
ATOM     17  C   UNL     1      -1.748  -3.587  -0.579  0.00  0.00    +0.148 C 
ENDROOT
BRANCH  13   8
ATOM      6  O   UNL     1       2.567  -1.217   1.308  0.00  0.00    -0.252 OA
ATOM      8  N   UNL     1       1.397  -1.436  -0.674  0.00  0.00    -0.294 N 
ATOM     10  N   UNL     1       3.489  -0.500  -0.729  0.00  0.00    -0.269 N 
ATOM     20  C   UNL     1       2.505  -1.060   0.090  0.00  0.00    +0.304 C 
ATOM     34  H   UNL     1       1.390  -1.202  -1.662  0.00  0.00    +0.151 HD
ATOM     39  H   UNL     1       3.278  -0.443  -1.722  0.00  0.00    +0.156 HD
BRANCH  10  24
ATOM     24  C   UNL     1       4.754   0.004  -0.346  0.00  0.00    +0.035 A 
ATOM     26  C   UNL     1       5.614   0.532  -1.309  0.00  0.00    +0.023 A 
ATOM     27  C   UNL     1       5.141  -0.029   0.993  0.00  0.00    +0.023 A 
ATOM     30  C   UNL     1       6.862   1.028  -0.931  0.00  0.00    +0.005 A 
ATOM     31  C   UNL     1       6.389   0.467   1.370  0.00  0.00    +0.005 A 
ATOM     32  C   UNL     1       7.250   0.996   0.408  0.00  0.00    -0.050 A 
ATOM     33  C   UNL     1       8.584   1.527   0.810  0.00  0.00    +0.044 C 
ENDBRANCH  10  24
ENDBRANCH  13   8
BRANCH  12  18
ATOM      5  O   UNL     1      -3.471  -0.326   2.391  0.00  0.00    -0.273 OA
ATOM      9  N   UNL     1      -3.348   0.353   0.168  0.00  0.00    -0.301 N 
ATOM     18  C   UNL     1      -3.029  -0.447   1.252  0.00  0.00    +0.246 C 
ATOM     38  H   UNL     1      -2.986   0.127  -0.753  0.00  0.00    +0.150 HD
BRANCH   9  19
ATOM     19  C   UNL     1      -4.269   1.464   0.250  0.00  0.00    +0.163 C 
BRANCH  19  22
ATOM      7  O   UNL     1      -5.915  -0.026  -0.737  0.00  0.00    -0.274 OA
ATOM     11  N   UNL     1      -6.619   1.518   0.812  0.00  0.00    -0.328 N 
ATOM     22  C   UNL     1      -5.666   0.904   0.026  0.00  0.00    +0.231 C 
ATOM     40  H   UNL     1      -7.590   1.228   0.772  0.00  0.00    +0.145 HD
ATOM     41  H   UNL     1      -6.399   2.283   1.441  0.00  0.00    +0.145 HD
ENDBRANCH  19  22
BRANCH  19  21
ATOM     21  C   UNL     1      -3.958   2.554  -0.783  0.00  0.00    +0.074 C 
BRANCH  21  23
ATOM      1  S   UNL     1      -1.702   3.643  -2.001  0.00  0.00    -0.102 S 
ATOM     23  C   UNL     1      -2.568   3.122  -0.619  0.00  0.00    -0.008 A 
ATOM     25  C   UNL     1      -1.844   3.295   0.540  0.00  0.00    +0.011 A 
ATOM     28  C   UNL     1      -0.562   3.863   0.291  0.00  0.00    +0.008 A 
ATOM     29  C   UNL     1      -0.354   4.103  -1.050  0.00  0.00    +0.045 A 
ENDBRANCH  21  23
ENDBRANCH  19  21
ENDBRANCH   9  19
ENDBRANCH  12  18
BRANCH  12   2
ATOM      2  O   UNL     1      -1.837  -2.248   2.100  0.00  0.00    -0.379 OA
ATOM     35  H   UNL     1      -2.663  -2.690   2.362  0.00  0.00    +0.211 HD
ENDBRANCH  12   2
BRANCH  15   3
ATOM      3  O   UNL     1       0.459  -4.112  -1.329  0.00  0.00    -0.387 OA
ATOM     36  H   UNL     1       0.626  -4.546  -0.475  0.00  0.00    +0.210 HD
ENDBRANCH  15   3
BRANCH  17   4
ATOM      4  O   UNL     1      -2.364  -4.337  -1.626  0.00  0.00    -0.389 OA
ATOM     37  H   UNL     1      -3.193  -4.704  -1.275  0.00  0.00    +0.210 HD
ENDBRANCH  17   4
TORSDOF 10
