REMARK  Name = 51136670
REMARK  9 active torsions:
REMARK  status: ('A' for Active; 'I' for Inactive)
REMARK    1  A    between atoms: O_1  and  C_18
REMARK    2  A    between atoms: O_4  and  C_26
REMARK    3  A    between atoms: O_4  and  C_28
REMARK    4  A    between atoms: N_7  and  C_25
REMARK    5  A    between atoms: C_8  and  C_12
REMARK    6  A    between atoms: C_9  and  C_14
REMARK    7  A    between atoms: C_12  and  C_15
REMARK    8  A    between atoms: C_14  and  C_18
REMARK    9  A    between atoms: C_25  and  C_27
REMARK                            x       y       z     vdW  Elec       q    Type
REMARK                         _______ _______ _______ _____ _____    ______ ____
ROOT
ATOM      2  O   UNL     1       0.949  -3.832  -0.913  0.00  0.00    -0.253 OA
ATOM      5  N   UNL     1       1.809  -2.106   0.375  0.00  0.00    -0.285 N 
ATOM      7  N   UNL     1      -0.480  -2.692   0.471  0.00  0.00    -0.296 N 
ATOM      8  C   UNL     1       2.117   0.324   0.754  0.00  0.00    +0.016 C 
ATOM      9  C   UNL     1       3.544   0.200   0.156  0.00  0.00    +0.006 C 
ATOM     10  C   UNL     1       3.659  -0.997  -0.804  0.00  0.00    +0.023 C 
ATOM     11  C   UNL     1       1.695  -1.024   1.363  0.00  0.00    +0.113 C 
ATOM     13  C   UNL     1       3.161  -2.287  -0.153  0.00  0.00    +0.109 C 
ATOM     16  C   UNL     1       0.772  -2.939  -0.077  0.00  0.00    +0.302 C 
ATOM     30  H   UNL     1      -0.628  -1.903   1.086  0.00  0.00    +0.151 HD
ENDROOT
BRANCH   8  12
ATOM     12  C   UNL     1       1.062   0.814  -0.245  0.00  0.00    +0.061 C 
BRANCH  12  15
ATOM      6  N   UNL     1       0.087   1.906   1.659  0.00  0.00    -0.287 NA
ATOM     15  C   UNL     1      -0.125   1.379   0.498  0.00  0.00    +0.044 C 
ATOM     17  C   UNL     1      -1.467   1.298  -0.132  0.00  0.00    -0.001 A 
ATOM     19  C   UNL     1      -2.572   1.464   0.714  0.00  0.00    -0.033 A 
ATOM     20  C   UNL     1      -2.331   1.695   2.176  0.00  0.00    +0.059 C 
ATOM     21  C   UNL     1      -1.056   2.509   2.354  0.00  0.00    +0.146 C 
ATOM     22  C   UNL     1      -1.649   1.054  -1.494  0.00  0.00    +0.013 A 
ATOM     23  C   UNL     1      -3.863   1.359   0.190  0.00  0.00    +0.050 A 
ATOM     24  C   UNL     1      -2.942   0.966  -2.010  0.00  0.00    +0.046 A 
ATOM     26  C   UNL     1      -4.047   1.115  -1.171  0.00  0.00    +0.120 A 
BRANCH  26   4
ATOM      4  O   UNL     1      -5.305   1.020  -1.681  0.00  0.00    -0.495 OA
ATOM     28  C   UNL     1      -6.389   1.183  -0.767  0.00  0.00    +0.277 C 
ENDBRANCH  26   4
ENDBRANCH  12  15
ENDBRANCH   8  12
BRANCH   9  14
ATOM     14  C   UNL     1       4.024   1.483  -0.521  0.00  0.00    +0.124 C 
BRANCH  14  18
ATOM      3  O   UNL     1       6.307   0.699  -0.188  0.00  0.00    -0.251 OA
ATOM     18  C   UNL     1       5.524   1.543  -0.597  0.00  0.00    +0.305 C 
BRANCH  18   1
ATOM      1  O   UNL     1       5.906   2.698  -1.200  0.00  0.00    -0.481 OA
ATOM     31  H   UNL     1       6.883   2.771  -1.266  0.00  0.00    +0.295 HD
ENDBRANCH  18   1
ENDBRANCH  14  18
ENDBRANCH   9  14
BRANCH   7  25
ATOM     25  C   UNL     1      -1.648  -3.459   0.100  0.00  0.00    +0.132 C 
BRANCH  25  27
ATOM     27  C   UNL     1      -2.827  -2.950   0.860  0.00  0.00    -0.016 C 
ATOM     29  C   UNL     1      -3.914  -2.423   0.284  0.00  0.00    +0.005 C 
ENDBRANCH  25  27
ENDBRANCH   7  25
TORSDOF 8
