REMARK  Name = 7135513
REMARK  5 active torsions:
REMARK  status: ('A' for Active; 'I' for Inactive)
REMARK    1  A    between atoms: N_10  and  C_24
REMARK    2  A    between atoms: C_22  and  C_25
REMARK    3  A    between atoms: C_24  and  C_26
REMARK    4  A    between atoms: C_26  and  C_29
REMARK    5  A    between atoms: C_30  and  C_33
REMARK                            x       y       z     vdW  Elec       q    Type
REMARK                         _______ _______ _______ _____ _____    ______ ____
ROOT
ATOM      4  O   UNL     1      -3.358  -2.343   0.281  0.00  0.00    -0.273 OA
ATOM      5  O   UNL     1       0.066   1.034  -1.913  0.00  0.00    -0.270 OA
ATOM      6  O   UNL     1      -6.080  -0.110   1.860  0.00  0.00    -0.253 OA
ATOM      7  N   UNL     1      -1.663   0.367  -0.527  0.00  0.00    -0.283 N 
ATOM      8  N   UNL     1      -4.441   0.430   0.307  0.00  0.00    -0.282 N 
ATOM      9  N   UNL     1      -1.104  -2.489   0.013  0.00  0.00    -0.283 N 
ATOM     10  N   UNL     1      -6.721   0.381  -0.298  0.00  0.00    -0.299 N 
ATOM     11  C   UNL     1      -2.088  -0.328   0.679  0.00  0.00    +0.180 C 
ATOM     12  C   UNL     1      -3.362   0.273   1.287  0.00  0.00    +0.141 C 
ATOM     13  C   UNL     1      -2.606   1.314  -1.123  0.00  0.00    +0.128 C 
ATOM     14  C   UNL     1      -4.042   0.815  -1.052  0.00  0.00    +0.128 C 
ATOM     15  C   UNL     1      -2.259  -1.786   0.282  0.00  0.00    +0.239 C 
ATOM     16  C   UNL     1      -0.359   0.309  -1.011  0.00  0.00    +0.249 C 
ATOM     17  C   UNL     1       0.579  -0.694  -0.440  0.00  0.00    +0.059 A 
ATOM     18  C   UNL     1       0.216  -2.000  -0.074  0.00  0.00    +0.046 A 
ATOM     19  C   UNL     1      -5.773   0.213   0.708  0.00  0.00    +0.302 C 
ATOM     20  C   UNL     1       1.940  -0.334  -0.446  0.00  0.00    +0.023 A 
ATOM     21  C   UNL     1       1.228  -2.934   0.207  0.00  0.00    +0.024 A 
ATOM     22  C   UNL     1       2.928  -1.260  -0.116  0.00  0.00    -0.017 A 
ATOM     23  C   UNL     1       2.572  -2.565   0.197  0.00  0.00    +0.010 A 
ATOM     34  H   UNL     1      -1.208  -3.500  -0.030  0.00  0.00    +0.155 HD
ATOM     35  H   UNL     1      -6.429   0.597  -1.243  0.00  0.00    +0.150 HD
ENDROOT
BRANCH  22  25
ATOM     25  C   UNL     1       4.321  -0.870  -0.124  0.00  0.00    -0.017 A 
ATOM     27  C   UNL     1       4.679   0.442   0.186  0.00  0.00    +0.021 A 
ATOM     28  C   UNL     1       5.306  -1.805  -0.441  0.00  0.00    +0.008 A 
ATOM     30  C   UNL     1       6.022   0.819   0.179  0.00  0.00    +0.055 A 
ATOM     31  C   UNL     1       6.649  -1.429  -0.449  0.00  0.00    +0.001 A 
ATOM     32  C   UNL     1       7.007  -0.117  -0.139  0.00  0.00    +0.012 A 
BRANCH  30  33
ATOM      1  F   UNL     1       7.753   2.445   0.465  0.00  0.00    -0.166 F 
ATOM      2  F   UNL     1       5.862   3.151  -0.328  0.00  0.00    -0.166 F 
ATOM      3  F   UNL     1       6.017   2.589   1.767  0.00  0.00    -0.166 F 
ATOM     33  C   UNL     1       6.407   2.221   0.511  0.00  0.00    +0.417 C 
ENDBRANCH  30  33
ENDBRANCH  22  25
BRANCH  10  24
ATOM     24  C   UNL     1      -8.140   0.194  -0.090  0.00  0.00    +0.105 C 
BRANCH  24  26
ATOM     26  C   UNL     1      -8.838   1.479   0.340  0.00  0.00    +0.015 C 
ATOM     29  C   UNL     1      -8.720   2.588  -0.697  0.00  0.00    +0.005 C 
ENDBRANCH  24  26
ENDBRANCH  10  24
TORSDOF 4
