REMARK  Name = 7165012
REMARK  8 active torsions:
REMARK  status: ('A' for Active; 'I' for Inactive)
REMARK    1  A    between atoms: S_1  and  N_8
REMARK    2  A    between atoms: S_1  and  C_25
REMARK    3  A    between atoms: N_9  and  C_24
REMARK    4  A    between atoms: C_12  and  C_16
REMARK    5  A    between atoms: C_13  and  C_23
REMARK    6  A    between atoms: C_24  and  C_26
REMARK    7  A    between atoms: C_24  and  C_28
REMARK    8  A    between atoms: C_26  and  C_27
REMARK                            x       y       z     vdW  Elec       q    Type
REMARK                         _______ _______ _______ _____ _____    ______ ____
ROOT
ATOM      3  O   UNL     1       0.128   0.368  -1.727  0.00  0.00    -0.274 OA
ATOM      9  N   UNL     1       1.805   0.939  -0.218  0.00  0.00    -0.302 N 
ATOM     23  C   UNL     1       0.501   0.672  -0.597  0.00  0.00    +0.235 C 
ATOM     36  H   UNL     1       2.011   1.164   0.751  0.00  0.00    +0.150 HD
ENDROOT
BRANCH  23  13
ATOM      2  O   UNL     1      -1.544  -1.823   0.791  0.00  0.00    -0.275 OA
ATOM      7  N   UNL     1      -1.773   0.368   0.042  0.00  0.00    -0.287 N 
ATOM      8  N   UNL     1      -1.129   3.142   0.297  0.00  0.00    -0.178 NA
ATOM     13  C   UNL     1      -0.457   0.767   0.555  0.00  0.00    +0.177 C 
ATOM     16  C   UNL     1      -2.167  -0.970   0.154  0.00  0.00    +0.219 C 
ATOM     19  C   UNL     1      -0.450   2.156   1.188  0.00  0.00    +0.141 C 
ATOM     20  C   UNL     1      -2.514   1.388  -0.717  0.00  0.00    +0.125 C 
ATOM     22  C   UNL     1      -2.529   2.730   0.002  0.00  0.00    +0.128 C 
BRANCH  16  12
ATOM     12  C   UNL     1      -3.431  -1.361  -0.553  0.00  0.00    +0.075 C 
ATOM     14  C   UNL     1      -4.633  -1.137   0.367  0.00  0.00    +0.013 C 
ATOM     15  C   UNL     1      -3.341  -2.818  -1.012  0.00  0.00    +0.013 C 
ATOM     17  C   UNL     1      -5.933  -1.611  -0.278  0.00  0.00    +0.001 C 
ATOM     18  C   UNL     1      -4.644  -3.288  -1.655  0.00  0.00    +0.001 C 
ATOM     21  C   UNL     1      -5.838  -3.065  -0.732  0.00  0.00    +0.000 C 
ENDBRANCH  16  12
BRANCH   8   1
ATOM      1  S   UNL     1      -0.919   4.787   0.727  0.00  0.00    +0.029 S 
ATOM      4  O   UNL     1      -1.533   5.614  -0.288  0.00  0.00    -0.158 OA
ATOM      5  O   UNL     1       0.450   4.986   1.146  0.00  0.00    -0.158 OA
ATOM     25  C   UNL     1      -1.949   4.835   2.171  0.00  0.00    +0.215 C 
ENDBRANCH   8   1
ENDBRANCH  23  13
BRANCH   9  24
ATOM     24  C   UNL     1       2.921   0.891  -1.135  0.00  0.00    +0.163 C 
BRANCH  24  28
ATOM      6  O   UNL     1       3.536   3.074  -0.261  0.00  0.00    -0.274 OA
ATOM     11  N   UNL     1       4.018   2.593  -2.455  0.00  0.00    -0.328 N 
ATOM     28  C   UNL     1       3.496   2.298  -1.213  0.00  0.00    +0.231 C 
ATOM     38  H   UNL     1       4.445   3.495  -2.639  0.00  0.00    +0.145 HD
ATOM     39  H   UNL     1       3.998   1.933  -3.226  0.00  0.00    +0.145 HD
ENDBRANCH  24  28
BRANCH  24  26
ATOM     26  C   UNL     1       3.999  -0.105  -0.687  0.00  0.00    +0.069 C 
BRANCH  26  27
ATOM     10  N   UNL     1       2.932  -3.603  -1.054  0.00  0.00    -0.360 N 
ATOM     27  C   UNL     1       3.486  -1.511  -0.562  0.00  0.00    -0.020 A 
ATOM     29  C   UNL     1       2.924  -2.108   0.602  0.00  0.00    +0.003 A 
ATOM     30  C   UNL     1       3.478  -2.455  -1.562  0.00  0.00    +0.087 A 
ATOM     31  C   UNL     1       2.585  -3.420   0.266  0.00  0.00    +0.047 A 
ATOM     32  C   UNL     1       2.671  -1.656   1.912  0.00  0.00    +0.010 A 
ATOM     33  C   UNL     1       2.003  -4.307   1.179  0.00  0.00    +0.026 A 
ATOM     34  C   UNL     1       2.089  -2.532   2.836  0.00  0.00    +0.001 A 
ATOM     35  C   UNL     1       1.761  -3.837   2.473  0.00  0.00    +0.002 A 
ATOM     37  H   UNL     1       2.803  -4.462  -1.571  0.00  0.00    +0.165 HD
ENDBRANCH  26  27
ENDBRANCH  24  26
ENDBRANCH   9  24
TORSDOF 7
