REMARK  Name = 40777854
REMARK  7 active torsions:
REMARK  status: ('A' for Active; 'I' for Inactive)
REMARK    1  A    between atoms: O_2  and  C_9
REMARK    2  A    between atoms: O_3  and  C_10
REMARK    3  A    between atoms: N_7  and  C_13
REMARK    4  A    between atoms: C_8  and  C_12
REMARK    5  A    between atoms: C_11  and  C_13
REMARK    6  A    between atoms: C_12  and  C_14
REMARK    7  A    between atoms: C_21  and  C_24
REMARK                            x       y       z     vdW  Elec       q    Type
REMARK                         _______ _______ _______ _____ _____    ______ ____
ROOT
ATOM      1  O   UNL     1      -2.583   1.014   0.926  0.00  0.00    -0.366 OA
ATOM      8  C   UNL     1      -2.501   1.763  -0.308  0.00  0.00    +0.159 C 
ATOM      9  C   UNL     1      -3.750   1.411  -1.108  0.00  0.00    +0.175 C 
ATOM     10  C   UNL     1      -4.052   0.009  -0.621  0.00  0.00    +0.176 C 
ATOM     11  C   UNL     1      -3.707   0.119   0.855  0.00  0.00    +0.167 C 
ENDROOT
BRANCH   9   2
ATOM      2  O   UNL     1      -4.792   2.306  -0.719  0.00  0.00    -0.387 OA
ATOM     30  H   UNL     1      -4.539   3.195  -1.021  0.00  0.00    +0.210 HD
ENDBRANCH   9   2
BRANCH  10   3
ATOM      3  O   UNL     1      -5.394  -0.377  -0.824  0.00  0.00    -0.387 OA
ATOM     31  H   UNL     1      -5.579  -0.302  -1.776  0.00  0.00    +0.210 HD
ENDBRANCH  10   3
BRANCH   8  12
ATOM     12  C   UNL     1      -1.210   1.364  -1.010  0.00  0.00    +0.130 C 
BRANCH  12  14
ATOM      4  O   UNL     1      -0.222   2.124   1.006  0.00  0.00    -0.275 OA
ATOM      6  N   UNL     1       1.202   1.269  -0.634  0.00  0.00    -0.271 N 
ATOM     14  C   UNL     1      -0.030   1.627  -0.104  0.00  0.00    +0.222 C 
ATOM     15  C   UNL     1       1.429   0.672  -1.967  0.00  0.00    +0.118 C 
ATOM     16  C   UNL     1       2.935   0.437  -2.123  0.00  0.00    +0.056 C 
ATOM     17  C   UNL     1       2.450   1.412   0.007  0.00  0.00    +0.039 A 
ATOM     18  C   UNL     1       3.470   0.943  -0.824  0.00  0.00    -0.024 A 
ATOM     19  C   UNL     1       2.742   1.923   1.263  0.00  0.00    +0.024 A 
ATOM     20  C   UNL     1       4.797   0.973  -0.424  0.00  0.00    +0.005 A 
ATOM     22  C   UNL     1       4.078   1.958   1.675  0.00  0.00    +0.002 A 
ATOM     23  C   UNL     1       5.099   1.486   0.838  0.00  0.00    +0.000 A 
ENDBRANCH  12  14
ENDBRANCH   8  12
BRANCH  11  13
ATOM     13  C   UNL     1      -3.342  -1.212   1.489  0.00  0.00    +0.138 C 
BRANCH  13   7
ATOM      5  O   UNL     1      -0.585  -0.828   2.191  0.00  0.00    -0.270 OA
ATOM      7  N   UNL     1      -2.205  -1.798   0.843  0.00  0.00    -0.309 N 
ATOM     21  C   UNL     1      -0.896  -1.556   1.252  0.00  0.00    +0.244 C 
ATOM     32  H   UNL     1      -2.393  -2.454   0.092  0.00  0.00    +0.149 HD
BRANCH  21  24
ATOM     24  C   UNL     1       0.173  -2.218   0.462  0.00  0.00    +0.037 A 
ATOM     25  C   UNL     1       1.398  -2.518   1.060  0.00  0.00    +0.013 A 
ATOM     26  C   UNL     1      -0.047  -2.541  -0.877  0.00  0.00    +0.013 A 
ATOM     27  C   UNL     1       2.402  -3.139   0.318  0.00  0.00    +0.001 A 
ATOM     28  C   UNL     1       0.958  -3.162  -1.619  0.00  0.00    +0.001 A 
ATOM     29  C   UNL     1       2.182  -3.462  -1.022  0.00  0.00    +0.000 A 
ENDBRANCH  21  24
ENDBRANCH  13   7
ENDBRANCH  11  13
TORSDOF 7
