REMARK  Name = 51137668
REMARK  5 active torsions:
REMARK  status: ('A' for Active; 'I' for Inactive)
REMARK    1  A    between atoms: N_6  and  C_13
REMARK    2  A    between atoms: C_9  and  C_14
REMARK    3  A    between atoms: C_13  and  C_15
REMARK    4  A    between atoms: C_18  and  C_22
REMARK    5  A    between atoms: C_21  and  C_23
REMARK                            x       y       z     vdW  Elec       q    Type
REMARK                         _______ _______ _______ _____ _____    ______ ____
ROOT
ATOM      6  N   UNL     1      -1.054  -0.772  -0.301  0.00  0.00    -0.297 NA
ATOM      9  C   UNL     1       0.957  -1.830   0.281  0.00  0.00    +0.092 C 
ATOM     10  C   UNL     1       0.329  -1.193   1.533  0.00  0.00    +0.029 C 
ATOM     11  C   UNL     1       0.221  -1.177  -0.897  0.00  0.00    +0.097 C 
ATOM     12  C   UNL     1      -0.699  -0.203   0.999  0.00  0.00    +0.085 C 
ENDROOT
BRANCH   9  14
ATOM      5  O   UNL     1       2.962  -0.430   0.158  0.00  0.00    -0.420 OA
ATOM      7  N   UNL     1       3.380  -2.627   0.122  0.00  0.00    -0.112 NA
ATOM      8  N   UNL     1       4.589  -1.962   0.048  0.00  0.00    -0.107 NA
ATOM     14  C   UNL     1       2.459  -1.694   0.185  0.00  0.00    +0.222 A 
ATOM     18  C   UNL     1       4.297  -0.682   0.071  0.00  0.00    +0.251 A 
BRANCH  18  22
ATOM      4  F   UNL     1       7.085  -0.909  -0.107  0.00  0.00    -0.205 F 
ATOM     22  C   UNL     1       5.151   0.469   0.022  0.00  0.00    +0.074 A 
ATOM     24  C   UNL     1       6.534   0.313  -0.066  0.00  0.00    +0.136 A 
ATOM     25  C   UNL     1       4.594   1.747   0.063  0.00  0.00    +0.016 A 
ATOM     26  C   UNL     1       7.361   1.436  -0.113  0.00  0.00    +0.039 A 
ATOM     27  C   UNL     1       5.421   2.870   0.016  0.00  0.00    +0.001 A 
ATOM     28  C   UNL     1       6.804   2.714  -0.072  0.00  0.00    +0.003 A 
ENDBRANCH  18  22
ENDBRANCH   9  14
BRANCH   6  13
ATOM     13  C   UNL     1      -1.784   0.170  -1.137  0.00  0.00    +0.119 C 
BRANCH  13  15
ATOM     15  C   UNL     1      -3.239   0.244  -0.760  0.00  0.00    -0.033 A 
ATOM     16  C   UNL     1      -4.111  -0.777  -1.139  0.00  0.00    +0.005 A 
ATOM     17  C   UNL     1      -3.716   1.333  -0.031  0.00  0.00    +0.005 A 
ATOM     19  C   UNL     1      -5.460  -0.708  -0.790  0.00  0.00    +0.012 A 
ATOM     20  C   UNL     1      -5.064   1.402   0.319  0.00  0.00    +0.012 A 
ATOM     21  C   UNL     1      -5.936   0.381  -0.061  0.00  0.00    +0.055 A 
BRANCH  21  23
ATOM      1  F   UNL     1      -7.591   0.502   1.662  0.00  0.00    -0.166 F 
ATOM      2  F   UNL     1      -8.091  -0.621  -0.132  0.00  0.00    -0.166 F 
ATOM      3  F   UNL     1      -8.019   1.552  -0.186  0.00  0.00    -0.166 F 
ATOM     23  C   UNL     1      -7.378   0.454   0.314  0.00  0.00    +0.417 C 
ENDBRANCH  21  23
ENDBRANCH  13  15
ENDBRANCH   6  13
TORSDOF 5
