REMARK  Name = 45361015
REMARK  8 active torsions:
REMARK  status: ('A' for Active; 'I' for Inactive)
REMARK    1  A    between atoms: N_5  and  C_18
REMARK    2  A    between atoms: N_6  and  C_16
REMARK    3  A    between atoms: N_8  and  C_25
REMARK    4  A    between atoms: C_13  and  C_17
REMARK    5  A    between atoms: C_16  and  C_20
REMARK    6  A    between atoms: C_17  and  C_19
REMARK    7  A    between atoms: C_19  and  C_21
REMARK    8  A    between atoms: C_25  and  C_26
REMARK                            x       y       z     vdW  Elec       q    Type
REMARK                         _______ _______ _______ _____ _____    ______ ____
ROOT
ATOM      3  O   UNL     1       2.908  -1.588  -1.168  0.00  0.00    -0.274 OA
ATOM      5  N   UNL     1       0.769   1.507  -0.252  0.00  0.00    -0.296 NA
ATOM      6  N   UNL     1       4.165   0.274   0.332  0.00  0.00    -0.285 NA
ATOM      7  N   UNL     1       0.891  -1.372  -0.109  0.00  0.00    -0.312 N 
ATOM      9  C   UNL     1       2.035   1.426   0.509  0.00  0.00    +0.084 C 
ATOM     10  C   UNL     1       2.739   0.042   0.632  0.00  0.00    +0.161 C 
ATOM     11  C   UNL     1       3.162   2.309  -0.057  0.00  0.00    +0.036 C 
ATOM     12  C   UNL     1       4.418   1.697   0.527  0.00  0.00    +0.087 C 
ATOM     13  C   UNL     1      -0.354   0.723   0.335  0.00  0.00    +0.074 C 
ATOM     14  C   UNL     1       2.216  -1.035  -0.315  0.00  0.00    +0.232 C 
ATOM     15  C   UNL     1       0.028  -0.685   0.832  0.00  0.00    +0.123 C 
ATOM     18  C   UNL     1       0.364   2.909  -0.447  0.00  0.00    +0.105 C 
ATOM     30  H   UNL     1       0.487  -2.100  -0.690  0.00  0.00    +0.149 HD
ENDROOT
BRANCH   6  16
ATOM     16  C   UNL     1       5.064  -0.557   1.123  0.00  0.00    +0.127 C 
BRANCH  16  20
ATOM      1  S   UNL     1       7.806  -0.876   1.457  0.00  0.00    -0.100 S 
ATOM     20  C   UNL     1       6.416  -0.694   0.474  0.00  0.00    +0.004 A 
ATOM     22  C   UNL     1       6.727  -0.696  -0.868  0.00  0.00    +0.012 A 
ATOM     23  C   UNL     1       8.126  -0.848  -1.092  0.00  0.00    +0.008 A 
ATOM     24  C   UNL     1       8.830  -0.958   0.087  0.00  0.00    +0.045 A 
ENDBRANCH  16  20
ENDBRANCH   6  16
BRANCH  13  17
ATOM     17  C   UNL     1      -1.493   0.559  -0.694  0.00  0.00    +0.029 C 
BRANCH  17  19
ATOM     19  C   UNL     1      -2.818   0.322   0.006  0.00  0.00    +0.097 C 
BRANCH  19  21
ATOM      4  O   UNL     1      -3.800   0.212  -2.204  0.00  0.00    -0.276 OA
ATOM      8  N   UNL     1      -5.166  -0.061  -0.347  0.00  0.00    -0.311 N 
ATOM     21  C   UNL     1      -3.954   0.156  -0.987  0.00  0.00    +0.213 C 
ATOM     31  H   UNL     1      -5.187  -0.094   0.669  0.00  0.00    +0.149 HD
BRANCH   8  25
ATOM     25  C   UNL     1      -6.399  -0.247  -1.073  0.00  0.00    +0.146 C 
BRANCH  25  26
ATOM      2  S   UNL     1      -7.950   0.798   0.985  0.00  0.00    -0.100 S 
ATOM     26  C   UNL     1      -7.573  -0.429  -0.148  0.00  0.00    +0.007 A 
ATOM     27  C   UNL     1      -8.443  -1.494  -0.066  0.00  0.00    +0.013 A 
ATOM     28  C   UNL     1      -9.433  -1.299   0.940  0.00  0.00    +0.008 A 
ATOM     29  C   UNL     1      -9.281  -0.094   1.589  0.00  0.00    +0.045 A 
ENDBRANCH  25  26
ENDBRANCH   8  25
ENDBRANCH  19  21
ENDBRANCH  17  19
ENDBRANCH  13  17
TORSDOF 7
