REMARK  Name = 11941556
REMARK  7 active torsions:
REMARK  status: ('A' for Active; 'I' for Inactive)
REMARK    1  A    between atoms: S_1  and  C_21
REMARK    2  A    between atoms: S_1  and  C_30
REMARK    3  A    between atoms: N_6  and  C_9
REMARK    4  A    between atoms: C_16  and  C_21
REMARK    5  A    between atoms: C_19  and  C_22
REMARK    6  A    between atoms: C_23  and  C_26
REMARK    7  A    between atoms: C_25  and  C_29
REMARK                            x       y       z     vdW  Elec       q    Type
REMARK                         _______ _______ _______ _____ _____    ______ ____
ROOT
ATOM      2  O   UNL     1      -3.326  -2.812   1.460  0.00  0.00    -0.273 OA
ATOM      3  O   UNL     1      -0.167  -1.528  -2.555  0.00  0.00    -0.270 OA
ATOM      5  N   UNL     1      -1.966  -1.312  -1.139  0.00  0.00    -0.284 N 
ATOM      7  N   UNL     1      -1.078  -2.452   1.424  0.00  0.00    -0.283 N 
ATOM      8  C   UNL     1      -2.548  -0.951   0.140  0.00  0.00    +0.183 C 
ATOM      9  C   UNL     1      -4.013  -0.624  -0.176  0.00  0.00    +0.104 C 
ATOM     10  C   UNL     1      -4.301  -1.453  -1.430  0.00  0.00    +0.043 C 
ATOM     11  C   UNL     1      -2.978  -1.428  -2.179  0.00  0.00    +0.111 C 
ATOM     12  C   UNL     1      -2.368  -2.168   1.029  0.00  0.00    +0.240 C 
ATOM     13  C   UNL     1      -0.618  -1.378  -1.420  0.00  0.00    +0.249 C 
ATOM     14  C   UNL     1       0.339  -1.287  -0.286  0.00  0.00    +0.059 A 
ATOM     15  C   UNL     1       0.128  -1.869   0.976  0.00  0.00    +0.046 A 
ATOM     17  C   UNL     1       1.591  -0.721  -0.586  0.00  0.00    +0.023 A 
ATOM     18  C   UNL     1       1.200  -1.927   1.883  0.00  0.00    +0.024 A 
ATOM     19  C   UNL     1       2.629  -0.747   0.345  0.00  0.00    -0.017 A 
ATOM     20  C   UNL     1       2.437  -1.361   1.576  0.00  0.00    +0.010 A 
ATOM     32  H   UNL     1      -0.993  -3.108   2.197  0.00  0.00    +0.155 HD
ENDROOT
BRANCH  19  22
ATOM     22  C   UNL     1       3.909  -0.155   0.021  0.00  0.00    -0.015 A 
ATOM     23  C   UNL     1       4.188   1.180   0.321  0.00  0.00    -0.040 A 
ATOM     24  C   UNL     1       4.878  -0.943  -0.603  0.00  0.00    +0.009 A 
ATOM     25  C   UNL     1       5.430   1.725  -0.003  0.00  0.00    -0.047 A 
ATOM     26  C   UNL     1       3.159   2.038   0.991  0.00  0.00    +0.044 C 
ATOM     27  C   UNL     1       6.120  -0.399  -0.927  0.00  0.00    +0.001 A 
ATOM     28  C   UNL     1       6.397   0.935  -0.627  0.00  0.00    +0.003 A 
ATOM     29  C   UNL     1       5.753   3.150   0.307  0.00  0.00    +0.044 C 
ENDBRANCH  19  22
BRANCH   9   6
ATOM      4  O   UNL     1      -4.771   1.425   1.723  0.00  0.00    -0.275 OA
ATOM      6  N   UNL     1      -4.184   0.788  -0.434  0.00  0.00    -0.309 N 
ATOM     16  C   UNL     1      -4.550   1.698   0.544  0.00  0.00    +0.223 C 
ATOM     31  H   UNL     1      -3.968   1.132  -1.365  0.00  0.00    +0.149 HD
BRANCH  16  21
ATOM     21  C   UNL     1      -4.679   3.108   0.018  0.00  0.00    +0.164 C 
BRANCH  21   1
ATOM      1  S   UNL     1      -3.072   3.930   0.142  0.00  0.00    -0.155 S 
ATOM     30  C   UNL     1      -3.539   5.538  -0.539  0.00  0.00    +0.085 C 
ENDBRANCH  21   1
ENDBRANCH  16  21
ENDBRANCH   9   6
TORSDOF 4
