REMARK  Name = 45783799
REMARK  8 active torsions:
REMARK  status: ('A' for Active; 'I' for Inactive)
REMARK    1  A    between atoms: N_2  and  C_12
REMARK    2  A    between atoms: N_6  and  C_25
REMARK    3  A    between atoms: N_6  and  C_27
REMARK    4  A    between atoms: N_6  and  C_28
REMARK    5  A    between atoms: C_8  and  C_13
REMARK    6  A    between atoms: C_12  and  C_14
REMARK    7  A    between atoms: C_17  and  C_20
REMARK    8  A    between atoms: C_18  and  C_26
REMARK                            x       y       z     vdW  Elec       q    Type
REMARK                         _______ _______ _______ _____ _____    ______ ____
ROOT
ATOM      2  N   UNL     1      -3.656  -0.202  -0.794  0.00  0.00    -0.287 NA
ATOM      8  C   UNL     1      -3.351  -1.402   0.011  0.00  0.00    +0.146 C 
ATOM      9  C   UNL     1      -3.826  -2.584  -0.853  0.00  0.00    +0.030 C 
ATOM     10  C   UNL     1      -4.438  -1.949  -2.094  0.00  0.00    +0.017 C 
ATOM     11  C   UNL     1      -4.799  -0.550  -1.638  0.00  0.00    +0.085 C 
ENDROOT
BRANCH   8  13
ATOM      1  O   UNL     1      -1.592  -2.170   1.524  0.00  0.00    -0.336 OA
ATOM      3  N   UNL     1      -0.839  -1.024  -0.247  0.00  0.00    -0.190 NA
ATOM      4  N   UNL     1      -0.198  -2.126   1.652  0.00  0.00    -0.056 NA
ATOM     13  C   UNL     1      -1.886  -1.499   0.380  0.00  0.00    +0.245 A 
ATOM     17  C   UNL     1       0.173  -1.434   0.571  0.00  0.00    +0.204 A 
BRANCH  17  20
ATOM      5  N   UNL     1       3.875  -1.313   0.902  0.00  0.00    -0.240 NA
ATOM     20  C   UNL     1       1.546  -1.137   0.279  0.00  0.00    +0.041 A 
ATOM     22  C   UNL     1       1.896  -0.415  -0.857  0.00  0.00    +0.016 A 
ATOM     23  C   UNL     1       2.563  -1.559   1.119  0.00  0.00    +0.124 A 
ATOM     24  C   UNL     1       3.235  -0.142  -1.114  0.00  0.00    +0.044 A 
ATOM     25  C   UNL     1       4.178  -0.609  -0.212  0.00  0.00    +0.121 A 
BRANCH  25   6
ATOM      6  N   UNL     1       5.537  -0.323  -0.488  0.00  0.00    -0.321 N 
ATOM     27  C   UNL     1       6.574  -0.773   0.415  0.00  0.00    +0.130 C 
ATOM     28  C   UNL     1       5.897   0.426  -1.671  0.00  0.00    +0.130 C 
ENDBRANCH  25   6
ENDBRANCH  17  20
ENDBRANCH   8  13
BRANCH   2  12
ATOM     12  C   UNL     1      -3.912   0.983   0.015  0.00  0.00    +0.120 C 
BRANCH  12  14
ATOM     14  C   UNL     1      -2.636   1.618   0.498  0.00  0.00    -0.032 A 
ATOM     15  C   UNL     1      -1.682   2.056  -0.420  0.00  0.00    +0.023 A 
ATOM     16  C   UNL     1      -2.408   1.770   1.866  0.00  0.00    +0.005 A 
ATOM     18  C   UNL     1      -0.500   2.646   0.029  0.00  0.00    +0.052 A 
ATOM     19  C   UNL     1      -1.227   2.360   2.316  0.00  0.00    +0.002 A 
ATOM     21  C   UNL     1      -0.273   2.798   1.397  0.00  0.00    +0.019 A 
BRANCH  18  26
ATOM      7  N   UNL     1       1.272   3.461  -1.674  0.00  0.00    -0.191 NA
ATOM     26  C   UNL     1       0.477   3.096  -0.911  0.00  0.00    +0.099 C 
ENDBRANCH  18  26
ENDBRANCH  12  14
ENDBRANCH   2  12
TORSDOF 6
