REMARK  Name = 38028161
REMARK  9 active torsions:
REMARK  status: ('A' for Active; 'I' for Inactive)
REMARK    1  A    between atoms: N_4  and  C_15
REMARK    2  A    between atoms: C_8  and  C_12
REMARK    3  A    between atoms: C_9  and  C_15
REMARK    4  A    between atoms: C_11  and  C_16
REMARK    5  A    between atoms: C_12  and  C_17
REMARK    6  A    between atoms: C_12  and  C_18
REMARK    7  A    between atoms: C_13  and  C_19
REMARK    8  A    between atoms: C_16  and  C_20
REMARK    9  A    between atoms: C_23  and  C_26
REMARK                            x       y       z     vdW  Elec       q    Type
REMARK                         _______ _______ _______ _____ _____    ______ ____
ROOT
ATOM      8  C   UNL     1      -0.718  -2.266  -0.669  0.00  0.00    +0.000 C 
ATOM      9  C   UNL     1      -1.799  -2.656   0.370  0.00  0.00    +0.032 C 
ATOM     10  C   UNL     1       0.667  -2.740  -0.205  0.00  0.00    +0.012 C 
ATOM     11  C   UNL     1       1.062  -2.141   1.158  0.00  0.00    +0.023 C 
ATOM     13  C   UNL     1      -0.064  -2.248   2.167  0.00  0.00    -0.073 C 
ATOM     14  C   UNL     1      -1.333  -2.492   1.798  0.00  0.00    -0.022 C 
ATOM     19  C   UNL     1       0.312  -2.114   3.617  0.00  0.00    +0.039 C 
ENDROOT
BRANCH   8  12
ATOM     12  C   UNL     1      -1.026  -2.843  -2.054  0.00  0.00    -0.013 C 
ATOM     17  C   UNL     1      -0.354  -2.008  -3.140  0.00  0.00    +0.007 C 
ATOM     18  C   UNL     1      -0.578  -4.299  -2.136  0.00  0.00    +0.007 C 
ENDBRANCH   8  12
BRANCH   9  15
ATOM     15  C   UNL     1      -3.086  -1.851   0.157  0.00  0.00    +0.112 C 
BRANCH  15   4
ATOM      3  O   UNL     1      -3.432   0.316  -1.694  0.00  0.00    -0.270 OA
ATOM      4  N   UNL     1      -2.866  -0.463   0.417  0.00  0.00    -0.311 N 
ATOM     23  C   UNL     1      -3.059   0.529  -0.544  0.00  0.00    +0.247 C 
ATOM     30  H   UNL     1      -2.632  -0.198   1.369  0.00  0.00    +0.149 HD
BRANCH  23  26
ATOM      6  N   UNL     1      -3.132   4.290  -0.344  0.00  0.00    -0.243 NA
ATOM      7  N   UNL     1      -1.552   3.463   1.276  0.00  0.00    -0.243 NA
ATOM     26  C   UNL     1      -2.760   1.922  -0.123  0.00  0.00    +0.073 A 
ATOM     27  C   UNL     1      -3.379   3.012  -0.701  0.00  0.00    +0.127 A 
ATOM     28  C   UNL     1      -1.847   2.211   0.870  0.00  0.00    +0.127 A 
ATOM     29  C   UNL     1      -2.221   4.441   0.636  0.00  0.00    +0.221 A 
ENDBRANCH  23  26
ENDBRANCH  15   4
ENDBRANCH   9  15
BRANCH  11  16
ATOM     16  C   UNL     1       1.528  -0.689   1.009  0.00  0.00    +0.103 C 
BRANCH  16  20
ATOM      1  O   UNL     1       3.476  -1.712   0.127  0.00  0.00    -0.276 OA
ATOM      2  O   UNL     1       4.325   3.046  -0.922  0.00  0.00    -0.377 OA
ATOM      5  N   UNL     1       3.466   0.608   0.201  0.00  0.00    -0.297 N 
ATOM     20  C   UNL     1       2.910  -0.653   0.408  0.00  0.00    +0.216 C 
ATOM     21  C   UNL     1       4.801   0.733  -0.382  0.00  0.00    +0.136 C 
ATOM     22  C   UNL     1       2.877   1.879   0.637  0.00  0.00    +0.136 C 
ATOM     24  C   UNL     1       4.812   1.812  -1.456  0.00  0.00    +0.179 C 
ATOM     25  C   UNL     1       2.972   2.914  -0.477  0.00  0.00    +0.179 C 
ENDBRANCH  16  20
ENDBRANCH  11  16
TORSDOF 6
