REMARK  Name = 11867446
REMARK  11 active torsions:
REMARK  status: ('A' for Active; 'I' for Inactive)
REMARK    1  A    between atoms: O_3  and  C_12
REMARK    2  A    between atoms: O_3  and  C_17
REMARK    3  A    between atoms: O_5  and  C_30
REMARK    4  A    between atoms: O_5  and  C_31
REMARK    5  A    between atoms: N_6  and  C_11
REMARK    6  A    between atoms: N_6  and  C_15
REMARK    7  A    between atoms: N_7  and  C_23
REMARK    8  A    between atoms: N_8  and  C_22
REMARK    9  A    between atoms: N_8  and  C_26
REMARK   10  A    between atoms: N_8  and  C_27
REMARK   11  A    between atoms: C_15  and  C_16
REMARK                            x       y       z     vdW  Elec       q    Type
REMARK                         _______ _______ _______ _____ _____    ______ ____
ROOT
ATOM      1  O   UNL     1       0.083  -1.853  -1.281  0.00  0.00    -0.369 OA
ATOM      2  O   UNL     1      -0.521  -3.683   1.090  0.00  0.00    -0.369 OA
ATOM      9  C   UNL     1      -1.063  -2.397   0.719  0.00  0.00    +0.170 C 
ATOM     10  C   UNL     1       0.081  -1.593   0.134  0.00  0.00    +0.191 C 
ATOM     11  C   UNL     1      -2.030  -2.556  -0.434  0.00  0.00    +0.111 C 
ATOM     12  C   UNL     1       1.286  -2.198   0.814  0.00  0.00    +0.235 C 
ATOM     13  C   UNL     1      -1.085  -2.613  -1.625  0.00  0.00    +0.181 C 
ATOM     14  C   UNL     1       0.902  -3.658   0.903  0.00  0.00    +0.207 C 
ENDROOT
BRANCH  11   6
ATOM      6  N   UNL     1      -2.916  -1.399  -0.555  0.00  0.00    -0.305 NA
ATOM     32  H   UNL     1      -3.219  -1.306  -1.525  0.00  0.00    +0.123 HD
BRANCH   6  15
ATOM     15  C   UNL     1      -4.095  -1.562   0.281  0.00  0.00    +0.116 C 
BRANCH  15  16
ATOM     16  C   UNL     1      -5.023  -0.380   0.177  0.00  0.00    -0.033 A 
ATOM     18  C   UNL     1      -4.876   0.701   1.046  0.00  0.00    +0.007 A 
ATOM     19  C   UNL     1      -6.030  -0.367  -0.789  0.00  0.00    +0.007 A 
ATOM     20  C   UNL     1      -5.735   1.795   0.950  0.00  0.00    +0.023 A 
ATOM     21  C   UNL     1      -6.889   0.728  -0.885  0.00  0.00    +0.023 A 
ATOM     22  C   UNL     1      -6.742   1.808  -0.016  0.00  0.00    +0.029 A 
BRANCH  22   8
ATOM      8  N   UNL     1      -7.611   2.915  -0.113  0.00  0.00    -0.336 N 
ATOM     26  C   UNL     1      -7.475   4.037   0.794  0.00  0.00    +0.129 C 
ATOM     27  C   UNL     1      -8.659   2.939  -1.113  0.00  0.00    +0.129 C 
ENDBRANCH  22   8
ENDBRANCH  15  16
ENDBRANCH   6  15
ENDBRANCH  11   6
BRANCH  12   3
ATOM      3  O   UNL     1       2.488  -2.008   0.102  0.00  0.00    -0.442 OA
BRANCH   3  17
ATOM      4  O   UNL     1       2.902  -0.106   1.302  0.00  0.00    -0.226 OA
ATOM      7  N   UNL     1       4.378  -0.863  -0.350  0.00  0.00    -0.251 N 
ATOM     17  C   UNL     1       3.240  -0.901   0.434  0.00  0.00    +0.405 C 
ATOM     33  H   UNL     1       4.486  -1.619  -1.022  0.00  0.00    +0.158 HD
BRANCH   7  23
ATOM     23  C   UNL     1       5.413   0.099  -0.335  0.00  0.00    +0.037 A 
ATOM     24  C   UNL     1       6.495  -0.027  -1.207  0.00  0.00    +0.027 A 
ATOM     25  C   UNL     1       5.354   1.174   0.551  0.00  0.00    +0.027 A 
ATOM     28  C   UNL     1       7.516   0.922  -1.193  0.00  0.00    +0.047 A 
ATOM     29  C   UNL     1       6.375   2.124   0.565  0.00  0.00    +0.047 A 
ATOM     30  C   UNL     1       7.457   1.998  -0.307  0.00  0.00    +0.120 A 
BRANCH  30   5
ATOM      5  O   UNL     1       8.452   2.926  -0.295  0.00  0.00    -0.495 OA
ATOM     31  C   UNL     1       8.328   3.999   0.636  0.00  0.00    +0.277 C 
ENDBRANCH  30   5
ENDBRANCH   7  23
ENDBRANCH   3  17
ENDBRANCH  12   3
TORSDOF 8
