REMARK  Name = 11867148
REMARK  5 active torsions:
REMARK  status: ('A' for Active; 'I' for Inactive)
REMARK    1  A    between atoms: S_1  and  N_8
REMARK    2  A    between atoms: S_1  and  C_24
REMARK    3  A    between atoms: N_8  and  C_19
REMARK    4  A    between atoms: C_18  and  C_21
REMARK    5  A    between atoms: C_24  and  C_28
REMARK                            x       y       z     vdW  Elec       q    Type
REMARK                         _______ _______ _______ _____ _____    ______ ____
ROOT
ATOM      2  O   UNL     1       0.581   2.893  -1.585  0.00  0.00    -0.266 OA
ATOM      3  O   UNL     1       3.267  -1.460  -2.412  0.00  0.00    -0.270 OA
ATOM      6  N   UNL     1       3.996  -0.550  -0.383  0.00  0.00    -0.297 N 
ATOM      7  N   UNL     1       2.093   1.966  -0.055  0.00  0.00    -0.310 N 
ATOM      9  C   UNL     1       4.616   1.858  -0.476  0.00  0.00    +0.027 C 
ATOM     10  C   UNL     1       3.681   0.915   1.597  0.00  0.00    +0.054 C 
ATOM     11  C   UNL     1       4.728   1.881   1.044  0.00  0.00    +0.018 C 
ATOM     12  C   UNL     1       4.870   0.438  -1.013  0.00  0.00    +0.113 C 
ATOM     13  C   UNL     1       3.234   2.389  -0.878  0.00  0.00    +0.130 C 
ATOM     14  C   UNL     1       3.974  -0.510   1.089  0.00  0.00    +0.117 C 
ATOM     15  C   UNL     1       2.282   1.329   1.180  0.00  0.00    +0.027 A 
ATOM     16  C   UNL     1       1.230   1.052   1.972  0.00  0.00    +0.024 A 
ATOM     17  C   UNL     1       0.810   2.321  -0.520  0.00  0.00    +0.274 A 
ATOM     18  C   UNL     1       3.253  -1.421  -1.183  0.00  0.00    +0.247 C 
ATOM     19  C   UNL     1      -0.311   1.967   0.386  0.00  0.00    +0.112 A 
ATOM     20  C   UNL     1      -0.110   1.379   1.566  0.00  0.00    +0.031 A 
ENDROOT
BRANCH  18  21
ATOM     21  C   UNL     1       2.354  -2.369  -0.515  0.00  0.00    +0.037 A 
ATOM     22  C   UNL     1       1.036  -2.006  -0.252  0.00  0.00    +0.013 A 
ATOM     23  C   UNL     1       2.824  -3.628  -0.149  0.00  0.00    +0.013 A 
ATOM     25  C   UNL     1       0.181  -2.907   0.382  0.00  0.00    +0.001 A 
ATOM     26  C   UNL     1       1.968  -4.529   0.486  0.00  0.00    +0.001 A 
ATOM     27  C   UNL     1       0.647  -4.169   0.751  0.00  0.00    +0.000 A 
ENDBRANCH  18  21
BRANCH  19   8
ATOM      8  N   UNL     1      -1.637   2.260   0.020  0.00  0.00    -0.215 N 
ATOM     34  H   UNL     1      -1.685   2.924  -0.765  0.00  0.00    +0.173 HD
BRANCH   8   1
ATOM      1  S   UNL     1      -2.661   0.908  -0.164  0.00  0.00    +0.047 S 
ATOM      4  O   UNL     1      -2.667   0.485  -1.552  0.00  0.00    -0.155 OA
ATOM      5  O   UNL     1      -2.407  -0.036   0.907  0.00  0.00    -0.155 OA
BRANCH   1  24
ATOM     24  C   UNL     1      -4.229   1.677   0.159  0.00  0.00    +0.223 C 
BRANCH  24  28
ATOM     28  C   UNL     1      -5.286   0.623   0.042  0.00  0.00    -0.025 A 
ATOM     29  C   UNL     1      -5.654  -0.115   1.163  0.00  0.00    +0.005 A 
ATOM     30  C   UNL     1      -5.894   0.387  -1.188  0.00  0.00    +0.005 A 
ATOM     31  C   UNL     1      -6.639  -1.097   1.054  0.00  0.00    +0.000 A 
ATOM     32  C   UNL     1      -6.879  -0.595  -1.297  0.00  0.00    +0.000 A 
ATOM     33  C   UNL     1      -7.251  -1.336  -0.176  0.00  0.00    +0.000 A 
ENDBRANCH  24  28
ENDBRANCH   1  24
ENDBRANCH   8   1
ENDBRANCH  19   8
TORSDOF 5
