REMARK  Name = 75536529
REMARK  12 active torsions:
REMARK  status: ('A' for Active; 'I' for Inactive)
REMARK    1  A    between atoms: O_2  and  C_9
REMARK    2  A    between atoms: N_4  and  C_8
REMARK    3  A    between atoms: N_4  and  C_14
REMARK    4  A    between atoms: N_5  and  C_12
REMARK    5  A    between atoms: N_6  and  C_22
REMARK    6  A    between atoms: C_10  and  C_12
REMARK    7  A    between atoms: C_13  and  C_15
REMARK    8  A    between atoms: C_13  and  C_17
REMARK    9  A    between atoms: C_13  and  C_18
REMARK   10  A    between atoms: C_13  and  C_19
REMARK   11  A    between atoms: C_14  and  C_20
REMARK   12  A    between atoms: C_15  and  C_16
REMARK                            x       y       z     vdW  Elec       q    Type
REMARK                         _______ _______ _______ _____ _____    ______ ____
ROOT
ATOM      1  O   UNL     1       1.005   0.132   0.072  0.00  0.00    -0.371 OA
ATOM      8  C   UNL     1      -1.181  -0.691   0.504  0.00  0.00    +0.111 C 
ATOM      9  C   UNL     1      -0.382  -1.761  -0.217  0.00  0.00    +0.164 C 
ATOM     10  C   UNL     1       1.043  -1.304   0.066  0.00  0.00    +0.165 C 
ATOM     11  C   UNL     1      -0.365   0.553   0.193  0.00  0.00    +0.181 C 
ENDROOT
BRANCH   9   2
ATOM      2  O   UNL     1      -0.630  -3.059   0.287  0.00  0.00    -0.388 OA
ATOM     26  H   UNL     1      -0.441  -3.058   1.240  0.00  0.00    +0.210 HD
ENDBRANCH   9   2
BRANCH   8   4
ATOM      4  N   UNL     1      -2.560  -0.590   0.055  0.00  0.00    -0.302 NA
ATOM     24  H   UNL     1      -2.958  -1.526  -0.015  0.00  0.00    +0.123 HD
BRANCH   4  14
ATOM     14  C   UNL     1      -3.359   0.196   0.987  0.00  0.00    +0.156 C 
BRANCH  14  20
ATOM      6  N   UNL     1      -5.157   1.175  -0.475  0.00  0.00    -0.336 N 
ATOM      7  N   UNL     1      -5.817  -0.333   1.015  0.00  0.00    -0.239 NA
ATOM     20  C   UNL     1      -4.788   0.325   0.530  0.00  0.00    +0.123 A 
ATOM     21  C   UNL     1      -6.508   1.052  -0.641  0.00  0.00    +0.106 A 
ATOM     22  C   UNL     1      -4.293   2.050  -1.232  0.00  0.00    +0.150 C 
ATOM     23  C   UNL     1      -6.893   0.116   0.290  0.00  0.00    +0.130 A 
ENDBRANCH  14  20
ENDBRANCH   4  14
ENDBRANCH   8   4
BRANCH  10  12
ATOM     12  C   UNL     1       2.044  -1.787  -0.968  0.00  0.00    +0.138 C 
BRANCH  12   5
ATOM      3  O   UNL     1       3.300   0.672  -1.844  0.00  0.00    -0.276 OA
ATOM      5  N   UNL     1       3.381  -1.329  -0.664  0.00  0.00    -0.313 N 
ATOM     16  C   UNL     1       3.897  -0.132  -1.131  0.00  0.00    +0.214 C 
ATOM     25  H   UNL     1       3.955  -1.920  -0.071  0.00  0.00    +0.149 HD
BRANCH  16  15
ATOM     15  C   UNL     1       5.327   0.116  -0.678  0.00  0.00    +0.102 C 
BRANCH  15  13
ATOM     13  C   UNL     1       5.458   0.925   0.634  0.00  0.00    -0.029 C 
ATOM     17  C   UNL     1       6.934   1.139   1.007  0.00  0.00    +0.011 C 
ATOM     18  C   UNL     1       4.807   2.304   0.411  0.00  0.00    +0.011 C 
ATOM     19  C   UNL     1       4.735   0.230   1.800  0.00  0.00    +0.011 C 
ENDBRANCH  15  13
ENDBRANCH  16  15
ENDBRANCH  12   5
ENDBRANCH  10  12
TORSDOF 8
