REMARK  Name = 38029756
REMARK  13 active torsions:
REMARK  status: ('A' for Active; 'I' for Inactive)
REMARK    1  A    between atoms: S_1  and  N_7
REMARK    2  A    between atoms: S_1  and  C_21
REMARK    3  A    between atoms: O_3  and  C_20
REMARK    4  A    between atoms: O_3  and  C_22
REMARK    5  A    between atoms: N_7  and  C_15
REMARK    6  A    between atoms: C_8  and  C_12
REMARK    7  A    between atoms: C_9  and  C_15
REMARK    8  A    between atoms: C_11  and  C_16
REMARK    9  A    between atoms: C_12  and  C_17
REMARK   10  A    between atoms: C_12  and  C_18
REMARK   11  A    between atoms: C_13  and  C_19
REMARK   12  A    between atoms: C_16  and  C_20
REMARK   13  A    between atoms: C_22  and  C_25
REMARK                            x       y       z     vdW  Elec       q    Type
REMARK                         _______ _______ _______ _____ _____    ______ ____
ROOT
ATOM      8  C   UNL     1       1.347  -0.393  -1.221  0.00  0.00    +0.000 C 
ATOM      9  C   UNL     1       0.236  -1.459  -1.048  0.00  0.00    +0.030 C 
ATOM     10  C   UNL     1       2.735  -1.044  -1.117  0.00  0.00    +0.012 C 
ATOM     11  C   UNL     1       2.946  -1.754   0.233  0.00  0.00    +0.025 C 
ATOM     13  C   UNL     1       1.762  -2.624   0.602  0.00  0.00    -0.073 C 
ATOM     14  C   UNL     1       0.562  -2.487   0.010  0.00  0.00    -0.023 C 
ATOM     19  C   UNL     1       2.000  -3.688   1.638  0.00  0.00    +0.039 C 
ENDROOT
BRANCH   8  12
ATOM     12  C   UNL     1       1.221   0.350  -2.554  0.00  0.00    -0.013 C 
ATOM     17  C   UNL     1       1.880   1.722  -2.464  0.00  0.00    +0.007 C 
ATOM     18  C   UNL     1       1.836  -0.473  -3.682  0.00  0.00    +0.007 C 
ENDBRANCH   8  12
BRANCH   9  15
ATOM     15  C   UNL     1      -1.112  -0.805  -0.726  0.00  0.00    +0.113 C 
BRANCH  15   7
ATOM      7  N   UNL     1      -1.028  -0.152   0.590  0.00  0.00    -0.189 NA
ATOM     29  H   UNL     1      -0.790  -0.760   1.383  0.00  0.00    +0.148 HD
BRANCH   7   1
ATOM      1  S   UNL     1      -1.966   1.231   0.922  0.00  0.00    +0.059 S 
ATOM      5  O   UNL     1      -1.720   2.232  -0.100  0.00  0.00    -0.153 OA
ATOM      6  O   UNL     1      -1.829   1.572   2.325  0.00  0.00    -0.153 OA
BRANCH   1  21
ATOM      2  F   UNL     1      -6.088   0.258  -1.940  0.00  0.00    -0.205 F 
ATOM     21  C   UNL     1      -3.607   0.616   0.697  0.00  0.00    +0.108 A 
ATOM     23  C   UNL     1      -4.212   0.681  -0.558  0.00  0.00    +0.066 A 
ATOM     24  C   UNL     1      -4.298   0.064   1.776  0.00  0.00    +0.029 A 
ATOM     26  C   UNL     1      -5.508   0.195  -0.735  0.00  0.00    +0.125 A 
ATOM     27  C   UNL     1      -5.594  -0.423   1.600  0.00  0.00    +0.005 A 
ATOM     28  C   UNL     1      -6.198  -0.357   0.344  0.00  0.00    +0.038 A 
ENDBRANCH   1  21
ENDBRANCH   7   1
ENDBRANCH  15   7
ENDBRANCH   9  15
BRANCH  11  16
ATOM     16  C   UNL     1       3.255  -0.747   1.346  0.00  0.00    +0.128 C 
BRANCH  16  20
ATOM      4  O   UNL     1       5.562  -0.257   0.752  0.00  0.00    -0.251 OA
ATOM     20  C   UNL     1       4.426   0.130   0.990  0.00  0.00    +0.308 C 
BRANCH  20   3
ATOM      3  O   UNL     1       4.004   1.430   0.979  0.00  0.00    -0.465 OA
BRANCH   3  22
ATOM     22  C   UNL     1       5.005   2.400   0.656  0.00  0.00    +0.229 C 
ATOM     25  C   UNL     1       4.382   3.780   0.685  0.00  0.00    +0.048 C 
ENDBRANCH   3  22
ENDBRANCH  20   3
ENDBRANCH  16  20
ENDBRANCH  11  16
TORSDOF 9
