REMARK  Name = 45784031
REMARK  3 active torsions:
REMARK  status: ('A' for Active; 'I' for Inactive)
REMARK    1  A    between atoms: S_1  and  N_4
REMARK    2  A    between atoms: S_1  and  C_13
REMARK    3  A    between atoms: C_8  and  C_12
REMARK                            x       y       z     vdW  Elec       q    Type
REMARK                         _______ _______ _______ _____ _____    ______ ____
ROOT
ATOM      4  N   UNL     1      -2.583   1.613   0.224  0.00  0.00    -0.176 NA
ATOM      8  C   UNL     1      -0.470   2.688   0.702  0.00  0.00    +0.072 C 
ATOM      9  C   UNL     1      -1.613   1.872   1.329  0.00  0.00    +0.120 C 
ATOM     10  C   UNL     1      -1.134   3.325  -0.521  0.00  0.00    +0.029 C 
ATOM     11  C   UNL     1      -2.084   2.246  -1.020  0.00  0.00    +0.110 C 
ENDROOT
BRANCH   8  12
ATOM      5  N   UNL     1       1.846   1.834   1.189  0.00  0.00    -0.342 N 
ATOM      6  N   UNL     1       1.021   1.299  -0.804  0.00  0.00    -0.232 NA
ATOM     12  C   UNL     1       0.790   1.928   0.326  0.00  0.00    +0.113 A 
ATOM     14  C   UNL     1       2.824   1.095   0.575  0.00  0.00    +0.066 A 
ATOM     15  C   UNL     1       2.285   0.773  -0.668  0.00  0.00    +0.089 A 
ATOM     19  C   UNL     1       4.096   0.694   0.986  0.00  0.00    +0.028 A 
ATOM     20  C   UNL     1       3.046   0.005  -1.566  0.00  0.00    +0.030 A 
ATOM     23  C   UNL     1       4.838  -0.070   0.080  0.00  0.00    +0.002 A 
ATOM     24  C   UNL     1       4.325  -0.410  -1.174  0.00  0.00    +0.002 A 
ATOM     28  H   UNL     1       1.899   2.235   2.116  0.00  0.00    +0.167 HD
ENDBRANCH   8  12
BRANCH   4   1
ATOM      1  S   UNL     1      -3.320   0.091   0.120  0.00  0.00    +0.063 S 
ATOM      2  O   UNL     1      -4.388   0.147  -0.864  0.00  0.00    -0.153 OA
ATOM      3  O   UNL     1      -3.588  -0.397   1.462  0.00  0.00    -0.153 OA
BRANCH   1  13
ATOM      7  N   UNL     1      -1.217  -1.402   1.616  0.00  0.00    -0.253 NA
ATOM     13  C   UNL     1      -2.008  -0.860  -0.555  0.00  0.00    +0.131 A 
ATOM     16  C   UNL     1      -1.098  -1.504   0.279  0.00  0.00    +0.097 A 
ATOM     17  C   UNL     1      -1.914  -0.945  -1.946  0.00  0.00    +0.031 A 
ATOM     18  C   UNL     1      -0.064  -2.254  -0.321  0.00  0.00    +0.002 A 
ATOM     21  C   UNL     1      -0.893  -1.685  -2.530  0.00  0.00    +0.003 A 
ATOM     22  C   UNL     1       0.031  -2.339  -1.720  0.00  0.00    +0.010 A 
ATOM     25  C   UNL     1       0.853  -2.902   0.518  0.00  0.00    +0.011 A 
ATOM     26  C   UNL     1      -0.312  -2.043   2.390  0.00  0.00    +0.111 A 
ATOM     27  C   UNL     1       0.732  -2.799   1.896  0.00  0.00    +0.020 A 
ENDBRANCH   1  13
ENDBRANCH   4   1
TORSDOF 3
