REMARK  Name = 11885097
REMARK  15 active torsions:
REMARK  status: ('A' for Active; 'I' for Inactive)
REMARK    1  A    between atoms: O_2  and  C_14
REMARK    2  A    between atoms: O_3  and  C_19
REMARK    3  A    between atoms: N_7  and  C_25
REMARK    4  A    between atoms: C_9  and  C_17
REMARK    5  A    between atoms: C_11  and  C_19
REMARK    6  A    between atoms: C_11  and  C_20
REMARK    7  A    between atoms: C_12  and  C_22
REMARK    8  A    between atoms: C_22  and  C_23
REMARK    9  A    between atoms: C_25  and  C_27
REMARK   10  A    between atoms: C_25  and  C_28
REMARK   11  A    between atoms: C_26  and  C_29
REMARK   12  A    between atoms: C_29  and  C_32
REMARK   13  A    between atoms: C_32  and  C_33
REMARK   14  A    between atoms: C_33  and  C_37
REMARK   15  A    between atoms: C_37  and  C_38
REMARK                            x       y       z     vdW  Elec       q    Type
REMARK                         _______ _______ _______ _____ _____    ______ ____
ROOT
ATOM      1  S   UNL     1      -0.823   3.272   0.210  0.00  0.00    -0.057 S 
ATOM      5  O   UNL     1       3.067   0.734  -0.178  0.00  0.00    -0.275 OA
ATOM      6  N   UNL     1       0.107   0.873  -0.060  0.00  0.00    -0.229 NA
ATOM      8  N   UNL     1       1.722   2.658   0.062  0.00  0.00    -0.265 N 
ATOM      9  C   UNL     1      -3.500  -0.430   0.341  0.00  0.00    -0.019 C 
ATOM     10  C   UNL     1      -4.129   0.875  -0.320  0.00  0.00    +0.011 C 
ATOM     11  C   UNL     1      -5.702   0.985  -0.332  0.00  0.00    +0.021 C 
ATOM     12  C   UNL     1      -1.980  -0.542  -0.139  0.00  0.00    +0.054 C 
ATOM     13  C   UNL     1      -4.265  -1.682  -0.162  0.00  0.00    +0.010 C 
ATOM     14  C   UNL     1      -6.306  -0.364  -0.814  0.00  0.00    +0.123 C 
ATOM     15  C   UNL     1      -3.414   2.165   0.178  0.00  0.00    +0.049 C 
ATOM     16  C   UNL     1      -5.778  -1.569  -0.043  0.00  0.00    +0.032 C 
ATOM     17  C   UNL     1      -3.551  -0.405   1.888  0.00  0.00    +0.012 C 
ATOM     18  C   UNL     1      -1.272   0.782  -0.010  0.00  0.00    +0.058 A 
ATOM     20  C   UNL     1      -6.127   2.075  -1.357  0.00  0.00    +0.016 C 
ATOM     21  C   UNL     1      -1.935   1.986   0.113  0.00  0.00    +0.015 A 
ATOM     24  C   UNL     1       0.456   2.136   0.054  0.00  0.00    +0.165 A 
ATOM     26  C   UNL     1       2.932   1.946  -0.052  0.00  0.00    +0.219 C 
ATOM     42  H   UNL     1       1.770   3.668   0.161  0.00  0.00    +0.157 HD
ENDROOT
BRANCH  14   2
ATOM      2  O   UNL     1      -7.729  -0.343  -0.714  0.00  0.00    -0.391 OA
ATOM     39  H   UNL     1      -8.063  -1.184  -1.069  0.00  0.00    +0.210 HD
ENDBRANCH  14   2
BRANCH  11  19
ATOM     19  C   UNL     1      -6.324   1.416   1.015  0.00  0.00    +0.165 C 
BRANCH  19   3
ATOM      3  O   UNL     1      -7.722   1.479   0.844  0.00  0.00    -0.394 OA
ATOM     40  H   UNL     1      -8.106   1.761   1.692  0.00  0.00    +0.209 HD
ENDBRANCH  19   3
ENDBRANCH  11  19
BRANCH  12  22
ATOM     22  C   UNL     1      -1.183  -1.672   0.526  0.00  0.00    +0.106 C 
BRANCH  22  23
ATOM      4  O   UNL     1       0.198  -1.699  -1.460  0.00  0.00    -0.276 OA
ATOM      7  N   UNL     1       0.666  -3.166   0.281  0.00  0.00    -0.309 N 
ATOM     23  C   UNL     1      -0.046  -2.154  -0.346  0.00  0.00    +0.214 C 
ATOM     41  H   UNL     1       0.410  -3.431   1.228  0.00  0.00    +0.149 HD
BRANCH   7  25
ATOM     25  C   UNL     1       1.806  -3.818  -0.320  0.00  0.00    +0.100 C 
ATOM     27  C   UNL     1       1.879  -5.274   0.136  0.00  0.00    +0.033 C 
BRANCH  25  28
ATOM     28  C   UNL     1       3.086  -3.059  -0.047  0.00  0.00    -0.027 A 
ATOM     30  C   UNL     1       3.255  -2.390   1.165  0.00  0.00    +0.005 A 
ATOM     31  C   UNL     1       4.098  -3.029  -1.007  0.00  0.00    +0.005 A 
ATOM     34  C   UNL     1       4.435  -1.690   1.418  0.00  0.00    +0.000 A 
ATOM     35  C   UNL     1       5.278  -2.329  -0.754  0.00  0.00    +0.000 A 
ATOM     36  C   UNL     1       5.446  -1.660   0.458  0.00  0.00    +0.000 A 
ENDBRANCH  25  28
ENDBRANCH   7  25
ENDBRANCH  22  23
ENDBRANCH  12  22
BRANCH  26  29
ATOM     29  C   UNL     1       4.129   2.886  -0.002  0.00  0.00    +0.096 C 
BRANCH  29  32
ATOM     32  C   UNL     1       5.462   2.150  -0.123  0.00  0.00    +0.009 C 
BRANCH  32  33
ATOM     33  C   UNL     1       6.640   3.125  -0.108  0.00  0.00    +0.000 C 
BRANCH  33  37
ATOM     37  C   UNL     1       7.975   2.385  -0.195  0.00  0.00    -0.003 C 
ATOM     38  C   UNL     1       9.149   3.349  -0.147  0.00  0.00    +0.004 C 
ENDBRANCH  33  37
ENDBRANCH  32  33
ENDBRANCH  29  32
ENDBRANCH  26  29
TORSDOF 11
