REMARK  Name = 75537107
REMARK  3 active torsions:
REMARK  status: ('A' for Active; 'I' for Inactive)
REMARK    1  A    between atoms: N_3  and  C_8
REMARK    2  A    between atoms: N_5  and  C_18
REMARK    3  A    between atoms: C_19  and  C_20
REMARK                            x       y       z     vdW  Elec       q    Type
REMARK                         _______ _______ _______ _____ _____    ______ ____
ROOT
ATOM      1  O   UNL     1      -5.085  -1.456   0.107  0.00  0.00    -0.252 OA
ATOM      3  N   UNL     1      -0.148  -0.310  -0.165  0.00  0.00    -0.296 NA
ATOM      4  N   UNL     1      -2.941  -0.599  -0.326  0.00  0.00    -0.278 N 
ATOM      5  N   UNL     1      -4.623   0.854  -0.008  0.00  0.00    -0.287 N 
ATOM      7  C   UNL     1      -2.353   0.699  -0.583  0.00  0.00    +0.109 C 
ATOM      9  C   UNL     1      -1.022   0.836   0.155  0.00  0.00    +0.108 C 
ATOM     10  C   UNL     1      -0.780  -1.583   0.238  0.00  0.00    +0.104 C 
ATOM     11  C   UNL     1      -2.124  -1.787  -0.465  0.00  0.00    +0.125 C 
ATOM     14  C   UNL     1      -3.437   1.681  -0.142  0.00  0.00    +0.132 C 
ATOM     17  C   UNL     1      -4.314  -0.520  -0.059  0.00  0.00    +0.305 C 
ATOM     18  C   UNL     1      -5.920   1.418   0.294  0.00  0.00    +0.133 C 
ENDROOT
BRANCH   3   8
ATOM      2  O   UNL     1       5.737   1.422  -0.576  0.00  0.00    -0.276 OA
ATOM      6  N   UNL     1       4.025   0.139   0.329  0.00  0.00    -0.302 N 
ATOM      8  C   UNL     1       1.150  -0.158   0.489  0.00  0.00    +0.060 C 
ATOM     12  C   UNL     1       1.800   1.166   0.066  0.00  0.00    +0.038 C 
ATOM     13  C   UNL     1       2.061  -1.340   0.133  0.00  0.00    +0.038 C 
ATOM     15  C   UNL     1       3.200   1.301   0.663  0.00  0.00    +0.109 C 
ATOM     16  C   UNL     1       3.457  -1.155   0.728  0.00  0.00    +0.109 C 
ATOM     19  C   UNL     1       5.265   0.321  -0.283  0.00  0.00    +0.212 C 
ATOM     20  C   UNL     1       6.053  -0.926  -0.596  0.00  0.00    +0.109 C 
ENDBRANCH   3   8
TORSDOF 1
