REMARK  Name = 26743750
REMARK  7 active torsions:
REMARK  status: ('A' for Active; 'I' for Inactive)
REMARK    1  A    between atoms: O_4  and  C_14
REMARK    2  A    between atoms: O_6  and  C_27
REMARK    3  A    between atoms: O_6  and  C_28
REMARK    4  A    between atoms: N_7  and  C_16
REMARK    5  A    between atoms: C_12  and  C_17
REMARK    6  A    between atoms: C_16  and  C_18
REMARK    7  A    between atoms: C_19  and  C_21
REMARK                            x       y       z     vdW  Elec       q    Type
REMARK                         _______ _______ _______ _____ _____    ______ ____
ROOT
ATOM      5  O   UNL     1      -1.992   0.869  -2.217  0.00  0.00    -0.336 OA
ATOM      8  N   UNL     1      -1.027   0.558  -0.220  0.00  0.00    -0.190 NA
ATOM     11  N   UNL     1      -0.613   0.822  -2.455  0.00  0.00    -0.056 NA
ATOM     17  C   UNL     1      -2.150   0.705  -0.878  0.00  0.00    +0.245 A 
ATOM     19  C   UNL     1      -0.112   0.636  -1.230  0.00  0.00    +0.202 A 
ENDROOT
BRANCH  19  21
ATOM     21  C   UNL     1       1.296   0.527  -0.980  0.00  0.00    +0.023 A 
ATOM     23  C   UNL     1       2.211   1.013  -1.915  0.00  0.00    +0.015 A 
ATOM     24  C   UNL     1       1.751  -0.068   0.197  0.00  0.00    +0.015 A 
ATOM     25  C   UNL     1       3.580   0.904  -1.672  0.00  0.00    +0.046 A 
ATOM     26  C   UNL     1       3.120  -0.176   0.440  0.00  0.00    +0.046 A 
ATOM     27  C   UNL     1       4.035   0.310  -0.495  0.00  0.00    +0.130 A 
BRANCH  27   6
ATOM      6  O   UNL     1       5.371   0.204  -0.258  0.00  0.00    -0.406 OA
BRANCH   6  28
ATOM      1  F   UNL     1       7.047   0.789   1.136  0.00  0.00    -0.133 F 
ATOM      2  F   UNL     1       4.995   0.963   1.867  0.00  0.00    -0.133 F 
ATOM      3  F   UNL     1       5.918  -1.026   1.591  0.00  0.00    -0.133 F 
ATOM     28  C   UNL     1       5.819   0.225   1.093  0.00  0.00    +0.575 C 
ENDBRANCH   6  28
ENDBRANCH  27   6
ENDBRANCH  19  21
BRANCH  17  12
ATOM      7  N   UNL     1      -3.731  -0.067   0.883  0.00  0.00    -0.282 NA
ATOM     12  C   UNL     1      -3.572   0.717  -0.358  0.00  0.00    +0.149 C 
ATOM     13  C   UNL     1      -4.062   2.131   0.004  0.00  0.00    +0.061 C 
ATOM     14  C   UNL     1      -4.518   2.031   1.454  0.00  0.00    +0.130 C 
ATOM     15  C   UNL     1      -4.822   0.555   1.629  0.00  0.00    +0.117 C 
BRANCH  14   4
ATOM      4  O   UNL     1      -5.661   2.833   1.678  0.00  0.00    -0.390 OA
ATOM     29  H   UNL     1      -5.417   3.753   1.475  0.00  0.00    +0.210 HD
ENDBRANCH  14   4
BRANCH   7  16
ATOM     16  C   UNL     1      -3.971  -1.484   0.640  0.00  0.00    +0.159 C 
BRANCH  16  18
ATOM      9  N   UNL     1      -2.542  -2.900  -0.855  0.00  0.00    -0.347 N 
ATOM     10  N   UNL     1      -1.628  -2.312   1.082  0.00  0.00    -0.239 NA
ATOM     18  C   UNL     1      -2.697  -2.222   0.323  0.00  0.00    +0.121 A 
ATOM     20  C   UNL     1      -1.295  -3.458  -0.845  0.00  0.00    +0.104 A 
ATOM     22  C   UNL     1      -0.750  -3.082   0.360  0.00  0.00    +0.130 A 
ATOM     30  H   UNL     1      -3.223  -2.974  -1.599  0.00  0.00    +0.167 HD
ENDBRANCH  16  18
ENDBRANCH   7  16
ENDBRANCH  17  12
TORSDOF 7
