REMARK  Name = 11911865
REMARK  11 active torsions:
REMARK  status: ('A' for Active; 'I' for Inactive)
REMARK    1  A    between atoms: O_4  and  C_26
REMARK    2  A    between atoms: N_6  and  C_13
REMARK    3  A    between atoms: N_7  and  C_14
REMARK    4  A    between atoms: N_10  and  C_31
REMARK    5  A    between atoms: N_10  and  C_32
REMARK    6  A    between atoms: N_10  and  C_33
REMARK    7  A    between atoms: C_17  and  C_19
REMARK    8  A    between atoms: C_19  and  C_20
REMARK    9  A    between atoms: C_20  and  C_22
REMARK   10  A    between atoms: C_21  and  C_25
REMARK   11  A    between atoms: C_22  and  C_26
REMARK                            x       y       z     vdW  Elec       q    Type
REMARK                         _______ _______ _______ _____ _____    ______ ____
ROOT
ATOM      1  O   UNL     1      -0.591   0.847   1.793  0.00  0.00    -0.370 OA
ATOM      2  O   UNL     1      -1.420   3.800   1.217  0.00  0.00    -0.370 OA
ATOM     11  C   UNL     1      -1.667   2.558   0.538  0.00  0.00    +0.171 C 
ATOM     12  C   UNL     1      -0.412   1.717   0.663  0.00  0.00    +0.171 C 
ATOM     13  C   UNL     1      -2.720   1.758   1.272  0.00  0.00    +0.130 C 
ATOM     14  C   UNL     1       0.680   2.723   0.944  0.00  0.00    +0.130 C 
ATOM     15  C   UNL     1      -1.904   1.048   2.338  0.00  0.00    +0.185 C 
ATOM     16  C   UNL     1      -0.062   3.821   1.683  0.00  0.00    +0.185 C 
ENDROOT
BRANCH  14   7
ATOM      7  N   UNL     1       1.217   3.231  -0.299  0.00  0.00    -0.306 N 
ATOM      8  N   UNL     1       2.698   1.452  -0.495  0.00  0.00    -0.214 NA
ATOM      9  N   UNL     1       2.611   3.196  -2.156  0.00  0.00    -0.223 NA
ATOM     18  C   UNL     1       2.219   2.599  -1.015  0.00  0.00    +0.216 A 
ATOM     21  C   UNL     1       3.673   0.863  -1.218  0.00  0.00    +0.076 A 
ATOM     23  C   UNL     1       3.589   2.553  -2.828  0.00  0.00    +0.116 A 
ATOM     24  C   UNL     1       4.163   1.373  -2.403  0.00  0.00    +0.048 A 
ATOM     35  H   UNL     1       0.816   4.066  -0.711  0.00  0.00    +0.149 HD
BRANCH  21  25
ATOM     25  C   UNL     1       4.188  -0.366  -0.664  0.00  0.00    +0.001 A 
ATOM     27  C   UNL     1       5.539  -0.470  -0.333  0.00  0.00    +0.012 A 
ATOM     28  C   UNL     1       3.335  -1.452  -0.463  0.00  0.00    +0.012 A 
ATOM     29  C   UNL     1       6.037  -1.659   0.201  0.00  0.00    +0.024 A 
ATOM     30  C   UNL     1       3.833  -2.640   0.070  0.00  0.00    +0.024 A 
ATOM     31  C   UNL     1       5.184  -2.744   0.402  0.00  0.00    +0.029 A 
BRANCH  31  10
ATOM     10  N   UNL     1       5.688  -3.946   0.942  0.00  0.00    -0.336 N 
ATOM     32  C   UNL     1       7.090  -4.062   1.290  0.00  0.00    +0.129 C 
ATOM     33  C   UNL     1       4.808  -5.075   1.168  0.00  0.00    +0.129 C 
ENDBRANCH  31  10
ENDBRANCH  21  25
ENDBRANCH  14   7
BRANCH  13   6
ATOM      3  O   UNL     1      -5.353   0.658   1.580  0.00  0.00    -0.276 OA
ATOM      6  N   UNL     1      -3.366   0.814   0.393  0.00  0.00    -0.308 N 
ATOM     17  C   UNL     1      -4.648   0.338   0.627  0.00  0.00    +0.213 C 
ATOM     34  H   UNL     1      -2.838   0.444  -0.394  0.00  0.00    +0.149 HD
BRANCH  17  19
ATOM     19  C   UNL     1      -5.078  -0.665  -0.431  0.00  0.00    +0.096 C 
BRANCH  19  20
ATOM     20  C   UNL     1      -6.486  -1.219  -0.217  0.00  0.00    +0.020 C 
BRANCH  20  22
ATOM     22  C   UNL     1      -6.892  -2.215  -1.304  0.00  0.00    +0.121 C 
BRANCH  22  26
ATOM      5  O   UNL     1      -9.038  -2.426  -0.174  0.00  0.00    -0.251 OA
ATOM     26  C   UNL     1      -8.288  -2.751  -1.084  0.00  0.00    +0.305 C 
BRANCH  26   4
ATOM      4  O   UNL     1      -8.628  -3.657  -2.038  0.00  0.00    -0.481 OA
ATOM     36  H   UNL     1      -9.534  -4.008  -1.902  0.00  0.00    +0.295 HD
ENDBRANCH  26   4
ENDBRANCH  22  26
ENDBRANCH  20  22
ENDBRANCH  19  20
ENDBRANCH  17  19
ENDBRANCH  13   6
TORSDOF 9
