REMARK  Name = 45783700
REMARK  9 active torsions:
REMARK  status: ('A' for Active; 'I' for Inactive)
REMARK    1  A    between atoms: O_2  and  C_22
REMARK    2  A    between atoms: O_2  and  C_23
REMARK    3  A    between atoms: N_3  and  C_10
REMARK    4  A    between atoms: C_7  and  C_13
REMARK    5  A    between atoms: C_10  and  C_12
REMARK    6  A    between atoms: C_12  and  C_14
REMARK    7  A    between atoms: C_12  and  C_15
REMARK    8  A    between atoms: C_12  and  C_16
REMARK    9  A    between atoms: C_17  and  C_18
REMARK                            x       y       z     vdW  Elec       q    Type
REMARK                         _______ _______ _______ _____ _____    ______ ____
ROOT
ATOM      1  O   UNL     1      -0.460  -2.613   0.811  0.00  0.00    -0.336 OA
ATOM      4  N   UNL     1      -0.212  -0.510   0.080  0.00  0.00    -0.190 NA
ATOM      5  N   UNL     1       0.920  -2.381   0.755  0.00  0.00    -0.056 NA
ATOM     13  C   UNL     1      -1.053  -1.462   0.398  0.00  0.00    +0.245 A 
ATOM     17  C   UNL     1       0.986  -1.120   0.315  0.00  0.00    +0.204 A 
ENDROOT
BRANCH  17  18
ATOM      6  N   UNL     1       4.648  -0.492   0.162  0.00  0.00    -0.221 NA
ATOM     18  C   UNL     1       2.232  -0.443   0.099  0.00  0.00    +0.041 A 
ATOM     19  C   UNL     1       2.263   0.869  -0.361  0.00  0.00    +0.018 A 
ATOM     20  C   UNL     1       3.441  -1.074   0.343  0.00  0.00    +0.126 A 
ATOM     21  C   UNL     1       3.486   1.501  -0.560  0.00  0.00    +0.068 A 
ATOM     22  C   UNL     1       4.639   0.783  -0.286  0.00  0.00    +0.214 A 
BRANCH  22   2
ATOM      2  O   UNL     1       5.856   1.384  -0.475  0.00  0.00    -0.480 OA
ATOM     23  C   UNL     1       7.008   0.603  -0.179  0.00  0.00    +0.279 C 
ENDBRANCH  22   2
ENDBRANCH  17  18
BRANCH  13   7
ATOM      3  N   UNL     1      -3.119  -0.188  -0.152  0.00  0.00    -0.291 NA
ATOM      7  C   UNL     1      -2.567  -1.455   0.369  0.00  0.00    +0.146 C 
ATOM      8  C   UNL     1      -3.149  -2.543  -0.552  0.00  0.00    +0.030 C 
ATOM      9  C   UNL     1      -4.398  -0.521  -0.778  0.00  0.00    +0.085 C 
ATOM     11  C   UNL     1      -4.061  -1.800  -1.518  0.00  0.00    +0.017 C 
BRANCH   3  10
ATOM     10  C   UNL     1      -3.260   0.840   0.871  0.00  0.00    +0.091 C 
BRANCH  10  12
ATOM     12  C   UNL     1      -3.280   2.287   0.315  0.00  0.00    -0.025 C 
ATOM     14  C   UNL     1      -3.381   3.312   1.458  0.00  0.00    +0.012 C 
ATOM     15  C   UNL     1      -2.021   2.582  -0.520  0.00  0.00    +0.012 C 
ATOM     16  C   UNL     1      -4.516   2.439  -0.593  0.00  0.00    +0.012 C 
ENDBRANCH  10  12
ENDBRANCH   3  10
ENDBRANCH  13   7
TORSDOF 5
