REMARK  Name = 75536338
REMARK  12 active torsions:
REMARK  status: ('A' for Active; 'I' for Inactive)
REMARK    1  A    between atoms: O_2  and  C_9
REMARK    2  A    between atoms: O_4  and  C_20
REMARK    3  A    between atoms: O_4  and  C_26
REMARK    4  A    between atoms: O_5  and  C_25
REMARK    5  A    between atoms: O_5  and  C_29
REMARK    6  A    between atoms: N_6  and  C_13
REMARK    7  A    between atoms: N_6  and  C_16
REMARK    8  A    between atoms: C_8  and  C_13
REMARK    9  A    between atoms: C_10  and  C_14
REMARK   10  A    between atoms: C_14  and  C_15
REMARK   11  A    between atoms: C_16  and  C_18
REMARK   12  A    between atoms: C_19  and  C_20
REMARK                            x       y       z     vdW  Elec       q    Type
REMARK                         _______ _______ _______ _____ _____    ______ ____
ROOT
ATOM      1  O   UNL     1       3.418  -0.620   0.658  0.00  0.00    -0.369 OA
ATOM      8  C   UNL     1       3.803   0.551   1.390  0.00  0.00    +0.161 C 
ATOM      9  C   UNL     1       5.319   0.593   1.618  0.00  0.00    +0.145 C 
ATOM     10  C   UNL     1       4.079  -0.798  -0.597  0.00  0.00    +0.125 C 
ATOM     11  C   UNL     1       6.107   0.354   0.333  0.00  0.00    +0.036 C 
ATOM     12  C   UNL     1       5.593  -0.880  -0.401  0.00  0.00    +0.034 C 
ENDROOT
BRANCH   9   2
ATOM      2  O   UNL     1       5.674  -0.436   2.546  0.00  0.00    -0.389 OA
ATOM     34  H   UNL     1       6.629  -0.363   2.714  0.00  0.00    +0.210 HD
ENDBRANCH   9   2
BRANCH   8  13
ATOM     13  C   UNL     1       3.264   1.816   0.726  0.00  0.00    +0.115 C 
BRANCH  13   6
ATOM      6  N   UNL     1       1.822   1.738   0.553  0.00  0.00    -0.309 NA
ATOM     33  H   UNL     1       1.596   0.927  -0.023  0.00  0.00    +0.122 HD
BRANCH   6  16
ATOM     16  C   UNL     1       1.303   2.948  -0.071  0.00  0.00    +0.116 C 
BRANCH  16  18
ATOM     18  C   UNL     1      -0.191   2.892  -0.247  0.00  0.00    -0.033 A 
ATOM     21  C   UNL     1      -1.022   3.611   0.614  0.00  0.00    +0.008 A 
ATOM     22  C   UNL     1      -0.746   2.122  -1.269  0.00  0.00    +0.008 A 
ATOM     23  C   UNL     1      -2.406   3.559   0.452  0.00  0.00    +0.046 A 
ATOM     24  C   UNL     1      -2.130   2.071  -1.431  0.00  0.00    +0.046 A 
ATOM     25  C   UNL     1      -2.960   2.789  -0.571  0.00  0.00    +0.120 A 
BRANCH  25   5
ATOM      5  O   UNL     1      -4.311   2.738  -0.729  0.00  0.00    -0.495 OA
ATOM     29  C   UNL     1      -4.810   1.931  -1.794  0.00  0.00    +0.277 C 
ENDBRANCH  25   5
ENDBRANCH  16  18
ENDBRANCH   6  16
ENDBRANCH  13   6
ENDBRANCH   8  13
BRANCH  10  14
ATOM     14  C   UNL     1       3.543  -2.081  -1.220  0.00  0.00    +0.090 C 
BRANCH  14  15
ATOM      3  O   UNL     1       0.155  -1.653  -2.372  0.00  0.00    -0.356 OA
ATOM      7  N   UNL     1       1.531  -1.555  -2.536  0.00  0.00    -0.083 NA
ATOM     15  C   UNL     1       2.049  -2.031  -1.400  0.00  0.00    +0.086 A 
ATOM     17  C   UNL     1       1.058  -2.440  -0.491  0.00  0.00    +0.074 A 
ATOM     19  C   UNL     1      -0.115  -2.180  -1.151  0.00  0.00    +0.175 A 
BRANCH  19  20
ATOM     20  C   UNL     1      -1.532  -2.354  -0.810  0.00  0.00    +0.306 C 
BRANCH  20   4
ATOM      4  O   UNL     1      -1.857  -1.599   0.360  0.00  0.00    -0.484 OA
BRANCH   4  26
ATOM     26  C   UNL     1      -3.135  -1.722   0.829  0.00  0.00    +0.121 A 
ATOM     27  C   UNL     1      -4.043  -2.551   0.170  0.00  0.00    +0.045 A 
ATOM     28  C   UNL     1      -3.532  -1.018   1.966  0.00  0.00    +0.045 A 
ATOM     30  C   UNL     1      -5.347  -2.677   0.648  0.00  0.00    +0.004 A 
ATOM     31  C   UNL     1      -4.836  -1.144   2.444  0.00  0.00    +0.004 A 
ATOM     32  C   UNL     1      -5.744  -1.973   1.784  0.00  0.00    +0.000 A 
ENDBRANCH   4  26
ENDBRANCH  20   4
ENDBRANCH  19  20
ENDBRANCH  14  15
ENDBRANCH  10  14
TORSDOF 11
