REMARK  Name = 11883105
REMARK  8 active torsions:
REMARK  status: ('A' for Active; 'I' for Inactive)
REMARK    1  A    between atoms: O_3  and  C_16
REMARK    2  A    between atoms: O_4  and  C_21
REMARK    3  A    between atoms: C_11  and  C_19
REMARK    4  A    between atoms: C_13  and  C_21
REMARK    5  A    between atoms: C_13  and  C_22
REMARK    6  A    between atoms: C_14  and  C_24
REMARK    7  A    between atoms: C_24  and  C_25
REMARK    8  A    between atoms: C_27  and  C_28
REMARK                            x       y       z     vdW  Elec       q    Type
REMARK                         _______ _______ _______ _____ _____    ______ ____
ROOT
ATOM      1  S   UNL     1      -0.191   3.165  -0.127  0.00  0.00    -0.057 S 
ATOM      6  O   UNL     1       3.777   0.757  -0.350  0.00  0.00    -0.275 OA
ATOM      7  N   UNL     1       0.834   0.790  -0.180  0.00  0.00    -0.229 NA
ATOM      8  N   UNL     1       2.374   2.641  -0.272  0.00  0.00    -0.264 N 
ATOM     11  C   UNL     1      -2.707  -0.610   0.428  0.00  0.00    -0.019 C 
ATOM     12  C   UNL     1      -3.402   0.597  -0.343  0.00  0.00    +0.011 C 
ATOM     13  C   UNL     1      -4.979   0.641  -0.330  0.00  0.00    +0.021 C 
ATOM     14  C   UNL     1      -1.193  -0.708  -0.072  0.00  0.00    +0.054 C 
ATOM     15  C   UNL     1      -3.428  -1.936   0.069  0.00  0.00    +0.010 C 
ATOM     16  C   UNL     1      -5.534  -0.772  -0.664  0.00  0.00    +0.123 C 
ATOM     17  C   UNL     1      -2.734   1.957   0.009  0.00  0.00    +0.049 C 
ATOM     18  C   UNL     1      -4.942  -1.872   0.210  0.00  0.00    +0.032 C 
ATOM     19  C   UNL     1      -2.730  -0.433   1.967  0.00  0.00    +0.012 C 
ATOM     20  C   UNL     1      -0.539   0.649  -0.091  0.00  0.00    +0.058 A 
ATOM     22  C   UNL     1      -5.468   1.606  -1.447  0.00  0.00    +0.016 C 
ATOM     23  C   UNL     1      -1.250   1.832  -0.072  0.00  0.00    +0.015 A 
ATOM     26  C   UNL     1       1.131   2.071  -0.199  0.00  0.00    +0.165 A 
ATOM     28  C   UNL     1       3.613   1.980  -0.342  0.00  0.00    +0.222 C 
ATOM     37  H   UNL     1       2.381   3.658  -0.274  0.00  0.00    +0.157 HD
ENDROOT
BRANCH  28  27
ATOM     27  C   UNL     1       4.815   2.945  -0.408  0.00  0.00    +0.075 C 
ATOM     29  C   UNL     1       5.130   3.773   0.856  0.00  0.00    +0.013 C 
ATOM     30  C   UNL     1       6.224   2.334  -0.267  0.00  0.00    +0.013 C 
ATOM     31  C   UNL     1       6.622   3.618   0.491  0.00  0.00    +0.001 C 
ENDBRANCH  28  27
BRANCH  16   3
ATOM      3  O   UNL     1      -6.955  -0.798  -0.533  0.00  0.00    -0.391 OA
ATOM     35  H   UNL     1      -7.260  -1.683  -0.796  0.00  0.00    +0.210 HD
ENDBRANCH  16   3
BRANCH  13  21
ATOM     21  C   UNL     1      -5.594   1.179   0.981  0.00  0.00    +0.165 C 
BRANCH  21   4
ATOM      4  O   UNL     1      -6.996   1.168   0.837  0.00  0.00    -0.394 OA
ATOM     36  H   UNL     1      -7.375   1.517   1.661  0.00  0.00    +0.209 HD
ENDBRANCH  21   4
ENDBRANCH  13  21
BRANCH  14  24
ATOM     24  C   UNL     1      -0.336  -1.734   0.683  0.00  0.00    +0.106 C 
BRANCH  24  25
ATOM      2  S   UNL     1       4.261  -3.401   1.478  0.00  0.00    -0.061 S 
ATOM      5  O   UNL     1       0.735  -2.352  -1.381  0.00  0.00    -0.275 OA
ATOM      9  N   UNL     1       1.885  -2.582   0.659  0.00  0.00    -0.265 N 
ATOM     10  N   UNL     1       3.496  -3.363  -0.991  0.00  0.00    -0.233 NA
ATOM     25  C   UNL     1       0.809  -2.256  -0.161  0.00  0.00    +0.219 C 
ATOM     32  C   UNL     1       3.115  -3.093   0.238  0.00  0.00    +0.164 A 
ATOM     33  C   UNL     1       5.368  -3.944   0.286  0.00  0.00    +0.068 A 
ATOM     34  C   UNL     1       4.788  -3.850  -0.961  0.00  0.00    +0.120 A 
ATOM     38  H   UNL     1       1.805  -2.457   1.665  0.00  0.00    +0.157 HD
ENDBRANCH  24  25
ENDBRANCH  14  24
TORSDOF 6
