REMARK  Name = 11912157
REMARK  2 active torsions:
REMARK  status: ('A' for Active; 'I' for Inactive)
REMARK    1  A    between atoms: N_5  and  C_16
REMARK    2  A    between atoms: C_18  and  C_19
REMARK                            x       y       z     vdW  Elec       q    Type
REMARK                         _______ _______ _______ _____ _____    ______ ____
ROOT
ATOM      1  O   UNL     1      -0.338  -2.097  -0.247  0.00  0.00    -0.266 OA
ATOM      3  N   UNL     1      -2.103  -0.632   0.213  0.00  0.00    -0.310 N 
ATOM      4  N   UNL     1      -4.386   0.493  -1.726  0.00  0.00    -0.315 NA
ATOM      7  C   UNL     1      -4.566  -1.305   0.013  0.00  0.00    +0.023 C 
ATOM      8  C   UNL     1      -3.982   0.976   0.693  0.00  0.00    +0.050 C 
ATOM      9  C   UNL     1      -4.786  -0.258   1.097  0.00  0.00    +0.017 C 
ATOM     10  C   UNL     1      -3.084  -1.704   0.004  0.00  0.00    +0.130 C 
ATOM     11  C   UNL     1      -5.040  -0.760  -1.349  0.00  0.00    +0.086 C 
ATOM     12  C   UNL     1      -4.492   1.499  -0.667  0.00  0.00    +0.090 C 
ATOM     13  C   UNL     1      -2.501   0.650   0.614  0.00  0.00    +0.026 A 
ATOM     14  C   UNL     1      -1.583   1.589   0.908  0.00  0.00    +0.024 A 
ATOM     15  C   UNL     1      -0.742  -0.984   0.087  0.00  0.00    +0.273 A 
ATOM     16  C   UNL     1       0.222   0.100   0.403  0.00  0.00    +0.099 A 
ATOM     17  C   UNL     1      -0.176   1.309   0.799  0.00  0.00    +0.030 A 
ATOM     24  H   UNL     1      -4.803   0.853  -2.584  0.00  0.00    +0.122 HD
ENDROOT
BRANCH  16   5
ATOM      2  O   UNL     1       2.312   1.944  -0.210  0.00  0.00    -0.270 OA
ATOM      5  N   UNL     1       1.550  -0.198   0.282  0.00  0.00    -0.277 N 
ATOM     18  C   UNL     1       2.519   0.748  -0.019  0.00  0.00    +0.248 C 
ATOM     25  H   UNL     1       1.781  -1.185   0.198  0.00  0.00    +0.155 HD
BRANCH  18  19
ATOM      6  N   UNL     1       6.507  -0.706  -0.213  0.00  0.00    -0.263 NA
ATOM     19  C   UNL     1       3.914   0.239  -0.087  0.00  0.00    +0.040 A 
ATOM     20  C   UNL     1       4.823   0.894  -0.884  0.00  0.00    +0.033 A 
ATOM     21  C   UNL     1       4.254  -0.871   0.649  0.00  0.00    +0.033 A 
ATOM     22  C   UNL     1       6.110   0.381  -0.912  0.00  0.00    +0.111 A 
ATOM     23  C   UNL     1       5.567  -1.305   0.552  0.00  0.00    +0.111 A 
ENDBRANCH  18  19
ENDBRANCH  16   5
TORSDOF 2
