REMARK  Name = 11912463
REMARK  12 active torsions:
REMARK  status: ('A' for Active; 'I' for Inactive)
REMARK    1  A    between atoms: S_1  and  N_7
REMARK    2  A    between atoms: S_1  and  C_18
REMARK    3  A    between atoms: S_2  and  C_25
REMARK    4  A    between atoms: S_2  and  C_27
REMARK    5  A    between atoms: O_6  and  C_24
REMARK    6  A    between atoms: O_6  and  C_26
REMARK    7  A    between atoms: N_8  and  C_21
REMARK    8  A    between atoms: C_9  and  C_14
REMARK    9  A    between atoms: C_10  and  C_15
REMARK   10  A    between atoms: C_14  and  C_16
REMARK   11  A    between atoms: C_15  and  C_17
REMARK   12  A    between atoms: C_21  and  C_25
REMARK                            x       y       z     vdW  Elec       q    Type
REMARK                         _______ _______ _______ _____ _____    ______ ____
ROOT
ATOM      7  N   UNL     1       1.133   1.558   0.538  0.00  0.00    -0.176 NA
ATOM      9  C   UNL     1      -0.581   1.657  -1.259  0.00  0.00    +0.008 C 
ATOM     10  C   UNL     1      -1.354   0.516  -0.554  0.00  0.00    +0.003 C 
ATOM     11  C   UNL     1      -1.045   0.474   0.950  0.00  0.00    +0.021 C 
ATOM     12  C   UNL     1       0.918   1.547  -0.940  0.00  0.00    +0.113 C 
ATOM     13  C   UNL     1       0.457   0.411   1.209  0.00  0.00    +0.110 C 
ENDROOT
BRANCH   7   1
ATOM      1  S   UNL     1       2.743   1.856   1.042  0.00  0.00    +0.061 S 
ATOM      3  O   UNL     1       2.771   1.976   2.483  0.00  0.00    -0.153 OA
ATOM      4  O   UNL     1       3.317   2.880   0.196  0.00  0.00    -0.153 OA
BRANCH   1  18
ATOM     18  C   UNL     1       3.489   0.315   0.614  0.00  0.00    +0.106 A 
ATOM     19  C   UNL     1       4.047   0.138  -0.653  0.00  0.00    +0.032 A 
ATOM     20  C   UNL     1       3.522  -0.726   1.542  0.00  0.00    +0.032 A 
ATOM     22  C   UNL     1       4.638  -1.079  -0.991  0.00  0.00    +0.047 A 
ATOM     23  C   UNL     1       4.113  -1.944   1.203  0.00  0.00    +0.047 A 
ATOM     24  C   UNL     1       4.671  -2.120  -0.063  0.00  0.00    +0.120 A 
BRANCH  24   6
ATOM      6  O   UNL     1       5.246  -3.309  -0.393  0.00  0.00    -0.495 OA
ATOM     26  C   UNL     1       5.796  -3.421  -1.705  0.00  0.00    +0.277 C 
ENDBRANCH  24   6
ENDBRANCH   1  18
ENDBRANCH   7   1
BRANCH   9  14
ATOM     14  C   UNL     1      -1.101   3.062  -0.929  0.00  0.00    +0.002 C 
ATOM     16  C   UNL     1      -0.371   4.117  -1.733  0.00  0.00    +0.004 C 
ENDBRANCH   9  14
BRANCH  10  15
ATOM     15  C   UNL     1      -2.863   0.575  -0.793  0.00  0.00    +0.099 C 
BRANCH  15  17
ATOM      5  O   UNL     1      -2.916  -1.790  -0.287  0.00  0.00    -0.276 OA
ATOM      8  N   UNL     1      -4.898  -0.686  -0.793  0.00  0.00    -0.315 N 
ATOM     17  C   UNL     1      -3.528  -0.769  -0.590  0.00  0.00    +0.213 C 
ATOM     28  H   UNL     1      -5.311   0.211  -1.033  0.00  0.00    +0.149 HD
BRANCH   8  21
ATOM     21  C   UNL     1      -5.785  -1.820  -0.669  0.00  0.00    +0.115 C 
BRANCH  21  25
ATOM     25  C   UNL     1      -6.334  -1.994   0.741  0.00  0.00    +0.087 C 
BRANCH  25   2
ATOM      2  S   UNL     1      -7.249  -0.529   1.308  0.00  0.00    -0.163 S 
ATOM     27  C   UNL     1      -8.837  -0.895   0.527  0.00  0.00    +0.084 C 
ENDBRANCH  25   2
ENDBRANCH  21  25
ENDBRANCH   8  21
ENDBRANCH  15  17
ENDBRANCH  10  15
TORSDOF 9
