REMARK  Name = 25338514
REMARK  8 active torsions:
REMARK  status: ('A' for Active; 'I' for Inactive)
REMARK    1  A    between atoms: O_3  and  C_28
REMARK    2  A    between atoms: O_3  and  C_33
REMARK    3  A    between atoms: N_4  and  C_13
REMARK    4  A    between atoms: N_5  and  C_8
REMARK    5  A    between atoms: C_9  and  C_12
REMARK    6  A    between atoms: C_14  and  C_15
REMARK    7  A    between atoms: C_15  and  C_18
REMARK    8  A    between atoms: C_16  and  C_17
REMARK                            x       y       z     vdW  Elec       q    Type
REMARK                         _______ _______ _______ _____ _____    ______ ____
ROOT
ATOM      4  N   UNL     1      -2.635  -3.441   0.890  0.00  0.00    -0.293 NA
ATOM      8  C   UNL     1      -4.003  -1.769   0.013  0.00  0.00    +0.089 C 
ATOM      9  C   UNL     1      -2.193  -3.324  -0.512  0.00  0.00    +0.147 C 
ATOM     10  C   UNL     1      -2.980  -2.120  -1.067  0.00  0.00    +0.052 C 
ATOM     11  C   UNL     1      -4.033  -2.999   0.908  0.00  0.00    +0.107 C 
ATOM     13  C   UNL     1      -2.483  -4.787   1.429  0.00  0.00    +0.105 C 
ENDROOT
BRANCH   9  12
ATOM      1  O   UNL     1      -0.057  -4.083  -1.424  0.00  0.00    -0.336 OA
ATOM      6  N   UNL     1       0.092  -2.243  -0.156  0.00  0.00    -0.190 NA
ATOM      7  N   UNL     1       1.298  -3.727  -1.413  0.00  0.00    -0.056 NA
ATOM     12  C   UNL     1      -0.696  -3.158  -0.661  0.00  0.00    +0.245 A 
ATOM     16  C   UNL     1       1.305  -2.633  -0.645  0.00  0.00    +0.202 A 
BRANCH  16  17
ATOM     17  C   UNL     1       2.506  -1.908  -0.348  0.00  0.00    +0.023 A 
ATOM     19  C   UNL     1       2.431  -0.583   0.085  0.00  0.00    +0.020 A 
ATOM     20  C   UNL     1       3.745  -2.525  -0.491  0.00  0.00    +0.012 A 
ATOM     23  C   UNL     1       3.598   0.141   0.381  0.00  0.00    -0.017 A 
ATOM     24  C   UNL     1       4.858  -0.487   0.235  0.00  0.00    -0.018 A 
ATOM     25  C   UNL     1       4.914  -1.820  -0.202  0.00  0.00    +0.009 A 
ATOM     29  C   UNL     1       3.541   1.475   0.817  0.00  0.00    +0.008 A 
ATOM     30  C   UNL     1       6.024   0.238   0.530  0.00  0.00    +0.008 A 
ATOM     31  C   UNL     1       4.710   2.179   1.106  0.00  0.00    +0.001 A 
ATOM     32  C   UNL     1       5.949   1.562   0.963  0.00  0.00    +0.001 A 
ENDBRANCH  16  17
ENDBRANCH   9  12
BRANCH   8   5
ATOM      2  O   UNL     1      -4.750   0.950  -0.562  0.00  0.00    -0.275 OA
ATOM      5  N   UNL     1      -3.614  -0.591   0.751  0.00  0.00    -0.311 N 
ATOM     14  C   UNL     1      -4.027   0.685   0.395  0.00  0.00    +0.218 C 
ATOM     34  H   UNL     1      -2.963  -0.711   1.521  0.00  0.00    +0.149 HD
BRANCH  14  15
ATOM     15  C   UNL     1      -3.478   1.733   1.343  0.00  0.00    +0.130 C 
BRANCH  15  18
ATOM     18  C   UNL     1      -2.617   2.763   0.661  0.00  0.00    -0.038 A 
ATOM     21  C   UNL     1      -1.244   2.554   0.537  0.00  0.00    +0.007 A 
ATOM     22  C   UNL     1      -3.195   3.927   0.152  0.00  0.00    +0.007 A 
ATOM     26  C   UNL     1      -0.447   3.509  -0.095  0.00  0.00    +0.046 A 
ATOM     27  C   UNL     1      -2.398   4.881  -0.481  0.00  0.00    +0.046 A 
ATOM     28  C   UNL     1      -1.024   4.673  -0.604  0.00  0.00    +0.120 A 
BRANCH  28   3
ATOM      3  O   UNL     1      -0.247   5.603  -1.222  0.00  0.00    -0.495 OA
ATOM     33  C   UNL     1       1.149   5.325  -1.314  0.00  0.00    +0.277 C 
ENDBRANCH  28   3
ENDBRANCH  15  18
ENDBRANCH  14  15
ENDBRANCH   8   5
TORSDOF 6
