REMARK  Name = 26743958
REMARK  5 active torsions:
REMARK  status: ('A' for Active; 'I' for Inactive)
REMARK    1  A    between atoms: O_2  and  C_10
REMARK    2  A    between atoms: N_4  and  C_12
REMARK    3  A    between atoms: C_8  and  C_13
REMARK    4  A    between atoms: C_12  and  C_14
REMARK    5  A    between atoms: C_17  and  C_20
REMARK                            x       y       z     vdW  Elec       q    Type
REMARK                         _______ _______ _______ _____ _____    ______ ____
ROOT
ATOM      4  N   UNL     1      -1.487   1.410  -0.120  0.00  0.00    -0.285 NA
ATOM      8  C   UNL     1      -0.404   2.329  -0.527  0.00  0.00    +0.149 C 
ATOM      9  C   UNL     1      -0.450   3.472   0.504  0.00  0.00    +0.061 C 
ATOM     10  C   UNL     1      -1.617   3.130   1.421  0.00  0.00    +0.130 C 
ATOM     11  C   UNL     1      -2.486   2.226   0.567  0.00  0.00    +0.116 C 
ENDROOT
BRANCH   8  13
ATOM      3  O   UNL     1       1.852   2.175  -1.454  0.00  0.00    -0.336 OA
ATOM      5  N   UNL     1       1.383   0.610   0.078  0.00  0.00    -0.190 NA
ATOM      6  N   UNL     1       3.005   1.389  -1.335  0.00  0.00    -0.056 NA
ATOM     13  C   UNL     1       0.947   1.648  -0.588  0.00  0.00    +0.245 A 
ATOM     17  C   UNL     1       2.650   0.488  -0.414  0.00  0.00    +0.204 A 
BRANCH  17  20
ATOM      7  N   UNL     1       5.708  -1.603  -0.090  0.00  0.00    -0.263 NA
ATOM     20  C   UNL     1       3.538  -0.544   0.037  0.00  0.00    +0.041 A 
ATOM     22  C   UNL     1       3.137  -1.465   0.999  0.00  0.00    +0.014 A 
ATOM     23  C   UNL     1       4.822  -0.655  -0.471  0.00  0.00    +0.122 A 
ATOM     24  C   UNL     1       4.020  -2.455   1.417  0.00  0.00    +0.020 A 
ATOM     25  C   UNL     1       5.282  -2.480   0.847  0.00  0.00    +0.111 A 
ENDBRANCH  17  20
ENDBRANCH   8  13
BRANCH  10   2
ATOM      2  O   UNL     1      -2.306   4.301   1.815  0.00  0.00    -0.390 OA
ATOM     26  H   UNL     1      -1.673   4.867   2.289  0.00  0.00    +0.210 HD
ENDBRANCH  10   2
BRANCH   4  12
ATOM     12  C   UNL     1      -2.058   0.666  -1.235  0.00  0.00    +0.120 C 
BRANCH  12  14
ATOM      1 CL   UNL     1      -4.917  -4.293   0.614  0.00  0.00    -0.084 Cl
ATOM     14  C   UNL     1      -2.774  -0.575  -0.772  0.00  0.00    -0.033 A 
ATOM     15  C   UNL     1      -2.080  -1.780  -0.664  0.00  0.00    +0.006 A 
ATOM     16  C   UNL     1      -4.131  -0.520  -0.453  0.00  0.00    +0.006 A 
ATOM     18  C   UNL     1      -2.743  -2.930  -0.235  0.00  0.00    +0.020 A 
ATOM     19  C   UNL     1      -4.793  -1.670  -0.024  0.00  0.00    +0.020 A 
ATOM     21  C   UNL     1      -4.099  -2.875   0.085  0.00  0.00    +0.041 A 
ENDBRANCH  12  14
ENDBRANCH   4  12
TORSDOF 5
