REMARK  Name = 40779501
REMARK  9 active torsions:
REMARK  status: ('A' for Active; 'I' for Inactive)
REMARK    1  A    between atoms: O_3  and  C_30
REMARK    2  A    between atoms: O_3  and  C_33
REMARK    3  A    between atoms: O_4  and  C_32
REMARK    4  A    between atoms: O_4  and  C_34
REMARK    5  A    between atoms: N_6  and  C_21
REMARK    6  A    between atoms: N_7  and  C_17
REMARK    7  A    between atoms: C_11  and  C_18
REMARK    8  A    between atoms: C_12  and  C_17
REMARK    9  A    between atoms: C_20  and  C_23
REMARK                            x       y       z     vdW  Elec       q    Type
REMARK                         _______ _______ _______ _____ _____    ______ ____
ROOT
ATOM      5  N   UNL     1      -3.359   3.025  -0.721  0.00  0.00    -0.297 NA
ATOM     10  C   UNL     1      -1.999   2.673   1.472  0.00  0.00    +0.002 C 
ATOM     11  C   UNL     1      -1.112   3.336   0.382  0.00  0.00    +0.055 C 
ATOM     12  C   UNL     1      -3.516   1.625  -0.244  0.00  0.00    +0.074 C 
ATOM     13  C   UNL     1      -2.558   1.340   0.933  0.00  0.00    +0.024 C 
ATOM     14  C   UNL     1      -3.203   3.612   1.698  0.00  0.00    +0.019 C 
ATOM     15  C   UNL     1      -1.924   3.327  -0.945  0.00  0.00    +0.094 C 
ATOM     16  C   UNL     1      -3.862   3.926   0.344  0.00  0.00    +0.085 C 
ENDROOT
BRANCH  11  18
ATOM      6  N   UNL     1       1.338   3.604  -0.224  0.00  0.00    -0.270 N 
ATOM      8  N   UNL     1       2.510   2.954  -0.326  0.00  0.00    -0.171 NA
ATOM     18  C   UNL     1       0.306   2.816   0.195  0.00  0.00    +0.044 A 
ATOM     19  C   UNL     1       0.841   1.564   0.379  0.00  0.00    +0.053 A 
ATOM     20  C   UNL     1       2.200   1.709   0.044  0.00  0.00    +0.093 A 
ATOM     21  C   UNL     1       1.279   5.009  -0.553  0.00  0.00    +0.172 C 
BRANCH  20  23
ATOM     23  C   UNL     1       3.207   0.680   0.068  0.00  0.00    +0.006 A 
ATOM     26  C   UNL     1       2.853  -0.648  -0.170  0.00  0.00    +0.059 A 
ATOM     27  C   UNL     1       4.536   1.012   0.329  0.00  0.00    +0.014 A 
ATOM     30  C   UNL     1       3.829  -1.645  -0.146  0.00  0.00    +0.162 A 
ATOM     31  C   UNL     1       5.512   0.015   0.353  0.00  0.00    +0.050 A 
ATOM     32  C   UNL     1       5.158  -1.313   0.116  0.00  0.00    +0.162 A 
BRANCH  30   3
ATOM      3  O   UNL     1       3.471  -2.938  -0.379  0.00  0.00    -0.491 OA
ATOM     33  C   UNL     1       2.092  -3.193  -0.639  0.00  0.00    +0.277 C 
ENDBRANCH  30   3
BRANCH  32   4
ATOM      4  O   UNL     1       6.120  -2.277   0.141  0.00  0.00    -0.491 OA
ATOM     34  C   UNL     1       7.454  -1.854   0.416  0.00  0.00    +0.277 C 
ENDBRANCH  32   4
ENDBRANCH  20  23
ENDBRANCH  11  18
BRANCH  12  17
ATOM     17  C   UNL     1      -3.355   0.604  -1.371  0.00  0.00    +0.124 C 
BRANCH  17   7
ATOM      1  O   UNL     1      -1.545  -1.552  -1.403  0.00  0.00    -0.253 OA
ATOM      2  O   UNL     1      -3.580  -5.336   1.049  0.00  0.00    -0.377 OA
ATOM      7  N   UNL     1      -3.629  -0.735  -0.898  0.00  0.00    -0.298 N 
ATOM      9  N   UNL     1      -3.095  -2.995  -0.458  0.00  0.00    -0.281 N 
ATOM     22  C   UNL     1      -2.678  -1.747  -0.949  0.00  0.00    +0.302 C 
ATOM     24  C   UNL     1      -2.159  -4.121  -0.480  0.00  0.00    +0.137 C 
ATOM     25  C   UNL     1      -4.460  -3.351  -0.044  0.00  0.00    +0.137 C 
ATOM     28  C   UNL     1      -2.235  -4.919   0.812  0.00  0.00    +0.179 C 
ATOM     29  C   UNL     1      -4.438  -4.207   1.218  0.00  0.00    +0.179 C 
ATOM     35  H   UNL     1      -4.575  -0.911  -0.593  0.00  0.00    +0.150 HD
ENDBRANCH  17   7
ENDBRANCH  12  17
TORSDOF 6
