REMARK  Name = 11879542
REMARK  9 active torsions:
REMARK  status: ('A' for Active; 'I' for Inactive)
REMARK    1  A    between atoms: S_1  and  C_19
REMARK    2  A    between atoms: S_1  and  C_21
REMARK    3  A    between atoms: O_5  and  C_16
REMARK    4  A    between atoms: O_5  and  C_20
REMARK    5  A    between atoms: N_7  and  C_15
REMARK    6  A    between atoms: N_11  and  C_20
REMARK    7  A    between atoms: N_11  and  C_22
REMARK    8  A    between atoms: C_21  and  C_23
REMARK    9  A    between atoms: C_27  and  C_32
REMARK                            x       y       z     vdW  Elec       q    Type
REMARK                         _______ _______ _______ _____ _____    ______ ____
ROOT
ATOM      3  O   UNL     1       1.029   0.378   0.231  0.00  0.00    -0.368 OA
ATOM      4  O   UNL     1      -0.714  -1.967  -0.778  0.00  0.00    -0.368 OA
ATOM     13  C   UNL     1      -0.897  -1.012   0.291  0.00  0.00    +0.177 C 
ATOM     14  C   UNL     1       0.471  -0.765   0.896  0.00  0.00    +0.192 C 
ATOM     15  C   UNL     1      -1.302   0.329  -0.290  0.00  0.00    +0.168 C 
ATOM     16  C   UNL     1       1.220  -2.031   0.554  0.00  0.00    +0.232 C 
ATOM     17  C   UNL     1       0.040   0.971  -0.623  0.00  0.00    +0.190 C 
ATOM     18  C   UNL     1       0.662  -2.370  -0.809  0.00  0.00    +0.207 C 
ENDROOT
BRANCH  15   7
ATOM      7  N   UNL     1      -2.158   1.097   0.617  0.00  0.00    -0.212 N 
ATOM      8  N   UNL     1      -1.612   1.905   1.532  0.00  0.00    -0.043 NA
ATOM      9  N   UNL     1      -3.837   1.969   1.666  0.00  0.00    -0.101 NA
ATOM     10  N   UNL     1      -2.646   2.438   2.173  0.00  0.00    -0.022 NA
ATOM     19  C   UNL     1      -3.510   1.140   0.702  0.00  0.00    +0.210 A 
BRANCH  19   1
ATOM      1  S   UNL     1      -4.568   0.238  -0.309  0.00  0.00    -0.077 S 
BRANCH   1  21
ATOM     21  C   UNL     1      -6.196   0.747   0.320  0.00  0.00    +0.151 C 
BRANCH  21  23
ATOM      6  O   UNL     1      -8.164   0.900  -1.050  0.00  0.00    -0.467 OA
ATOM     23  C   UNL     1      -7.305   0.070  -0.431  0.00  0.00    +0.115 A 
ATOM     26  C   UNL     1      -7.616  -1.235  -0.610  0.00  0.00    +0.045 A 
ATOM     29  C   UNL     1      -8.779  -1.230  -1.417  0.00  0.00    +0.041 A 
ATOM     30  C   UNL     1      -9.072   0.092  -1.657  0.00  0.00    +0.195 A 
ENDBRANCH  21  23
ENDBRANCH   1  21
ENDBRANCH  19   1
ENDBRANCH  15   7
BRANCH  16   5
ATOM      5  O   UNL     1       2.619  -1.869   0.530  0.00  0.00    -0.466 OA
BRANCH   5  20
ATOM      2  S   UNL     1       2.963  -1.942   3.179  0.00  0.00    +0.006 S 
ATOM     20  C   UNL     1       3.393  -1.521   1.616  0.00  0.00    +0.233 C 
BRANCH  20  11
ATOM     11  N   UNL     1       4.552  -0.807   1.384  0.00  0.00    -0.279 N 
ATOM     33  H   UNL     1       5.081  -0.579   2.223  0.00  0.00    +0.156 HD
BRANCH  11  22
ATOM     22  C   UNL     1       5.134  -0.335   0.181  0.00  0.00    +0.035 A 
ATOM     24  C   UNL     1       6.323   0.370   0.237  0.00  0.00    +0.042 A 
ATOM     25  C   UNL     1       4.497  -0.589  -1.022  0.00  0.00    +0.023 A 
ATOM     27  C   UNL     1       6.894   0.836  -0.948  0.00  0.00    +0.054 A 
ATOM     28  C   UNL     1       5.069  -0.123  -2.206  0.00  0.00    +0.003 A 
ATOM     31  C   UNL     1       6.267   0.590  -2.169  0.00  0.00    +0.019 A 
BRANCH  27  32
ATOM     12  N   UNL     1       9.121   2.160  -0.880  0.00  0.00    -0.191 NA
ATOM     32  C   UNL     1       8.122   1.566  -0.910  0.00  0.00    +0.099 C 
ENDBRANCH  27  32
ENDBRANCH  11  22
ENDBRANCH  20  11
ENDBRANCH   5  20
ENDBRANCH  16   5
TORSDOF 9
