REMARK  Name = 38029310
REMARK  13 active torsions:
REMARK  status: ('A' for Active; 'I' for Inactive)
REMARK    1  A    between atoms: S_1  and  N_6
REMARK    2  A    between atoms: S_1  and  C_22
REMARK    3  A    between atoms: N_6  and  C_16
REMARK    4  A    between atoms: N_7  and  C_23
REMARK    5  A    between atoms: C_9  and  C_13
REMARK    6  A    between atoms: C_10  and  C_16
REMARK    7  A    between atoms: C_12  and  C_17
REMARK    8  A    between atoms: C_13  and  C_18
REMARK    9  A    between atoms: C_13  and  C_19
REMARK   10  A    between atoms: C_14  and  C_20
REMARK   11  A    between atoms: C_17  and  C_21
REMARK   12  A    between atoms: C_23  and  C_25
REMARK   13  A    between atoms: C_32  and  C_33
REMARK                            x       y       z     vdW  Elec       q    Type
REMARK                         _______ _______ _______ _____ _____    ______ ____
ROOT
ATOM      9  C   UNL     1       1.563   0.585  -1.391  0.00  0.00    +0.000 C 
ATOM     10  C   UNL     1       3.047   0.984  -1.585  0.00  0.00    +0.030 C 
ATOM     11  C   UNL     1       0.667   1.832  -1.401  0.00  0.00    +0.012 C 
ATOM     12  C   UNL     1       1.051   2.835  -0.296  0.00  0.00    +0.023 C 
ATOM     14  C   UNL     1       2.546   3.076  -0.251  0.00  0.00    -0.073 C 
ATOM     15  C   UNL     1       3.422   2.246  -0.844  0.00  0.00    -0.023 C 
ATOM     20  C   UNL     1       3.010   4.321   0.454  0.00  0.00    +0.039 C 
ENDROOT
BRANCH   9  13
ATOM     13  C   UNL     1       1.094  -0.400  -2.466  0.00  0.00    -0.013 C 
ATOM     18  C   UNL     1      -0.335  -0.854  -2.184  0.00  0.00    +0.007 C 
ATOM     19  C   UNL     1       1.197   0.234  -3.849  0.00  0.00    +0.007 C 
ENDBRANCH   9  13
BRANCH  10  16
ATOM     16  C   UNL     1       3.986  -0.153  -1.165  0.00  0.00    +0.113 C 
BRANCH  16   6
ATOM      6  N   UNL     1       3.857  -0.372   0.284  0.00  0.00    -0.189 NA
ATOM     34  H   UNL     1       4.156   0.420   0.867  0.00  0.00    +0.148 HD
BRANCH   6   1
ATOM      1  S   UNL     1       4.107  -1.924   0.941  0.00  0.00    +0.065 S 
ATOM      4  O   UNL     1       4.483  -1.798   2.337  0.00  0.00    -0.153 OA
ATOM      5  O   UNL     1       4.930  -2.698   0.032  0.00  0.00    -0.153 OA
BRANCH   1  22
ATOM      2  S   UNL     1       1.363  -1.914   1.973  0.00  0.00    -0.077 S 
ATOM     22  C   UNL     1       2.479  -2.610   0.876  0.00  0.00    +0.142 A 
ATOM     24  C   UNL     1       1.905  -3.604   0.115  0.00  0.00    +0.036 A 
ATOM     26  C   UNL     1       0.530  -3.798   0.437  0.00  0.00    +0.010 A 
ATOM     27  C   UNL     1       0.107  -2.944   1.431  0.00  0.00    +0.047 A 
ENDBRANCH   1  22
ENDBRANCH   6   1
ENDBRANCH  16   6
ENDBRANCH  10  16
BRANCH  12  17
ATOM     17  C   UNL     1       0.527   2.379   1.070  0.00  0.00    +0.103 C 
BRANCH  17  21
ATOM      3  O   UNL     1      -1.589   3.468   0.634  0.00  0.00    -0.276 OA
ATOM      7  N   UNL     1      -1.523   1.615   2.035  0.00  0.00    -0.311 N 
ATOM     21  C   UNL     1      -0.967   2.573   1.200  0.00  0.00    +0.214 C 
ATOM     35  H   UNL     1      -0.925   0.910   2.456  0.00  0.00    +0.149 HD
BRANCH   7  23
ATOM     23  C   UNL     1      -2.933   1.559   2.343  0.00  0.00    +0.139 C 
BRANCH  23  25
ATOM     25  C   UNL     1      -3.688   0.702   1.367  0.00  0.00    -0.030 A 
ATOM     28  C   UNL     1      -4.723   1.252   0.612  0.00  0.00    +0.006 A 
ATOM     29  C   UNL     1      -3.353  -0.644   1.217  0.00  0.00    +0.006 A 
ATOM     30  C   UNL     1      -5.423   0.456  -0.294  0.00  0.00    +0.019 A 
ATOM     31  C   UNL     1      -4.053  -1.440   0.311  0.00  0.00    +0.019 A 
ATOM     32  C   UNL     1      -5.088  -0.890  -0.445  0.00  0.00    +0.052 A 
BRANCH  32  33
ATOM      8  N   UNL     1      -6.389  -2.368  -2.127  0.00  0.00    -0.191 NA
ATOM     33  C   UNL     1      -5.806  -1.706  -1.373  0.00  0.00    +0.099 C 
ENDBRANCH  32  33
ENDBRANCH  23  25
ENDBRANCH   7  23
ENDBRANCH  17  21
ENDBRANCH  12  17
TORSDOF 10
