REMARK  Name = 75536616
REMARK  6 active torsions:
REMARK  status: ('A' for Active; 'I' for Inactive)
REMARK    1  A    between atoms: O_2  and  C_8
REMARK    2  A    between atoms: N_4  and  C_7
REMARK    3  A    between atoms: N_4  and  C_9
REMARK    4  A    between atoms: N_6  and  C_16
REMARK    5  A    between atoms: C_10  and  C_16
REMARK    6  A    between atoms: C_17  and  C_18
REMARK                            x       y       z     vdW  Elec       q    Type
REMARK                         _______ _______ _______ _____ _____    ______ ____
ROOT
ATOM      1  O   UNL     1      -0.092   0.536  -0.901  0.00  0.00    -0.371 OA
ATOM      7  C   UNL     1      -2.188  -0.324  -0.187  0.00  0.00    +0.111 C 
ATOM      8  C   UNL     1      -1.198  -1.468  -0.305  0.00  0.00    +0.164 C 
ATOM     10  C   UNL     1       0.126  -0.719  -0.235  0.00  0.00    +0.165 C 
ATOM     11  C   UNL     1      -1.509   0.748  -1.024  0.00  0.00    +0.181 C 
ENDROOT
BRANCH   8   2
ATOM      2  O   UNL     1      -1.326  -2.412   0.741  0.00  0.00    -0.388 OA
ATOM     26  H   UNL     1      -1.230  -1.944   1.587  0.00  0.00    +0.210 HD
ENDBRANCH   8   2
BRANCH   7   4
ATOM      4  N   UNL     1      -3.521  -0.654  -0.663  0.00  0.00    -0.306 NA
ATOM     24  H   UNL     1      -3.794  -1.578  -0.329  0.00  0.00    +0.123 HD
BRANCH   4   9
ATOM      5  N   UNL     1      -7.159   0.975   0.825  0.00  0.00    -0.316 NA
ATOM      9  C   UNL     1      -4.493   0.340  -0.214  0.00  0.00    +0.056 C 
ATOM     12  C   UNL     1      -5.745   0.294  -1.096  0.00  0.00    +0.034 C 
ATOM     13  C   UNL     1      -4.873   0.112   1.254  0.00  0.00    +0.034 C 
ATOM     14  C   UNL     1      -6.816   1.252  -0.572  0.00  0.00    +0.082 C 
ATOM     15  C   UNL     1      -5.977   1.078   1.686  0.00  0.00    +0.082 C 
ATOM     25  H   UNL     1      -7.862   1.644   1.138  0.00  0.00    +0.122 HD
ENDBRANCH   4   9
ENDBRANCH   7   4
BRANCH  10  16
ATOM     16  C   UNL     1       1.272  -1.461  -0.900  0.00  0.00    +0.138 C 
BRANCH  16   6
ATOM      3  O   UNL     1       3.222  -1.609   1.201  0.00  0.00    -0.270 OA
ATOM      6  N   UNL     1       2.495  -0.718  -0.814  0.00  0.00    -0.309 N 
ATOM     17  C   UNL     1       3.386  -0.854   0.247  0.00  0.00    +0.244 C 
ATOM     27  H   UNL     1       2.657  -0.023  -1.535  0.00  0.00    +0.149 HD
BRANCH  17  18
ATOM     18  C   UNL     1       4.596   0.007   0.202  0.00  0.00    +0.037 A 
ATOM     19  C   UNL     1       5.233   0.377   1.387  0.00  0.00    +0.013 A 
ATOM     20  C   UNL     1       5.095   0.444  -1.024  0.00  0.00    +0.013 A 
ATOM     21  C   UNL     1       6.370   1.184   1.344  0.00  0.00    +0.001 A 
ATOM     22  C   UNL     1       6.232   1.251  -1.067  0.00  0.00    +0.001 A 
ATOM     23  C   UNL     1       6.870   1.621   0.117  0.00  0.00    +0.000 A 
ENDBRANCH  17  18
ENDBRANCH  16   6
ENDBRANCH  10  16
TORSDOF 6
