REMARK  Name = 38027684
REMARK  13 active torsions:
REMARK  status: ('A' for Active; 'I' for Inactive)
REMARK    1  A    between atoms: O_3  and  C_27
REMARK    2  A    between atoms: O_3  and  C_28
REMARK    3  A    between atoms: N_4  and  C_13
REMARK    4  A    between atoms: N_5  and  C_26
REMARK    5  A    between atoms: C_6  and  C_10
REMARK    6  A    between atoms: C_7  and  C_13
REMARK    7  A    between atoms: C_9  and  C_14
REMARK    8  A    between atoms: C_10  and  C_15
REMARK    9  A    between atoms: C_10  and  C_16
REMARK   10  A    between atoms: C_11  and  C_18
REMARK   11  A    between atoms: C_14  and  C_25
REMARK   12  A    between atoms: C_17  and  C_21
REMARK   13  A    between atoms: C_26  and  C_27
REMARK                            x       y       z     vdW  Elec       q    Type
REMARK                         _______ _______ _______ _____ _____    ______ ____
ROOT
ATOM      6  C   UNL     1      -1.367   1.323   1.052  0.00  0.00    +0.000 C 
ATOM      7  C   UNL     1      -2.678   1.593   0.271  0.00  0.00    +0.032 C 
ATOM      8  C   UNL     1      -0.346   2.440   0.788  0.00  0.00    +0.012 C 
ATOM      9  C   UNL     1      -0.004   2.576  -0.708  0.00  0.00    +0.023 C 
ATOM     11  C   UNL     1      -1.249   2.579  -1.572  0.00  0.00    -0.073 C 
ATOM     12  C   UNL     1      -2.438   2.149  -1.113  0.00  0.00    -0.022 C 
ATOM     18  C   UNL     1      -1.107   3.132  -2.962  0.00  0.00    +0.039 C 
ENDROOT
BRANCH   6  10
ATOM     10  C   UNL     1      -1.618   1.194   2.557  0.00  0.00    -0.013 C 
ATOM     15  C   UNL     1      -0.515   0.368   3.212  0.00  0.00    +0.007 C 
ATOM     16  C   UNL     1      -1.714   2.574   3.200  0.00  0.00    +0.007 C 
ENDBRANCH   6  10
BRANCH   7  13
ATOM     13  C   UNL     1      -3.534   0.326   0.171  0.00  0.00    +0.112 C 
BRANCH  13   4
ATOM      1  O   UNL     1      -2.733  -2.341   0.995  0.00  0.00    -0.276 OA
ATOM      4  N   UNL     1      -2.879  -0.667  -0.621  0.00  0.00    -0.315 N 
ATOM     21  C   UNL     1      -2.528  -1.929  -0.144  0.00  0.00    +0.216 C 
ATOM     29  H   UNL     1      -2.760  -0.470  -1.610  0.00  0.00    +0.149 HD
BRANCH  21  17
ATOM     17  C   UNL     1      -1.874  -2.784  -1.190  0.00  0.00    +0.075 C 
ATOM     19  C   UNL     1      -0.609  -2.117  -1.734  0.00  0.00    +0.013 C 
ATOM     20  C   UNL     1      -1.612  -4.186  -0.636  0.00  0.00    +0.013 C 
ATOM     22  C   UNL     1       0.583  -2.205  -0.781  0.00  0.00    +0.001 C 
ATOM     23  C   UNL     1      -0.419  -4.240   0.317  0.00  0.00    +0.001 C 
ATOM     24  C   UNL     1       0.831  -3.635  -0.313  0.00  0.00    +0.000 C 
ENDBRANCH  21  17
ENDBRANCH  13   4
ENDBRANCH   7  13
BRANCH   9  14
ATOM     14  C   UNL     1       0.970   1.480  -1.154  0.00  0.00    +0.103 C 
BRANCH  14  25
ATOM      2  O   UNL     1       2.694   2.705   0.021  0.00  0.00    -0.276 OA
ATOM      5  N   UNL     1       3.234   0.717  -1.056  0.00  0.00    -0.313 N 
ATOM     25  C   UNL     1       2.374   1.729  -0.652  0.00  0.00    +0.214 C 
ATOM     30  H   UNL     1       2.872  -0.048  -1.617  0.00  0.00    +0.149 HD
BRANCH   5  26
ATOM     26  C   UNL     1       4.639   0.696  -0.722  0.00  0.00    +0.132 C 
BRANCH  26  27
ATOM     27  C   UNL     1       4.890  -0.031   0.587  0.00  0.00    +0.178 C 
BRANCH  27   3
ATOM      3  O   UNL     1       4.401  -1.362   0.489  0.00  0.00    -0.381 OA
ATOM     28  C   UNL     1       4.609  -2.084   1.696  0.00  0.00    +0.194 C 
ENDBRANCH  27   3
ENDBRANCH  26  27
ENDBRANCH   5  26
ENDBRANCH  14  25
ENDBRANCH   9  14
TORSDOF 9
