REMARK  Name = 40724251
REMARK  6 active torsions:
REMARK  status: ('A' for Active; 'I' for Inactive)
REMARK    1  A    between atoms: S_1  and  N_5
REMARK    2  A    between atoms: S_1  and  C_16
REMARK    3  A    between atoms: C_16  and  C_19
REMARK    4  A    between atoms: C_17  and  C_20
REMARK    5  A    between atoms: C_19  and  C_21
REMARK    6  A    between atoms: C_22  and  C_25
REMARK                            x       y       z     vdW  Elec       q    Type
REMARK                         _______ _______ _______ _____ _____    ______ ____
ROOT
ATOM      4  O   UNL     1      -2.076   0.823  -1.840  0.00  0.00    -0.267 OA
ATOM      5  N   UNL     1       2.579   0.121  -0.202  0.00  0.00    -0.180 NA
ATOM      6  N   UNL     1      -0.337   1.327  -0.370  0.00  0.00    -0.311 N 
ATOM      7  C   UNL     1       1.888   2.323  -1.156  0.00  0.00    +0.025 C 
ATOM      8  C   UNL     1       1.532   1.864   1.230  0.00  0.00    +0.052 C 
ATOM      9  C   UNL     1       1.938   2.946   0.233  0.00  0.00    +0.017 C 
ATOM     10  C   UNL     1       2.865   1.139  -1.253  0.00  0.00    +0.114 C 
ATOM     11  C   UNL     1       2.544   0.705   1.173  0.00  0.00    +0.118 C 
ATOM     12  C   UNL     1       0.443   1.917  -1.467  0.00  0.00    +0.130 C 
ATOM     13  C   UNL     1       0.131   1.357   0.945  0.00  0.00    +0.026 A 
ATOM     14  C   UNL     1      -0.648   0.918   1.947  0.00  0.00    +0.022 A 
ATOM     15  C   UNL     1      -1.615   0.833  -0.697  0.00  0.00    +0.259 A 
ATOM     17  C   UNL     1      -2.451   0.315   0.442  0.00  0.00    +0.047 A 
ATOM     18  C   UNL     1      -1.955   0.385   1.687  0.00  0.00    +0.015 A 
ENDROOT
BRANCH  17  20
ATOM     20  C   UNL     1      -3.784  -0.267   0.208  0.00  0.00    -0.010 A 
ATOM     22  C   UNL     1      -3.947  -1.629  -0.044  0.00  0.00    -0.043 A 
ATOM     23  C   UNL     1      -4.897   0.574   0.242  0.00  0.00    +0.009 A 
ATOM     24  C   UNL     1      -5.222  -2.150  -0.263  0.00  0.00    +0.004 A 
ATOM     25  C   UNL     1      -2.778  -2.560  -0.088  0.00  0.00    +0.044 C 
ATOM     26  C   UNL     1      -6.172   0.053   0.023  0.00  0.00    +0.001 A 
ATOM     27  C   UNL     1      -6.334  -1.310  -0.229  0.00  0.00    +0.000 A 
ENDBRANCH  17  20
BRANCH   5   1
ATOM      1  S   UNL     1       3.422  -1.359  -0.356  0.00  0.00    +0.032 S 
ATOM      2  O   UNL     1       3.513  -1.700  -1.759  0.00  0.00    -0.158 OA
ATOM      3  O   UNL     1       2.907  -2.293   0.621  0.00  0.00    -0.158 OA
BRANCH   1  16
ATOM     16  C   UNL     1       5.027  -0.830   0.184  0.00  0.00    +0.185 C 
BRANCH  16  19
ATOM     19  C   UNL     1       6.027  -1.974   0.153  0.00  0.00    +0.021 C 
ATOM     21  C   UNL     1       7.398  -1.528   0.634  0.00  0.00    +0.005 C 
ENDBRANCH  16  19
ENDBRANCH   1  16
ENDBRANCH   5   1
TORSDOF 4
