REMARK  Name = 40533457
REMARK  2 active torsions:
REMARK  status: ('A' for Active; 'I' for Inactive)
REMARK    1  A    between atoms: C_13  and  C_14
REMARK    2  A    between atoms: C_22  and  C_24
REMARK                            x       y       z     vdW  Elec       q    Type
REMARK                         _______ _______ _______ _____ _____    ______ ____
ROOT
ATOM      1  O   UNL     1      -3.021  -0.459   2.106  0.00  0.00    -0.275 OA
ATOM      2  O   UNL     1       1.962   1.444   1.696  0.00  0.00    -0.267 OA
ATOM      3  N   UNL     1      -2.828   0.954   0.273  0.00  0.00    -0.300 N 
ATOM      4  N   UNL     1       0.246   1.810   0.159  0.00  0.00    -0.311 N 
ATOM      6  C   UNL     1      -1.831   3.200   0.718  0.00  0.00    +0.027 C 
ATOM      7  C   UNL     1      -1.603   2.184  -1.510  0.00  0.00    +0.054 C 
ATOM      8  C   UNL     1      -1.862   3.498  -0.776  0.00  0.00    +0.018 C 
ATOM      9  C   UNL     1      -2.912   2.170   1.085  0.00  0.00    +0.113 C 
ATOM     10  C   UNL     1      -2.722   1.178  -1.177  0.00  0.00    +0.117 C 
ATOM     11  C   UNL     1      -0.425   2.720   1.098  0.00  0.00    +0.130 C 
ATOM     12  C   UNL     1      -0.256   1.600  -1.127  0.00  0.00    +0.027 A 
ATOM     14  C   UNL     1      -2.933  -0.294   0.887  0.00  0.00    +0.219 C 
ATOM     19  C   UNL     1       0.436   0.862  -2.009  0.00  0.00    +0.022 A 
ATOM     20  C   UNL     1       1.470   1.254   0.583  0.00  0.00    +0.259 A 
ATOM     22  C   UNL     1       2.205   0.401  -0.415  0.00  0.00    +0.048 A 
ATOM     23  C   UNL     1       1.682   0.251  -1.642  0.00  0.00    +0.015 A 
ENDROOT
BRANCH  22  24
ATOM      5  N   UNL     1       5.829  -0.578  -0.491  0.00  0.00    -0.263 NA
ATOM     24  C   UNL     1       3.470  -0.266  -0.063  0.00  0.00    +0.005 A 
ATOM     25  C   UNL     1       3.531  -1.183   0.981  0.00  0.00    +0.011 A 
ATOM     26  C   UNL     1       4.637  -0.001  -0.762  0.00  0.00    +0.119 A 
ATOM     27  C   UNL     1       4.740  -1.797   1.290  0.00  0.00    +0.020 A 
ATOM     28  C   UNL     1       5.849  -1.464   0.530  0.00  0.00    +0.111 A 
ENDBRANCH  22  24
BRANCH  14  13
ATOM     13  C   UNL     1      -2.926  -1.489  -0.016  0.00  0.00    +0.075 C 
ATOM     15  C   UNL     1      -3.779  -2.596   0.607  0.00  0.00    +0.013 C 
ATOM     16  C   UNL     1      -1.489  -1.954  -0.253  0.00  0.00    +0.013 C 
ATOM     17  C   UNL     1      -3.730  -3.876  -0.223  0.00  0.00    +0.001 C 
ATOM     18  C   UNL     1      -1.445  -3.233  -1.085  0.00  0.00    +0.001 C 
ATOM     21  C   UNL     1      -2.296  -4.338  -0.463  0.00  0.00    +0.000 C 
ENDBRANCH  14  13
TORSDOF 2
