REMARK  Name = 7134523
REMARK  16 active torsions:
REMARK  status: ('A' for Active; 'I' for Inactive)
REMARK    1  A    between atoms: O_1  and  C_21
REMARK    2  A    between atoms: O_2  and  C_23
REMARK    3  A    between atoms: O_3  and  C_24
REMARK    4  A    between atoms: O_5  and  C_28
REMARK    5  A    between atoms: O_9  and  C_37
REMARK    6  A    between atoms: O_9  and  C_38
REMARK    7  A    between atoms: N_10  and  C_19
REMARK    8  A    between atoms: N_11  and  C_29
REMARK    9  A    between atoms: C_13  and  C_18
REMARK   10  A    between atoms: C_13  and  C_20
REMARK   11  A    between atoms: C_18  and  C_26
REMARK   12  A    between atoms: C_20  and  C_28
REMARK   13  A    between atoms: C_21  and  C_27
REMARK   14  A    between atoms: C_29  and  C_30
REMARK   15  A    between atoms: C_29  and  C_31
REMARK   16  A    between atoms: C_30  and  C_32
REMARK                            x       y       z     vdW  Elec       q    Type
REMARK                         _______ _______ _______ _____ _____    ______ ____
ROOT
ATOM     19  C   UNL     1      -0.561  -2.716  -0.737  0.00  0.00    +0.107 C 
ATOM     21  C   UNL     1       1.797  -1.899  -1.216  0.00  0.00    +0.146 C 
ATOM     22  C   UNL     1       0.425  -1.547  -0.638  0.00  0.00    +0.069 C 
ATOM     23  C   UNL     1       0.008  -3.997  -0.114  0.00  0.00    +0.163 C 
ATOM     24  C   UNL     1       1.390  -4.342  -0.672  0.00  0.00    +0.148 C 
ATOM     25  C   UNL     1       2.361  -3.164  -0.572  0.00  0.00    +0.078 C 
ENDROOT
BRANCH  19  10
ATOM      4  O   UNL     1      -2.817  -1.379  -1.961  0.00  0.00    -0.276 OA
ATOM     10  N   UNL     1      -1.812  -2.355  -0.107  0.00  0.00    -0.310 N 
ATOM     26  C   UNL     1      -2.840  -1.712  -0.779  0.00  0.00    +0.214 C 
ATOM     39  H   UNL     1      -1.901  -2.526   0.890  0.00  0.00    +0.149 HD
BRANCH  26  18
ATOM     18  C   UNL     1      -4.029  -1.463   0.131  0.00  0.00    +0.103 C 
BRANCH  18  13
ATOM     13  C   UNL     1      -4.343   0.026   0.294  0.00  0.00    -0.011 C 
ATOM     14  C   UNL     1      -5.646   0.246   1.074  0.00  0.00    +0.008 C 
ATOM     15  C   UNL     1      -4.672   0.685  -1.053  0.00  0.00    +0.008 C 
ATOM     16  C   UNL     1      -6.121   1.639   0.667  0.00  0.00    +0.001 C 
ATOM     17  C   UNL     1      -5.497   1.920  -0.699  0.00  0.00    +0.001 C 
BRANCH  13  20
ATOM     20  C   UNL     1      -3.156   0.722   0.980  0.00  0.00    +0.127 C 
BRANCH  20  28
ATOM      7  O   UNL     1      -3.574  -0.024   3.264  0.00  0.00    -0.251 OA
ATOM     28  C   UNL     1      -2.834   0.078   2.297  0.00  0.00    +0.305 C 
BRANCH  28   5
ATOM      5  O   UNL     1      -1.561  -0.393   2.268  0.00  0.00    -0.481 OA
ATOM     44  H   UNL     1      -1.311  -0.826   3.112  0.00  0.00    +0.295 HD
ENDBRANCH  28   5
ENDBRANCH  20  28
ENDBRANCH  13  20
ENDBRANCH  18  13
ENDBRANCH  26  18
ENDBRANCH  19  10
BRANCH  21  27
ATOM      6  O   UNL     1       3.306  -0.219  -1.994  0.00  0.00    -0.273 OA
ATOM     11  N   UNL     1       2.937  -0.429   0.295  0.00  0.00    -0.301 N 
ATOM     27  C   UNL     1       2.754  -0.757  -1.037  0.00  0.00    +0.246 C 
ATOM     43  H   UNL     1       2.467  -0.962   1.020  0.00  0.00    +0.150 HD
BRANCH  11  29
ATOM     29  C   UNL     1       3.826   0.621   0.736  0.00  0.00    +0.163 C 
BRANCH  29  31
ATOM      8  O   UNL     1       4.725  -1.006   2.301  0.00  0.00    -0.274 OA
ATOM     12  N   UNL     1       6.154   0.541   1.383  0.00  0.00    -0.328 N 
ATOM     31  C   UNL     1       4.915  -0.036   1.571  0.00  0.00    +0.231 C 
ATOM     45  H   UNL     1       6.971   0.187   1.869  0.00  0.00    +0.145 HD
ATOM     46  H   UNL     1       6.298   1.340   0.775  0.00  0.00    +0.145 HD
ENDBRANCH  29  31
BRANCH  29  30
ATOM     30  C   UNL     1       3.097   1.691   1.556  0.00  0.00    +0.067 C 
BRANCH  30  32
ATOM     32  C   UNL     1       2.341   2.672   0.695  0.00  0.00    -0.045 A 
ATOM     33  C   UNL     1       2.968   3.833   0.242  0.00  0.00    +0.007 A 
ATOM     34  C   UNL     1       1.013   2.418   0.351  0.00  0.00    +0.007 A 
ATOM     35  C   UNL     1       2.268   4.739  -0.554  0.00  0.00    +0.046 A 
ATOM     36  C   UNL     1       0.313   3.324  -0.446  0.00  0.00    +0.046 A 
ATOM     37  C   UNL     1       0.941   4.485  -0.898  0.00  0.00    +0.120 A 
BRANCH  37   9
ATOM      9  O   UNL     1       0.258   5.369  -1.676  0.00  0.00    -0.495 OA
ATOM     38  C   UNL     1      -1.096   5.047  -1.990  0.00  0.00    +0.277 C 
ENDBRANCH  37   9
ENDBRANCH  30  32
ENDBRANCH  29  30
ENDBRANCH  11  29
ENDBRANCH  21  27
BRANCH  21   1
ATOM      1  O   UNL     1       1.711  -2.091  -2.623  0.00  0.00    -0.379 OA
ATOM     40  H   UNL     1       2.572  -2.410  -2.943  0.00  0.00    +0.211 HD
ENDBRANCH  21   1
BRANCH  23   2
ATOM      2  O   UNL     1      -0.865  -5.090  -0.413  0.00  0.00    -0.387 OA
ATOM     41  H   UNL     1      -0.931  -5.167  -1.381  0.00  0.00    +0.210 HD
ENDBRANCH  23   2
BRANCH  24   3
ATOM      3  O   UNL     1       1.918  -5.439   0.074  0.00  0.00    -0.389 OA
ATOM     42  H   UNL     1       2.790  -5.655  -0.299  0.00  0.00    +0.210 HD
ENDBRANCH  24   3
TORSDOF 15
