REMARK  Name = 25389563
REMARK  9 active torsions:
REMARK  status: ('A' for Active; 'I' for Inactive)
REMARK    1  A    between atoms: O_2  and  C_17
REMARK    2  A    between atoms: O_2  and  C_22
REMARK    3  A    between atoms: N_6  and  C_20
REMARK    4  A    between atoms: N_8  and  C_26
REMARK    5  A    between atoms: C_10  and  C_16
REMARK    6  A    between atoms: C_11  and  C_17
REMARK    7  A    between atoms: C_19  and  C_21
REMARK    8  A    between atoms: C_31  and  C_32
REMARK    9  A    between atoms: C_32  and  C_33
REMARK                            x       y       z     vdW  Elec       q    Type
REMARK                         _______ _______ _______ _____ _____    ______ ____
ROOT
ATOM      5  N   UNL     1       2.439  -3.310   1.182  0.00  0.00    -0.296 NA
ATOM      9  C   UNL     1       3.297  -2.456  -1.124  0.00  0.00    +0.002 C 
ATOM     10  C   UNL     1       3.982  -1.677   0.033  0.00  0.00    +0.055 C 
ATOM     11  C   UNL     1       1.288  -3.011   0.290  0.00  0.00    +0.095 C 
ATOM     12  C   UNL     1       1.766  -2.312  -1.000  0.00  0.00    +0.026 C 
ATOM     13  C   UNL     1       3.631  -3.949  -0.914  0.00  0.00    +0.019 C 
ATOM     14  C   UNL     1       3.277  -2.097   1.355  0.00  0.00    +0.094 C 
ATOM     15  C   UNL     1       3.265  -4.352   0.525  0.00  0.00    +0.085 C 
ENDROOT
BRANCH  10  16
ATOM      6  N   UNL     1       5.186   0.440  -0.681  0.00  0.00    -0.270 N 
ATOM      7  N   UNL     1       5.111   1.781  -0.695  0.00  0.00    -0.171 NA
ATOM     16  C   UNL     1       4.113  -0.166  -0.097  0.00  0.00    +0.044 A 
ATOM     18  C   UNL     1       3.278   0.850   0.299  0.00  0.00    +0.053 A 
ATOM     19  C   UNL     1       3.943   2.026  -0.095  0.00  0.00    +0.100 A 
ATOM     20  C   UNL     1       6.341  -0.208  -1.259  0.00  0.00    +0.172 C 
BRANCH  19  21
ATOM      1  S   UNL     1       1.959   3.766   0.869  0.00  0.00    -0.095 S 
ATOM     21  C   UNL     1       3.448   3.399   0.108  0.00  0.00    +0.039 A 
ATOM     23  C   UNL     1       4.120   4.535  -0.288  0.00  0.00    +0.018 A 
ATOM     24  C   UNL     1       3.402   5.722   0.038  0.00  0.00    +0.008 A 
ATOM     25  C   UNL     1       2.210   5.448   0.671  0.00  0.00    +0.046 A 
ENDBRANCH  19  21
ENDBRANCH  10  16
BRANCH  11  17
ATOM     17  C   UNL     1       0.193  -2.212   1.000  0.00  0.00    +0.252 C 
BRANCH  17   2
ATOM      2  O   UNL     1      -0.901  -2.071   0.115  0.00  0.00    -0.449 OA
BRANCH   2  22
ATOM      3  O   UNL     1      -2.037  -0.888   1.709  0.00  0.00    -0.226 OA
ATOM      8  N   UNL     1      -2.964  -1.327  -0.395  0.00  0.00    -0.251 N 
ATOM     22  C   UNL     1      -1.992  -1.373   0.585  0.00  0.00    +0.405 C 
ATOM     34  H   UNL     1      -2.741  -1.791  -1.272  0.00  0.00    +0.158 HD
BRANCH   8  26
ATOM     26  C   UNL     1      -4.235  -0.712  -0.332  0.00  0.00    +0.036 A 
ATOM     27  C   UNL     1      -5.093  -0.768  -1.431  0.00  0.00    +0.024 A 
ATOM     28  C   UNL     1      -4.632  -0.049   0.830  0.00  0.00    +0.024 A 
ATOM     29  C   UNL     1      -6.346  -0.161  -1.368  0.00  0.00    +0.013 A 
ATOM     30  C   UNL     1      -5.886   0.559   0.892  0.00  0.00    +0.013 A 
ATOM     31  C   UNL     1      -6.743   0.503  -0.207  0.00  0.00    +0.017 A 
BRANCH  31  32
ATOM      4  O   UNL     1      -8.671   1.242   0.933  0.00  0.00    -0.292 OA
ATOM     32  C   UNL     1      -8.051   1.136  -0.143  0.00  0.00    +0.160 C 
ATOM     33  C   UNL     1      -8.699   1.691  -1.408  0.00  0.00    +0.091 C 
ENDBRANCH  31  32
ENDBRANCH   8  26
ENDBRANCH   2  22
ENDBRANCH  17   2
ENDBRANCH  11  17
TORSDOF 7
