REMARK  Name = 51137969
REMARK  7 active torsions:
REMARK  status: ('A' for Active; 'I' for Inactive)
REMARK    1  A    between atoms: N_4  and  C_21
REMARK    2  A    between atoms: C_5  and  C_6
REMARK    3  A    between atoms: C_6  and  C_12
REMARK    4  A    between atoms: C_8  and  C_16
REMARK    5  A    between atoms: C_12  and  C_17
REMARK    6  A    between atoms: C_12  and  C_18
REMARK    7  A    between atoms: C_21  and  C_22
REMARK                            x       y       z     vdW  Elec       q    Type
REMARK                         _______ _______ _______ _____ _____    ______ ____
ROOT
ATOM      2  N   UNL     1      -0.558  -0.150  -0.465  0.00  0.00    -0.299 NA
ATOM      3  N   UNL     1       4.059   1.884  -0.254  0.00  0.00    -0.360 N 
ATOM      5  C   UNL     1       0.281  -1.140   0.223  0.00  0.00    +0.085 C 
ATOM      7  C   UNL     1       1.783  -0.838   0.253  0.00  0.00    -0.021 A 
ATOM      8  C   UNL     1      -0.575   1.168   0.153  0.00  0.00    +0.145 C 
ATOM      9  C   UNL     1       2.370   0.433  -0.014  0.00  0.00    +0.008 A 
ATOM     10  C   UNL     1       0.412   2.117  -0.524  0.00  0.00    +0.065 C 
ATOM     11  C   UNL     1       1.842   1.728  -0.350  0.00  0.00    -0.020 A 
ATOM     13  C   UNL     1       3.760   0.579   0.060  0.00  0.00    +0.047 A 
ATOM     14  C   UNL     1       2.674  -1.868   0.648  0.00  0.00    +0.006 A 
ATOM     15  C   UNL     1       2.914   2.584  -0.497  0.00  0.00    +0.087 A 
ATOM     19  C   UNL     1       4.625  -0.460   0.407  0.00  0.00    +0.026 A 
ATOM     20  C   UNL     1       4.055  -1.688   0.713  0.00  0.00    +0.002 A 
ATOM     24  H   UNL     1      -0.316  -0.090  -1.453  0.00  0.00    +0.123 HD
ATOM     25  H   UNL     1       4.992   2.271  -0.284  0.00  0.00    +0.165 HD
ENDROOT
BRANCH   8  16
ATOM      1  O   UNL     1      -2.276   2.341  -1.041  0.00  0.00    -0.274 OA
ATOM      4  N   UNL     1      -2.810   1.342   0.993  0.00  0.00    -0.303 N 
ATOM     16  C   UNL     1      -1.968   1.681  -0.052  0.00  0.00    +0.231 C 
ATOM     26  H   UNL     1      -2.455   0.770   1.754  0.00  0.00    +0.150 HD
BRANCH   4  21
ATOM     21  C   UNL     1      -4.199   1.735   1.048  0.00  0.00    +0.193 C 
BRANCH  21  22
ATOM     22  C   UNL     1      -5.056   0.733   0.413  0.00  0.00    -0.087 C 
ATOM     23  C   UNL     1      -5.763  -0.086  -0.106  0.00  0.00    +0.005 C 
ENDBRANCH  21  22
ENDBRANCH   4  21
ENDBRANCH   8  16
BRANCH   5   6
ATOM      6  C   UNL     1      -0.039  -2.474  -0.475  0.00  0.00    +0.026 C 
BRANCH   6  12
ATOM     12  C   UNL     1      -1.383  -3.067  -0.043  0.00  0.00    -0.015 C 
ATOM     17  C   UNL     1      -1.589  -4.413  -0.742  0.00  0.00    +0.007 C 
ATOM     18  C   UNL     1      -2.561  -2.141  -0.348  0.00  0.00    +0.007 C 
ENDBRANCH   6  12
ENDBRANCH   5   6
TORSDOF 5
