REMARK  Name = 51138051
REMARK  9 active torsions:
REMARK  status: ('A' for Active; 'I' for Inactive)
REMARK    1  A    between atoms: N_3  and  C_19
REMARK    2  A    between atoms: N_4  and  C_24
REMARK    3  A    between atoms: C_6  and  C_10
REMARK    4  A    between atoms: C_9  and  C_18
REMARK    5  A    between atoms: C_10  and  C_14
REMARK    6  A    between atoms: C_14  and  C_21
REMARK    7  A    between atoms: C_14  and  C_22
REMARK    8  A    between atoms: C_19  and  C_23
REMARK    9  A    between atoms: C_24  and  C_29
REMARK                            x       y       z     vdW  Elec       q    Type
REMARK                         _______ _______ _______ _____ _____    ______ ____
ROOT
ATOM      2  N   UNL     1      -2.148  -0.157  -0.382  0.00  0.00    -0.299 NA
ATOM      3  N   UNL     1       2.612   0.857   0.966  0.00  0.00    -0.342 N 
ATOM      6  C   UNL     1      -1.661  -1.364   0.301  0.00  0.00    +0.085 C 
ATOM      7  C   UNL     1      -0.170  -1.380   0.650  0.00  0.00    -0.021 A 
ATOM      8  C   UNL     1       0.678  -0.235   0.681  0.00  0.00    +0.008 A 
ATOM      9  C   UNL     1      -2.056   1.065   0.404  0.00  0.00    +0.145 C 
ATOM     11  C   UNL     1       0.473   1.168   0.441  0.00  0.00    -0.020 A 
ATOM     12  C   UNL     1      -0.795   1.857   0.064  0.00  0.00    +0.065 C 
ATOM     13  C   UNL     1       2.025  -0.384   1.030  0.00  0.00    +0.050 A 
ATOM     15  C   UNL     1       1.688   1.798   0.619  0.00  0.00    +0.091 A 
ATOM     16  C   UNL     1       0.420  -2.606   1.052  0.00  0.00    +0.006 A 
ATOM     17  C   UNL     1       2.598  -1.608   1.378  0.00  0.00    +0.026 A 
ATOM     20  C   UNL     1       1.765  -2.720   1.396  0.00  0.00    +0.002 A 
ATOM     31  H   UNL     1      -1.698  -0.046  -1.290  0.00  0.00    +0.123 HD
ENDROOT
BRANCH   9  18
ATOM      1  O   UNL     1      -3.232   2.678  -0.903  0.00  0.00    -0.274 OA
ATOM      4  N   UNL     1      -4.349   1.603   0.833  0.00  0.00    -0.303 N 
ATOM     18  C   UNL     1      -3.260   1.870   0.021  0.00  0.00    +0.231 C 
ATOM     32  H   UNL     1      -4.269   0.894   1.557  0.00  0.00    +0.150 HD
BRANCH   4  24
ATOM     24  C   UNL     1      -5.626   2.263   0.686  0.00  0.00    +0.193 C 
BRANCH  24  29
ATOM     29  C   UNL     1      -6.496   1.530  -0.232  0.00  0.00    -0.087 C 
ATOM     30  C   UNL     1      -7.214   0.930  -0.986  0.00  0.00    +0.005 C 
ENDBRANCH  24  29
ENDBRANCH   4  24
ENDBRANCH   9  18
BRANCH   6  10
ATOM     10  C   UNL     1      -2.063  -2.524  -0.627  0.00  0.00    +0.026 C 
BRANCH  10  14
ATOM     14  C   UNL     1      -3.552  -2.873  -0.540  0.00  0.00    -0.015 C 
ATOM     21  C   UNL     1      -4.455  -1.699  -0.922  0.00  0.00    +0.007 C 
ATOM     22  C   UNL     1      -3.845  -4.068  -1.450  0.00  0.00    +0.007 C 
ENDBRANCH  10  14
ENDBRANCH   6  10
BRANCH   3  19
ATOM     19  C   UNL     1       4.003   1.147   1.242  0.00  0.00    +0.157 C 
BRANCH  19  23
ATOM      5  N   UNL     1       6.634   0.151  -2.015  0.00  0.00    -0.263 NA
ATOM     23  C   UNL     1       4.925   0.797   0.101  0.00  0.00    -0.025 A 
ATOM     25  C   UNL     1       5.981  -0.085   0.301  0.00  0.00    +0.025 A 
ATOM     26  C   UNL     1       4.722   1.356  -1.157  0.00  0.00    +0.025 A 
ATOM     27  C   UNL     1       6.800  -0.373  -0.780  0.00  0.00    +0.111 A 
ATOM     28  C   UNL     1       5.596   1.004  -2.172  0.00  0.00    +0.111 A 
ENDBRANCH  19  23
ENDBRANCH   3  19
TORSDOF 7
