REMARK  Name = 75536634
REMARK  8 active torsions:
REMARK  status: ('A' for Active; 'I' for Inactive)
REMARK    1  A    between atoms: O_3  and  C_8
REMARK    2  A    between atoms: N_5  and  C_7
REMARK    3  A    between atoms: N_5  and  C_12
REMARK    4  A    between atoms: N_6  and  C_11
REMARK    5  A    between atoms: C_9  and  C_11
REMARK    6  A    between atoms: C_12  and  C_13
REMARK    7  A    between atoms: C_12  and  C_14
REMARK    8  A    between atoms: C_15  and  C_16
REMARK                            x       y       z     vdW  Elec       q    Type
REMARK                         _______ _______ _______ _____ _____    ______ ____
ROOT
ATOM      2  O   UNL     1      -1.372  -0.975   0.426  0.00  0.00    -0.371 OA
ATOM      7  C   UNL     1      -3.525  -0.132  -0.116  0.00  0.00    +0.111 C 
ATOM      8  C   UNL     1      -2.693   0.986   0.485  0.00  0.00    +0.164 C 
ATOM      9  C   UNL     1      -1.284   0.451   0.269  0.00  0.00    +0.165 C 
ATOM     10  C   UNL     1      -2.755  -1.360   0.342  0.00  0.00    +0.181 C 
ENDROOT
BRANCH   8   3
ATOM      3  O   UNL     1      -2.893   2.226  -0.166  0.00  0.00    -0.388 OA
ATOM     23  H   UNL     1      -2.701   2.108  -1.112  0.00  0.00    +0.210 HD
ENDBRANCH   8   3
BRANCH   7   5
ATOM      5  N   UNL     1      -4.909  -0.133   0.330  0.00  0.00    -0.307 NA
ATOM     22  H   UNL     1      -5.280   0.816   0.325  0.00  0.00    +0.123 HD
BRANCH   5  12
ATOM     12  C   UNL     1      -5.732  -0.992  -0.513  0.00  0.00    +0.048 C 
ATOM     13  C   UNL     1      -6.989  -1.399   0.249  0.00  0.00    +0.023 C 
ATOM     14  C   UNL     1      -6.086  -0.275  -1.813  0.00  0.00    +0.023 C 
ENDBRANCH   5  12
ENDBRANCH   7   5
BRANCH   9  11
ATOM     11  C   UNL     1      -0.271   1.015   1.249  0.00  0.00    +0.138 C 
BRANCH  11   6
ATOM      4  O   UNL     1       1.736   2.110  -0.488  0.00  0.00    -0.270 OA
ATOM      6  N   UNL     1       1.039   0.481   1.010  0.00  0.00    -0.309 N 
ATOM     15  C   UNL     1       1.951   1.081   0.148  0.00  0.00    +0.244 C 
ATOM     24  H   UNL     1       1.255  -0.407   1.450  0.00  0.00    +0.149 HD
BRANCH  15  16
ATOM      1  F   UNL     1       6.886  -1.530  -0.452  0.00  0.00    -0.205 F 
ATOM     16  C   UNL     1       3.257   0.390  -0.011  0.00  0.00    +0.037 A 
ATOM     17  C   UNL     1       3.986   0.539  -1.191  0.00  0.00    +0.016 A 
ATOM     18  C   UNL     1       3.753  -0.409   1.019  0.00  0.00    +0.016 A 
ATOM     19  C   UNL     1       5.212  -0.109  -1.340  0.00  0.00    +0.039 A 
ATOM     20  C   UNL     1       4.979  -1.057   0.870  0.00  0.00    +0.039 A 
ATOM     21  C   UNL     1       5.708  -0.908  -0.309  0.00  0.00    +0.123 A 
ENDBRANCH  15  16
ENDBRANCH  11   6
ENDBRANCH   9  11
TORSDOF 6
