REMARK  Name = 38029166
REMARK  14 active torsions:
REMARK  status: ('A' for Active; 'I' for Inactive)
REMARK    1  A    between atoms: O_3  and  C_31
REMARK    2  A    between atoms: O_3  and  C_35
REMARK    3  A    between atoms: N_4  and  C_15
REMARK    4  A    between atoms: N_5  and  C_22
REMARK    5  A    between atoms: N_5  and  C_23
REMARK    6  A    between atoms: N_6  and  C_25
REMARK    7  A    between atoms: C_8  and  C_12
REMARK    8  A    between atoms: C_9  and  C_15
REMARK    9  A    between atoms: C_11  and  C_16
REMARK   10  A    between atoms: C_12  and  C_17
REMARK   11  A    between atoms: C_12  and  C_18
REMARK   12  A    between atoms: C_13  and  C_19
REMARK   13  A    between atoms: C_16  and  C_20
REMARK   14  A    between atoms: C_22  and  C_24
REMARK                            x       y       z     vdW  Elec       q    Type
REMARK                         _______ _______ _______ _____ _____    ______ ____
ROOT
ATOM      8  C   UNL     1      -3.046  -1.212   0.748  0.00  0.00    +0.000 C 
ATOM      9  C   UNL     1      -3.366  -2.335  -0.271  0.00  0.00    +0.032 C 
ATOM     10  C   UNL     1      -3.900   0.032   0.461  0.00  0.00    +0.012 C 
ATOM     11  C   UNL     1      -3.671   0.581  -0.960  0.00  0.00    +0.023 C 
ATOM     13  C   UNL     1      -3.706  -0.519  -2.002  0.00  0.00    -0.073 C 
ATOM     14  C   UNL     1      -3.582  -1.817  -1.673  0.00  0.00    -0.022 C 
ATOM     19  C   UNL     1      -3.933  -0.096  -3.426  0.00  0.00    +0.039 C 
ENDROOT
BRANCH   8  12
ATOM     12  C   UNL     1      -3.269  -1.673   2.191  0.00  0.00    -0.013 C 
ATOM     17  C   UNL     1      -2.421  -0.844   3.151  0.00  0.00    +0.007 C 
ATOM     18  C   UNL     1      -4.747  -1.581   2.557  0.00  0.00    +0.007 C 
ENDBRANCH   8  12
BRANCH   9  15
ATOM     15  C   UNL     1      -2.265  -3.401  -0.283  0.00  0.00    +0.113 C 
BRANCH  15   4
ATOM      2  O   UNL     1       0.225  -3.263   1.125  0.00  0.00    -0.253 OA
ATOM      4  N   UNL     1      -1.037  -2.856  -0.771  0.00  0.00    -0.299 N 
ATOM      6  N   UNL     1       1.186  -2.232  -0.753  0.00  0.00    -0.269 N 
ATOM     21  C   UNL     1       0.152  -2.822  -0.019  0.00  0.00    +0.304 C 
ATOM     36  H   UNL     1      -0.998  -2.535  -1.733  0.00  0.00    +0.150 HD
ATOM     37  H   UNL     1       0.956  -1.916  -1.692  0.00  0.00    +0.156 HD
BRANCH   6  25
ATOM     25  C   UNL     1       2.524  -2.016  -0.348  0.00  0.00    +0.038 A 
ATOM     28  C   UNL     1       3.427  -1.408  -1.220  0.00  0.00    +0.069 A 
ATOM     29  C   UNL     1       2.941  -2.412   0.923  0.00  0.00    +0.023 A 
ATOM     31  C   UNL     1       4.747  -1.195  -0.820  0.00  0.00    +0.122 A 
ATOM     33  C   UNL     1       4.260  -2.200   1.323  0.00  0.00    +0.005 A 
ATOM     34  C   UNL     1       5.163  -1.591   0.451  0.00  0.00    +0.046 A 
BRANCH  31   3
ATOM      3  O   UNL     1       5.628  -0.603  -1.672  0.00  0.00    -0.495 OA
ATOM     35  C   UNL     1       6.961  -0.416  -1.200  0.00  0.00    +0.277 C 
ENDBRANCH  31   3
ENDBRANCH   6  25
ENDBRANCH  15   4
ENDBRANCH   9  15
BRANCH  11  16
ATOM     16  C   UNL     1      -2.361   1.372  -1.042  0.00  0.00    +0.103 C 
BRANCH  16  20
ATOM      1  O   UNL     1      -3.519   3.094   0.159  0.00  0.00    -0.276 OA
ATOM      5  N   UNL     1      -1.310   3.516  -0.406  0.00  0.00    -0.300 N 
ATOM     20  C   UNL     1      -2.467   2.730  -0.373  0.00  0.00    +0.216 C 
ATOM     23  C   UNL     1      -1.249   4.844   0.192  0.00  0.00    +0.132 C 
BRANCH   5  22
ATOM     22  C   UNL     1      -0.074   3.064  -1.041  0.00  0.00    +0.144 C 
BRANCH  22  24
ATOM      7  N   UNL     1       3.273   3.644   0.620  0.00  0.00    -0.263 NA
ATOM     24  C   UNL     1       1.057   2.958  -0.059  0.00  0.00    -0.012 A 
ATOM     26  C   UNL     1       0.971   2.115   1.044  0.00  0.00    +0.008 A 
ATOM     27  C   UNL     1       2.219   3.694  -0.224  0.00  0.00    +0.115 A 
ATOM     30  C   UNL     1       2.036   2.037   1.936  0.00  0.00    +0.020 A 
ATOM     32  C   UNL     1       3.154   2.814   1.681  0.00  0.00    +0.111 A 
ENDBRANCH  22  24
ENDBRANCH   5  22
ENDBRANCH  16  20
ENDBRANCH  11  16
TORSDOF 9
