REMARK  Name = 9421208
REMARK  12 active torsions:
REMARK  status: ('A' for Active; 'I' for Inactive)
REMARK    1  A    between atoms: O_4  and  C_28
REMARK    2  A    between atoms: O_6  and  C_36
REMARK    3  A    between atoms: O_6  and  C_37
REMARK    4  A    between atoms: N_8  and  C_10
REMARK    5  A    between atoms: C_16  and  C_17
REMARK    6  A    between atoms: C_16  and  C_21
REMARK    7  A    between atoms: C_16  and  C_22
REMARK    8  A    between atoms: C_16  and  C_23
REMARK    9  A    between atoms: C_17  and  C_18
REMARK   10  A    between atoms: C_21  and  C_28
REMARK   11  A    between atoms: C_26  and  C_29
REMARK   12  A    between atoms: C_30  and  C_31
REMARK                            x       y       z     vdW  Elec       q    Type
REMARK                         _______ _______ _______ _____ _____    ______ ____
ROOT
ATOM      1  O   UNL     1      -2.980   3.045   0.292  0.00  0.00    -0.273 OA
ATOM      2  O   UNL     1       0.061  -1.229  -0.601  0.00  0.00    -0.270 OA
ATOM      7  N   UNL     1      -1.308   0.537  -1.140  0.00  0.00    -0.284 N 
ATOM      9  N   UNL     1      -0.868   2.551   0.971  0.00  0.00    -0.283 N 
ATOM     10  C   UNL     1      -3.437   0.686  -2.164  0.00  0.00    +0.092 C 
ATOM     11  C   UNL     1      -1.556   1.953  -1.317  0.00  0.00    +0.164 C 
ATOM     12  C   UNL     1      -2.705   2.021  -2.329  0.00  0.00    +0.055 C 
ATOM     13  C   UNL     1      -2.306  -0.276  -1.827  0.00  0.00    +0.131 C 
ATOM     14  C   UNL     1      -1.891   2.522   0.049  0.00  0.00    +0.238 C 
ATOM     15  C   UNL     1      -0.180  -0.021  -0.579  0.00  0.00    +0.249 C 
ATOM     19  C   UNL     1       0.786   0.877   0.104  0.00  0.00    +0.059 A 
ATOM     20  C   UNL     1       0.425   1.992   0.877  0.00  0.00    +0.046 A 
ATOM     24  C   UNL     1       2.128   0.452   0.090  0.00  0.00    +0.022 A 
ATOM     25  C   UNL     1       1.407   2.614   1.670  0.00  0.00    +0.024 A 
ATOM     26  C   UNL     1       3.097   1.110   0.846  0.00  0.00    -0.024 A 
ATOM     27  C   UNL     1       2.733   2.184   1.647  0.00  0.00    +0.010 A 
ATOM     39  H   UNL     1      -1.039   3.134   1.788  0.00  0.00    +0.155 HD
ENDROOT
BRANCH  10   8
ATOM      3  O   UNL     1      -5.832  -0.899  -1.967  0.00  0.00    -0.276 OA
ATOM      8  N   UNL     1      -4.423   0.736  -1.113  0.00  0.00    -0.311 N 
ATOM     18  C   UNL     1      -5.550  -0.071  -1.104  0.00  0.00    +0.214 C 
ATOM     38  H   UNL     1      -4.257   1.356  -0.326  0.00  0.00    +0.149 HD
BRANCH  18  17
ATOM     17  C   UNL     1      -6.440   0.157   0.108  0.00  0.00    +0.102 C 
BRANCH  17  16
ATOM     16  C   UNL     1      -6.162  -0.786   1.307  0.00  0.00    -0.017 C 
ATOM     22  C   UNL     1      -4.710  -0.614   1.801  0.00  0.00    +0.012 C 
ATOM     23  C   UNL     1      -7.095  -0.371   2.464  0.00  0.00    +0.012 C 
BRANCH  16  21
ATOM     21  C   UNL     1      -6.374  -2.279   0.960  0.00  0.00    +0.127 C 
BRANCH  21  28
ATOM      5  O   UNL     1      -8.105  -2.530  -0.716  0.00  0.00    -0.251 OA
ATOM     28  C   UNL     1      -7.759  -2.622   0.455  0.00  0.00    +0.305 C 
BRANCH  28   4
ATOM      4  O   UNL     1      -8.591  -3.041   1.441  0.00  0.00    -0.481 OA
ATOM     40  H   UNL     1      -9.485  -3.255   1.100  0.00  0.00    +0.295 HD
ENDBRANCH  28   4
ENDBRANCH  21  28
ENDBRANCH  16  21
ENDBRANCH  17  16
ENDBRANCH  18  17
ENDBRANCH  10   8
BRANCH  26  29
ATOM     29  C   UNL     1       4.479   0.658   0.816  0.00  0.00    +0.008 C 
ATOM     30  C   UNL     1       5.034  -0.090  -0.167  0.00  0.00    +0.008 C 
BRANCH  30  31
ATOM     31  C   UNL     1       6.439  -0.533  -0.207  0.00  0.00    -0.025 A 
ATOM     32  C   UNL     1       7.195  -0.560   0.965  0.00  0.00    +0.011 A 
ATOM     33  C   UNL     1       7.012  -0.924  -1.416  0.00  0.00    +0.011 A 
ATOM     34  C   UNL     1       8.525  -0.978   0.927  0.00  0.00    +0.046 A 
ATOM     35  C   UNL     1       8.342  -1.343  -1.454  0.00  0.00    +0.046 A 
ATOM     36  C   UNL     1       9.099  -1.370  -0.283  0.00  0.00    +0.120 A 
BRANCH  36   6
ATOM      6  O   UNL     1      10.397  -1.779  -0.320  0.00  0.00    -0.495 OA
ATOM     37  C   UNL     1      11.112  -1.782   0.915  0.00  0.00    +0.277 C 
ENDBRANCH  36   6
ENDBRANCH  30  31
ENDBRANCH  26  29
TORSDOF 9
