REMARK  Name = 40779638
REMARK  7 active torsions:
REMARK  status: ('A' for Active; 'I' for Inactive)
REMARK    1  A    between atoms: O_2  and  C_20
REMARK    2  A    between atoms: O_2  and  C_21
REMARK    3  A    between atoms: N_4  and  C_13
REMARK    4  A    between atoms: N_5  and  C_14
REMARK    5  A    between atoms: C_7  and  C_13
REMARK    6  A    between atoms: C_9  and  C_14
REMARK    7  A    between atoms: C_19  and  C_20
REMARK                            x       y       z     vdW  Elec       q    Type
REMARK                         _______ _______ _______ _____ _____    ______ ____
ROOT
ATOM      3  N   UNL     1      -0.139  -1.622  -1.139  0.00  0.00    -0.298 NA
ATOM      6  C   UNL     1      -0.893  -1.542   1.349  0.00  0.00    -0.003 C 
ATOM      7  C   UNL     1      -1.983  -0.957   0.423  0.00  0.00    +0.020 C 
ATOM      8  C   UNL     1       0.421  -0.767   1.143  0.00  0.00    +0.024 C 
ATOM      9  C   UNL     1       0.906  -0.962  -0.311  0.00  0.00    +0.074 C 
ATOM     10  C   UNL     1      -1.427  -0.897  -1.017  0.00  0.00    +0.089 C 
ATOM     11  C   UNL     1      -0.645  -2.992   0.888  0.00  0.00    +0.019 C 
ATOM     12  C   UNL     1      -0.333  -2.998  -0.619  0.00  0.00    +0.085 C 
ENDROOT
BRANCH   7  13
ATOM     13  C   UNL     1      -2.499   0.404   0.886  0.00  0.00    +0.089 C 
BRANCH  13   4
ATOM      4  N   UNL     1      -3.585   0.865   0.034  0.00  0.00    -0.302 NA
ATOM     15  C   UNL     1      -4.859   0.225   0.359  0.00  0.00    +0.084 C 
ATOM     16  C   UNL     1      -3.833   2.299   0.173  0.00  0.00    +0.084 C 
ATOM     17  C   UNL     1      -5.875   1.110  -0.348  0.00  0.00    +0.017 C 
ATOM     18  C   UNL     1      -5.200   2.472  -0.474  0.00  0.00    +0.017 C 
ENDBRANCH  13   4
ENDBRANCH   7  13
BRANCH   9  14
ATOM     14  C   UNL     1       1.397   0.350  -0.928  0.00  0.00    +0.123 C 
BRANCH  14   5
ATOM      1  O   UNL     1       4.204  -0.187  -1.374  0.00  0.00    -0.273 OA
ATOM      5  N   UNL     1       2.522   0.882  -0.178  0.00  0.00    -0.312 N 
ATOM     19  C   UNL     1       3.833   0.561  -0.474  0.00  0.00    +0.239 C 
ATOM     22  H   UNL     1       2.323   1.512   0.594  0.00  0.00    +0.149 HD
BRANCH  19  20
ATOM     20  C   UNL     1       4.797   1.257   0.463  0.00  0.00    +0.255 C 
BRANCH  20   2
ATOM      2  O   UNL     1       6.131   0.928   0.139  0.00  0.00    -0.374 OA
ATOM     21  C   UNL     1       7.062   1.570   1.006  0.00  0.00    +0.194 C 
ENDBRANCH  20   2
ENDBRANCH  19  20
ENDBRANCH  14   5
ENDBRANCH   9  14
TORSDOF 6
