REMARK  Name = 11912117
REMARK  3 active torsions:
REMARK  status: ('A' for Active; 'I' for Inactive)
REMARK    1  A    between atoms: N_7  and  C_18
REMARK    2  A    between atoms: N_8  and  C_26
REMARK    3  A    between atoms: N_9  and  C_29
REMARK                            x       y       z     vdW  Elec       q    Type
REMARK                         _______ _______ _______ _____ _____    ______ ____
ROOT
ATOM      2  O   UNL     1      -2.989  -0.765  -2.261  0.00  0.00    -0.253 OA
ATOM      3  O   UNL     1       0.176   1.198   2.502  0.00  0.00    -0.266 OA
ATOM      5  N   UNL     1      -3.628   0.938  -0.817  0.00  0.00    -0.285 N 
ATOM      6  N   UNL     1      -1.103   2.140   0.788  0.00  0.00    -0.310 N 
ATOM      7  N   UNL     1      -3.884  -1.339  -0.228  0.00  0.00    -0.296 N 
ATOM     10  C   UNL     1      -3.600   2.636   1.035  0.00  0.00    +0.027 C 
ATOM     11  C   UNL     1      -2.465   3.131  -1.084  0.00  0.00    +0.054 C 
ATOM     12  C   UNL     1      -3.349   3.729   0.006  0.00  0.00    +0.018 C 
ATOM     13  C   UNL     1      -4.304   1.424   0.396  0.00  0.00    +0.114 C 
ATOM     14  C   UNL     1      -3.216   1.977  -1.769  0.00  0.00    +0.119 C 
ATOM     15  C   UNL     1      -2.264   2.248   1.680  0.00  0.00    +0.130 C 
ATOM     16  C   UNL     1      -1.149   2.630  -0.520  0.00  0.00    +0.027 A 
ATOM     17  C   UNL     1      -3.465  -0.413  -1.177  0.00  0.00    +0.302 C 
ATOM     19  C   UNL     1      -0.042   2.631  -1.281  0.00  0.00    +0.024 A 
ATOM     20  C   UNL     1       0.082   1.622   1.350  0.00  0.00    +0.273 A 
ATOM     26  C   UNL     1       1.287   1.617   0.461  0.00  0.00    +0.100 A 
ATOM     27  C   UNL     1       1.199   2.111  -0.778  0.00  0.00    +0.030 A 
ATOM     35  H   UNL     1      -4.405  -1.047   0.585  0.00  0.00    +0.151 HD
ENDROOT
BRANCH  26   8
ATOM      4  O   UNL     1       3.349   0.356  -1.039  0.00  0.00    -0.252 OA
ATOM      8  N   UNL     1       2.450   1.110   0.962  0.00  0.00    -0.265 N 
ATOM      9  N   UNL     1       4.503   0.084   0.987  0.00  0.00    -0.269 N 
ATOM     28  C   UNL     1       3.437   0.496   0.179  0.00  0.00    +0.308 C 
ATOM     36  H   UNL     1       2.489   0.952   1.965  0.00  0.00    +0.157 HD
ATOM     37  H   UNL     1       4.421   0.280   1.982  0.00  0.00    +0.156 HD
BRANCH   9  29
ATOM      1  F   UNL     1       7.260  -1.813  -2.432  0.00  0.00    -0.205 F 
ATOM     29  C   UNL     1       5.691  -0.572   0.589  0.00  0.00    +0.037 A 
ATOM     30  C   UNL     1       5.886  -0.871  -0.749  0.00  0.00    +0.061 A 
ATOM     31  C   UNL     1       6.637  -0.901   1.547  0.00  0.00    +0.023 A 
ATOM     32  C   UNL     1       7.058  -1.517  -1.142  0.00  0.00    +0.125 A 
ATOM     33  C   UNL     1       7.809  -1.547   1.154  0.00  0.00    +0.005 A 
ATOM     34  C   UNL     1       8.020  -1.855  -0.190  0.00  0.00    +0.038 A 
ENDBRANCH   9  29
ENDBRANCH  26   8
BRANCH   7  18
ATOM     18  C   UNL     1      -3.789  -2.765  -0.450  0.00  0.00    +0.074 C 
ATOM     21  C   UNL     1      -5.039  -3.297  -1.159  0.00  0.00    +0.022 C 
ATOM     22  C   UNL     1      -3.536  -3.511   0.865  0.00  0.00    +0.022 C 
ATOM     23  C   UNL     1      -6.266  -3.314  -0.246  0.00  0.00    +0.002 C 
ATOM     24  C   UNL     1      -4.765  -3.528   1.774  0.00  0.00    +0.002 C 
ATOM     25  C   UNL     1      -5.993  -4.071   1.050  0.00  0.00    +0.000 C 
ENDBRANCH   7  18
TORSDOF 3
