REMARK  Name = 75536860
REMARK  4 active torsions:
REMARK  status: ('A' for Active; 'I' for Inactive)
REMARK    1  A    between atoms: O_2  and  C_11
REMARK    2  A    between atoms: O_2  and  C_14
REMARK    3  A    between atoms: N_3  and  C_5
REMARK    4  A    between atoms: C_16  and  C_19
REMARK                            x       y       z     vdW  Elec       q    Type
REMARK                         _______ _______ _______ _____ _____    ______ ____
ROOT
ATOM      1  O   UNL     1       1.653   2.919  -0.229  0.00  0.00    -0.375 OA
ATOM      3  N   UNL     1       2.267   0.010   0.075  0.00  0.00    -0.294 NA
ATOM      9  C   UNL     1       0.882   0.257   0.502  0.00  0.00    +0.131 C 
ATOM     10  C   UNL     1       3.149   1.109   0.506  0.00  0.00    +0.113 C 
ATOM     11  C   UNL     1       0.062   1.076  -0.500  0.00  0.00    +0.215 C 
ATOM     12  C   UNL     1       2.974   2.390  -0.305  0.00  0.00    +0.175 C 
ATOM     13  C   UNL     1       0.756   2.278  -1.132  0.00  0.00    +0.205 C 
ENDROOT
BRANCH   3   5
ATOM      5  C   UNL     1       2.741  -1.234   0.717  0.00  0.00    +0.057 C 
ATOM      6  C   UNL     1       3.951  -1.783  -0.070  0.00  0.00    +0.019 C 
ATOM      7  C   UNL     1       1.935  -2.430   0.168  0.00  0.00    +0.019 C 
ATOM      8  C   UNL     1       3.285  -3.173   0.047  0.00  0.00    +0.003 C 
ENDBRANCH   3   5
BRANCH  11   2
ATOM      2  O   UNL     1      -1.098   1.562   0.186  0.00  0.00    -0.469 OA
BRANCH   2  14
ATOM      4  N   UNL     1      -2.066  -0.445  -0.446  0.00  0.00    -0.218 NA
ATOM     14  C   UNL     1      -2.188   0.740   0.193  0.00  0.00    +0.215 A 
ATOM     15  C   UNL     1      -3.340   1.157   0.841  0.00  0.00    +0.067 A 
ATOM     16  C   UNL     1      -3.153  -1.250  -0.433  0.00  0.00    +0.042 A 
ATOM     17  C   UNL     1      -4.437   0.302   0.833  0.00  0.00    +0.007 A 
ATOM     18  C   UNL     1      -4.350  -0.926   0.186  0.00  0.00    +0.023 A 
ATOM     19  C   UNL     1      -3.025  -2.558  -1.139  0.00  0.00    +0.066 C 
ENDBRANCH   2  14
ENDBRANCH  11   2
TORSDOF 3
