REMARK  Name = 11912995
REMARK  5 active torsions:
REMARK  status: ('A' for Active; 'I' for Inactive)
REMARK    1  A    between atoms: N_4  and  C_10
REMARK    2  A    between atoms: N_5  and  C_11
REMARK    3  A    between atoms: C_12  and  C_17
REMARK    4  A    between atoms: C_19  and  C_22
REMARK    5  A    between atoms: C_27  and  C_28
REMARK                            x       y       z     vdW  Elec       q    Type
REMARK                         _______ _______ _______ _____ _____    ______ ____
ROOT
ATOM      5  N   UNL     1       2.050  -2.615   0.541  0.00  0.00    -0.306 N 
ATOM      6  N   UNL     1      -0.146  -2.029  -0.043  0.00  0.00    -0.214 NA
ATOM      7  N   UNL     1       0.996  -3.829  -1.168  0.00  0.00    -0.223 NA
ATOM     18  C   UNL     1       0.933  -2.831  -0.247  0.00  0.00    +0.216 A 
ATOM     19  C   UNL     1      -1.217  -2.268  -0.829  0.00  0.00    +0.076 A 
ATOM     20  C   UNL     1      -0.110  -4.012  -1.919  0.00  0.00    +0.116 A 
ATOM     21  C   UNL     1      -1.256  -3.255  -1.793  0.00  0.00    +0.048 A 
ATOM     35  H   UNL     1       2.866  -3.183   0.345  0.00  0.00    +0.149 HD
ENDROOT
BRANCH   5  11
ATOM      1  O   UNL     1       2.131   0.822   1.772  0.00  0.00    -0.370 OA
ATOM      2  O   UNL     1       4.442  -1.266   1.968  0.00  0.00    -0.370 OA
ATOM      8  C   UNL     1       4.055  -0.317   0.960  0.00  0.00    +0.171 C 
ATOM      9  C   UNL     1       2.540  -0.275   0.937  0.00  0.00    +0.171 C 
ATOM     10  C   UNL     1       4.456   1.081   1.372  0.00  0.00    +0.130 C 
ATOM     11  C   UNL     1       2.125  -1.588   1.558  0.00  0.00    +0.130 C 
ATOM     13  C   UNL     1       3.297   1.503   2.257  0.00  0.00    +0.185 C 
ATOM     14  C   UNL     1       3.266  -1.880   2.515  0.00  0.00    +0.185 C 
BRANCH  10   4
ATOM      3  O   UNL     1       6.872   1.716  -0.118  0.00  0.00    -0.276 OA
ATOM      4  N   UNL     1       4.580   1.948   0.225  0.00  0.00    -0.307 N 
ATOM     17  C   UNL     1       5.782   2.188  -0.418  0.00  0.00    +0.216 C 
ATOM     34  H   UNL     1       3.735   2.376  -0.141  0.00  0.00    +0.149 HD
BRANCH  17  12
ATOM     12  C   UNL     1       5.676   3.116  -1.582  0.00  0.00    +0.075 C 
ATOM     15  C   UNL     1       4.706   2.787  -2.665  0.00  0.00    +0.013 C 
ATOM     16  C   UNL     1       6.181   2.653  -2.906  0.00  0.00    +0.013 C 
ENDBRANCH  17  12
ENDBRANCH  10   4
ENDBRANCH   5  11
BRANCH  19  22
ATOM     22  C   UNL     1      -2.351  -1.406  -0.597  0.00  0.00    +0.001 A 
ATOM     23  C   UNL     1      -3.647  -1.874  -0.828  0.00  0.00    +0.010 A 
ATOM     24  C   UNL     1      -2.157  -0.100  -0.141  0.00  0.00    +0.010 A 
ATOM     25  C   UNL     1      -4.742  -1.040  -0.605  0.00  0.00    +0.009 A 
ATOM     26  C   UNL     1      -3.252   0.734   0.082  0.00  0.00    +0.009 A 
ATOM     27  C   UNL     1      -4.545   0.264  -0.150  0.00  0.00    -0.018 A 
BRANCH  27  28
ATOM     28  C   UNL     1      -5.682   1.129   0.082  0.00  0.00    -0.018 A 
ATOM     29  C   UNL     1      -6.166   1.934  -0.949  0.00  0.00    +0.008 A 
ATOM     30  C   UNL     1      -6.294   1.157   1.335  0.00  0.00    +0.008 A 
ATOM     31  C   UNL     1      -7.262   2.768  -0.727  0.00  0.00    +0.001 A 
ATOM     32  C   UNL     1      -7.390   1.990   1.557  0.00  0.00    +0.001 A 
ATOM     33  C   UNL     1      -7.874   2.796   0.526  0.00  0.00    +0.000 A 
ENDBRANCH  27  28
ENDBRANCH  19  22
TORSDOF 5
