REMARK  Name = 45784234
REMARK  3 active torsions:
REMARK  status: ('A' for Active; 'I' for Inactive)
REMARK    1  A    between atoms: N_2  and  C_6
REMARK    2  A    between atoms: N_3  and  C_16
REMARK    3  A    between atoms: C_7  and  C_15
REMARK                            x       y       z     vdW  Elec       q    Type
REMARK                         _______ _______ _______ _____ _____    ______ ____
ROOT
ATOM      2  N   UNL     1      -2.139  -0.915  -0.275  0.00  0.00    -0.299 NA
ATOM      7  C   UNL     1       0.155  -1.204  -0.664  0.00  0.00    +0.070 C 
ATOM      8  C   UNL     1      -0.950  -0.140  -0.634  0.00  0.00    +0.096 C 
ATOM      9  C   UNL     1      -1.694  -1.818   0.787  0.00  0.00    +0.085 C 
ATOM     10  C   UNL     1      -0.354  -2.320   0.265  0.00  0.00    +0.028 C 
ENDROOT
BRANCH   7  15
ATOM      1  F   UNL     1       7.097   0.927  -0.470  0.00  0.00    -0.205 F 
ATOM      4  N   UNL     1       2.561  -0.713  -1.184  0.00  0.00    -0.341 N 
ATOM      5  N   UNL     1       1.857  -0.075   0.825  0.00  0.00    -0.232 NA
ATOM     15  C   UNL     1       1.515  -0.652  -0.305  0.00  0.00    +0.113 A 
ATOM     17  C   UNL     1       3.649  -0.138  -0.581  0.00  0.00    +0.069 A 
ATOM     18  C   UNL     1       3.184   0.253   0.672  0.00  0.00    +0.089 A 
ATOM     19  C   UNL     1       4.961   0.069  -1.010  0.00  0.00    +0.066 A 
ATOM     20  C   UNL     1       4.066   0.888   1.562  0.00  0.00    +0.032 A 
ATOM     21  C   UNL     1       5.825   0.703  -0.111  0.00  0.00    +0.125 A 
ATOM     22  C   UNL     1       5.388   1.106   1.153  0.00  0.00    +0.040 A 
ATOM     23  H   UNL     1       2.539  -1.111  -2.114  0.00  0.00    +0.167 HD
ENDBRANCH   7  15
BRANCH   2   6
ATOM      3  N   UNL     1      -6.013   0.834  -0.212  0.00  0.00    -0.305 NA
ATOM      6  C   UNL     1      -3.251  -0.066   0.147  0.00  0.00    +0.059 C 
ATOM     11  C   UNL     1      -4.450  -0.926   0.554  0.00  0.00    +0.034 C 
ATOM     12  C   UNL     1      -3.657   0.900  -0.970  0.00  0.00    +0.034 C 
ATOM     13  C   UNL     1      -5.658  -0.053   0.904  0.00  0.00    +0.085 C 
ATOM     14  C   UNL     1      -4.891   1.714  -0.570  0.00  0.00    +0.085 C 
ATOM     16  C   UNL     1      -7.198   1.624   0.118  0.00  0.00    +0.104 C 
ENDBRANCH   2   6
TORSDOF 2
