REMARK  Name = 7113949
REMARK  6 active torsions:
REMARK  status: ('A' for Active; 'I' for Inactive)
REMARK    1  A    between atoms: S_2  and  N_11
REMARK    2  A    between atoms: S_2  and  C_25
REMARK    3  A    between atoms: O_7  and  C_32
REMARK    4  A    between atoms: O_7  and  C_36
REMARK    5  A    between atoms: N_10  and  C_24
REMARK    6  A    between atoms: N_11  and  C_22
REMARK                            x       y       z     vdW  Elec       q    Type
REMARK                         _______ _______ _______ _____ _____    ______ ____
ROOT
ATOM      3  O   UNL     1      -1.231   2.656   1.893  0.00  0.00    -0.266 OA
ATOM      4  O   UNL     1      -2.937  -2.299   1.534  0.00  0.00    -0.252 OA
ATOM      8  N   UNL     1      -3.892  -1.066  -0.175  0.00  0.00    -0.284 N 
ATOM      9  N   UNL     1      -2.614   1.837   0.188  0.00  0.00    -0.310 N 
ATOM     10  N   UNL     1      -2.047  -2.475  -0.600  0.00  0.00    -0.269 N 
ATOM     12  C   UNL     1      -5.008   1.035   0.596  0.00  0.00    +0.027 C 
ATOM     13  C   UNL     1      -4.056   0.923  -1.667  0.00  0.00    +0.054 C 
ATOM     14  C   UNL     1      -5.244   1.433  -0.855  0.00  0.00    +0.018 C 
ATOM     15  C   UNL     1      -4.901  -0.494   0.722  0.00  0.00    +0.114 C 
ATOM     16  C   UNL     1      -3.752   1.746   1.111  0.00  0.00    +0.130 C 
ATOM     17  C   UNL     1      -3.982  -0.616  -1.576  0.00  0.00    +0.119 C 
ATOM     18  C   UNL     1      -2.754   1.526  -1.171  0.00  0.00    +0.027 A 
ATOM     19  C   UNL     1      -1.734   1.728  -2.025  0.00  0.00    +0.024 A 
ATOM     20  C   UNL     1      -1.410   2.350   0.714  0.00  0.00    +0.274 A 
ATOM     21  C   UNL     1      -2.943  -1.974   0.344  0.00  0.00    +0.306 C 
ATOM     22  C   UNL     1      -0.314   2.526  -0.271  0.00  0.00    +0.112 A 
ATOM     23  C   UNL     1      -0.473   2.243  -1.564  0.00  0.00    +0.031 A 
ATOM     37  H   UNL     1      -2.349  -2.533  -1.566  0.00  0.00    +0.156 HD
ENDROOT
BRANCH  10  24
ATOM     24  C   UNL     1      -0.743  -2.973  -0.361  0.00  0.00    +0.035 A 
ATOM     26  C   UNL     1      -0.011  -3.527  -1.408  0.00  0.00    +0.027 A 
ATOM     27  C   UNL     1      -0.201  -2.907   0.920  0.00  0.00    +0.027 A 
ATOM     28  C   UNL     1       1.273  -4.020  -1.172  0.00  0.00    +0.047 A 
ATOM     29  C   UNL     1       1.083  -3.399   1.155  0.00  0.00    +0.047 A 
ATOM     32  C   UNL     1       1.820  -3.955   0.109  0.00  0.00    +0.120 A 
BRANCH  32   7
ATOM      7  O   UNL     1       3.073  -4.434   0.339  0.00  0.00    -0.495 OA
ATOM     36  C   UNL     1       3.571  -4.337   1.672  0.00  0.00    +0.277 C 
ENDBRANCH  32   7
ENDBRANCH  10  24
BRANCH  22  11
ATOM     11  N   UNL     1       0.936   3.022   0.141  0.00  0.00    -0.211 N 
ATOM     38  H   UNL     1       1.508   3.363  -0.644  0.00  0.00    +0.174 HD
BRANCH  11   2
ATOM      2  S   UNL     1       1.785   2.112   1.288  0.00  0.00    +0.072 S 
ATOM      5  O   UNL     1       2.162   2.960   2.403  0.00  0.00    -0.150 OA
ATOM      6  O   UNL     1       1.095   0.857   1.524  0.00  0.00    -0.150 OA
BRANCH   2  25
ATOM      1 CL   UNL     1       7.003   0.803  -1.907  0.00  0.00    -0.084 Cl
ATOM     25  C   UNL     1       3.261   1.741   0.386  0.00  0.00    +0.109 A 
ATOM     30  C   UNL     1       4.335   2.609   0.464  0.00  0.00    +0.030 A 
ATOM     31  C   UNL     1       3.312   0.591  -0.381  0.00  0.00    +0.030 A 
ATOM     33  C   UNL     1       5.498   2.317  -0.248  0.00  0.00    +0.022 A 
ATOM     34  C   UNL     1       4.475   0.299  -1.094  0.00  0.00    +0.022 A 
ATOM     35  C   UNL     1       5.568   1.162  -1.027  0.00  0.00    +0.041 A 
ENDBRANCH   2  25
ENDBRANCH  11   2
ENDBRANCH  22  11
TORSDOF 5
