REMARK  Name = 11886251
REMARK  7 active torsions:
REMARK  status: ('A' for Active; 'I' for Inactive)
REMARK    1  A    between atoms: O_6  and  C_22
REMARK    2  A    between atoms: O_6  and  C_27
REMARK    3  A    between atoms: N_8  and  C_18
REMARK    4  A    between atoms: N_9  and  C_19
REMARK    5  A    between atoms: N_13  and  C_36
REMARK    6  A    between atoms: C_23  and  C_24
REMARK    7  A    between atoms: C_30  and  C_35
REMARK                            x       y       z     vdW  Elec       q    Type
REMARK                         _______ _______ _______ _____ _____    ______ ____
ROOT
ATOM      4  O   UNL     1      -0.950  -3.588   0.686  0.00  0.00    -0.370 OA
ATOM      5  O   UNL     1      -0.999  -1.566  -1.722  0.00  0.00    -0.370 OA
ATOM     16  C   UNL     1      -0.622  -1.460  -0.337  0.00  0.00    +0.176 C 
ATOM     17  C   UNL     1      -1.585  -2.321   0.457  0.00  0.00    +0.171 C 
ATOM     18  C   UNL     1       0.736  -2.102  -0.122  0.00  0.00    +0.171 C 
ATOM     19  C   UNL     1      -2.777  -2.490  -0.459  0.00  0.00    +0.130 C 
ATOM     20  C   UNL     1       0.385  -3.558   0.162  0.00  0.00    +0.190 C 
ATOM     21  C   UNL     1      -2.139  -2.429  -1.834  0.00  0.00    +0.185 C 
ENDROOT
BRANCH  18   8
ATOM      8  N   UNL     1       1.513  -1.435   0.927  0.00  0.00    -0.187 N 
ATOM     10  N   UNL     1       1.034  -1.323   2.169  0.00  0.00    -0.041 NA
ATOM     11  N   UNL     1       3.051  -0.386   2.023  0.00  0.00    -0.071 NA
ATOM     12  N   UNL     1       1.982  -0.679   2.838  0.00  0.00    -0.020 NA
ATOM     22  C   UNL     1       2.737  -0.866   0.841  0.00  0.00    +0.342 A 
BRANCH  22   6
ATOM      6  O   UNL     1       3.473  -0.811  -0.253  0.00  0.00    -0.423 OA
BRANCH   6  27
ATOM     27  C   UNL     1       4.725  -0.211  -0.283  0.00  0.00    +0.132 A 
ATOM     31  C   UNL     1       4.816   1.134  -0.590  0.00  0.00    +0.048 A 
ATOM     32  C   UNL     1       5.842  -0.975  -0.007  0.00  0.00    +0.048 A 
ATOM     33  C   UNL     1       6.074   1.736  -0.622  0.00  0.00    +0.031 A 
ATOM     34  C   UNL     1       7.099  -0.372  -0.038  0.00  0.00    +0.031 A 
ATOM     36  C   UNL     1       7.215   0.984  -0.346  0.00  0.00    +0.067 A 
BRANCH  36  13
ATOM     13  N   UNL     1       8.462   1.581  -0.377  0.00  0.00    -0.220 N 
ATOM     14  N   UNL     1       9.589   0.894  -0.118  0.00  0.00    -0.154 NA
ATOM     15  N   UNL     1      10.041   3.086  -0.592  0.00  0.00    -0.222 NA
ATOM     37  C   UNL     1       8.745   2.886  -0.657  0.00  0.00    +0.225 A 
ATOM     38  C   UNL     1      10.512   1.848  -0.261  0.00  0.00    +0.245 A 
ENDBRANCH  36  13
ENDBRANCH   6  27
ENDBRANCH  22   6
ENDBRANCH  18   8
BRANCH  19   9
ATOM      7  O   UNL     1      -5.593  -2.595  -1.009  0.00  0.00    -0.270 OA
ATOM      9  N   UNL     1      -3.731  -1.423  -0.278  0.00  0.00    -0.304 N 
ATOM     23  C   UNL     1      -5.079  -1.569  -0.573  0.00  0.00    +0.244 C 
ATOM     39  H   UNL     1      -3.357  -0.512  -0.031  0.00  0.00    +0.149 HD
BRANCH  23  24
ATOM     24  C   UNL     1      -5.926  -0.368  -0.356  0.00  0.00    +0.037 A 
ATOM     25  C   UNL     1      -7.075  -0.219  -1.104  0.00  0.00    +0.013 A 
ATOM     26  C   UNL     1      -5.536   0.560   0.588  0.00  0.00    +0.013 A 
ATOM     28  C   UNL     1      -7.871   0.908  -0.899  0.00  0.00    +0.013 A 
ATOM     29  C   UNL     1      -6.332   1.687   0.793  0.00  0.00    +0.013 A 
ATOM     30  C   UNL     1      -7.500   1.861   0.049  0.00  0.00    +0.055 A 
BRANCH  30  35
ATOM      1  F   UNL     1      -8.825   3.177   1.543  0.00  0.00    -0.166 F 
ATOM      2  F   UNL     1      -9.459   3.105  -0.530  0.00  0.00    -0.166 F 
ATOM      3  F   UNL     1      -7.683   4.231   0.023  0.00  0.00    -0.166 F 
ATOM     35  C   UNL     1      -8.351   3.066   0.267  0.00  0.00    +0.417 C 
ENDBRANCH  30  35
ENDBRANCH  23  24
ENDBRANCH  19   9
TORSDOF 7
