REMARK  Name = 11883089
REMARK  9 active torsions:
REMARK  status: ('A' for Active; 'I' for Inactive)
REMARK    1  A    between atoms: O_2  and  C_14
REMARK    2  A    between atoms: O_3  and  C_19
REMARK    3  A    between atoms: N_7  and  C_25
REMARK    4  A    between atoms: C_9  and  C_17
REMARK    5  A    between atoms: C_11  and  C_19
REMARK    6  A    between atoms: C_11  and  C_20
REMARK    7  A    between atoms: C_12  and  C_22
REMARK    8  A    between atoms: C_22  and  C_23
REMARK    9  A    between atoms: C_28  and  C_31
REMARK                            x       y       z     vdW  Elec       q    Type
REMARK                         _______ _______ _______ _____ _____    ______ ____
ROOT
ATOM      1  S   UNL     1      -0.078  -3.262  -0.102  0.00  0.00    -0.057 S 
ATOM      5  O   UNL     1       3.861  -0.876   0.515  0.00  0.00    -0.275 OA
ATOM      6  N   UNL     1       0.926  -0.903   0.244  0.00  0.00    -0.229 NA
ATOM      8  N   UNL     1       2.477  -2.747   0.185  0.00  0.00    -0.264 N 
ATOM      9  C   UNL     1      -2.604   0.541  -0.328  0.00  0.00    -0.019 C 
ATOM     10  C   UNL     1      -3.315  -0.745   0.284  0.00  0.00    +0.011 C 
ATOM     11  C   UNL     1      -4.890  -0.795   0.213  0.00  0.00    +0.021 C 
ATOM     12  C   UNL     1      -1.107   0.590   0.232  0.00  0.00    +0.054 C 
ATOM     13  C   UNL     1      -3.346   1.817   0.150  0.00  0.00    +0.010 C 
ATOM     14  C   UNL     1      -5.466   0.572   0.680  0.00  0.00    +0.123 C 
ATOM     15  C   UNL     1      -2.624  -2.057  -0.191  0.00  0.00    +0.049 C 
ATOM     16  C   UNL     1      -4.854   1.763  -0.048  0.00  0.00    +0.032 C 
ATOM     17  C   UNL     1      -2.575   0.533  -1.876  0.00  0.00    +0.012 C 
ATOM     18  C   UNL     1      -0.444  -0.759   0.124  0.00  0.00    +0.058 A 
ATOM     20  C   UNL     1      -5.408  -1.877   1.202  0.00  0.00    +0.016 C 
ATOM     21  C   UNL     1      -1.145  -1.935  -0.047  0.00  0.00    +0.015 A 
ATOM     24  C   UNL     1       1.232  -2.177   0.133  0.00  0.00    +0.165 A 
ATOM     31  C   UNL     1       3.707  -2.092   0.369  0.00  0.00    +0.222 C 
ATOM     38  H   UNL     1       2.491  -3.757   0.076  0.00  0.00    +0.157 HD
ENDROOT
BRANCH  31  28
ATOM     28  C   UNL     1       4.913  -3.054   0.368  0.00  0.00    +0.075 C 
ATOM     32  C   UNL     1       6.322  -2.425   0.342  0.00  0.00    +0.013 C 
ATOM     33  C   UNL     1       5.277  -3.737  -0.966  0.00  0.00    +0.013 C 
ATOM     34  C   UNL     1       6.754  -3.617  -0.536  0.00  0.00    +0.001 C 
ENDBRANCH  31  28
BRANCH  14   2
ATOM      2  O   UNL     1      -6.883   0.606   0.506  0.00  0.00    -0.391 OA
ATOM     35  H   UNL     1      -7.202   1.456   0.853  0.00  0.00    +0.210 HD
ENDBRANCH  14   2
BRANCH  11  19
ATOM     19  C   UNL     1      -5.457  -1.189  -1.169  0.00  0.00    +0.165 C 
BRANCH  19   3
ATOM      3  O   UNL     1      -6.863  -1.199  -1.071  0.00  0.00    -0.394 OA
ATOM     36  H   UNL     1      -7.212  -1.458  -1.941  0.00  0.00    +0.209 HD
ENDBRANCH  19   3
ENDBRANCH  11  19
BRANCH  12  22
ATOM     22  C   UNL     1      -0.235   1.696  -0.378  0.00  0.00    +0.106 C 
BRANCH  22  23
ATOM      4  O   UNL     1       1.041   1.650   1.678  0.00  0.00    -0.276 OA
ATOM      7  N   UNL     1       1.654   3.115  -0.019  0.00  0.00    -0.312 N 
ATOM     23  C   UNL     1       0.872   2.124   0.558  0.00  0.00    +0.214 C 
ATOM     37  H   UNL     1       1.455   3.400  -0.974  0.00  0.00    +0.149 HD
BRANCH   7  25
ATOM     25  C   UNL     1       2.782   3.716   0.647  0.00  0.00    +0.073 C 
ATOM     26  C   UNL     1       4.088   3.007   0.306  0.00  0.00    +0.022 C 
ATOM     27  C   UNL     1       3.032   5.137   0.158  0.00  0.00    +0.022 C 
ATOM     29  C   UNL     1       4.532   3.615  -1.024  0.00  0.00    +0.002 C 
ATOM     30  C   UNL     1       3.821   4.964  -1.137  0.00  0.00    +0.002 C 
ENDBRANCH   7  25
ENDBRANCH  22  23
ENDBRANCH  12  22
TORSDOF 7
