REMARK  Name = 38029990
REMARK  10 active torsions:
REMARK  status: ('A' for Active; 'I' for Inactive)
REMARK    1  A    between atoms: N_2  and  C_19
REMARK    2  A    between atoms: C_5  and  C_9
REMARK    3  A    between atoms: C_7  and  C_13
REMARK    4  A    between atoms: C_8  and  C_12
REMARK    5  A    between atoms: C_9  and  C_14
REMARK    6  A    between atoms: C_9  and  C_15
REMARK    7  A    between atoms: C_10  and  C_16
REMARK    8  A    between atoms: C_12  and  C_17
REMARK    9  A    between atoms: C_13  and  C_18
REMARK   10  A    between atoms: C_19  and  C_20
REMARK                            x       y       z     vdW  Elec       q    Type
REMARK                         _______ _______ _______ _____ _____    ______ ____
ROOT
ATOM      5  C   UNL     1       1.538  -0.989  -0.516  0.00  0.00    -0.000 C 
ATOM      6  C   UNL     1       1.222   0.226  -1.401  0.00  0.00    +0.012 C 
ATOM      7  C   UNL     1       3.069  -1.144  -0.337  0.00  0.00    +0.029 C 
ATOM      8  C   UNL     1       1.780   1.536  -0.813  0.00  0.00    +0.023 C 
ATOM     10  C   UNL     1       3.219   1.383  -0.362  0.00  0.00    -0.073 C 
ATOM     11  C   UNL     1       3.781   0.177  -0.168  0.00  0.00    -0.023 C 
ATOM     16  C   UNL     1       4.011   2.649  -0.184  0.00  0.00    +0.039 C 
ENDROOT
BRANCH   5   9
ATOM      9  C   UNL     1       0.905  -2.247  -1.117  0.00  0.00    -0.013 C 
ATOM     14  C   UNL     1      -0.571  -2.332  -0.742  0.00  0.00    +0.007 C 
ATOM     15  C   UNL     1       1.080  -2.259  -2.633  0.00  0.00    +0.007 C 
ENDBRANCH   5   9
BRANCH   8  12
ATOM     12  C   UNL     1       0.898   2.048   0.331  0.00  0.00    +0.103 C 
BRANCH  12  17
ATOM      1  O   UNL     1      -0.903   2.465  -1.230  0.00  0.00    -0.276 OA
ATOM      2  N   UNL     1      -1.400   1.976   0.987  0.00  0.00    -0.311 N 
ATOM     17  C   UNL     1      -0.548   2.191  -0.087  0.00  0.00    +0.214 C 
ATOM     25  H   UNL     1      -1.010   1.751   1.898  0.00  0.00    +0.149 HD
BRANCH   2  19
ATOM     19  C   UNL     1      -2.839   2.049   0.880  0.00  0.00    +0.141 C 
BRANCH  19  20
ATOM      4  N   UNL     1      -3.787  -1.605   1.088  0.00  0.00    -0.263 NA
ATOM     20  C   UNL     1      -3.445   0.722   0.529  0.00  0.00    -0.012 A 
ATOM     21  C   UNL     1      -4.199   0.562  -0.629  0.00  0.00    +0.008 A 
ATOM     22  C   UNL     1      -3.270  -0.383   1.347  0.00  0.00    +0.115 A 
ATOM     23  C   UNL     1      -4.747  -0.680  -0.929  0.00  0.00    +0.020 A 
ATOM     24  C   UNL     1      -4.514  -1.722  -0.046  0.00  0.00    +0.111 A 
ENDBRANCH  19  20
ENDBRANCH   2  19
ENDBRANCH  12  17
ENDBRANCH   8  12
BRANCH   7  13
ATOM     13  C   UNL     1       3.397  -2.057   0.850  0.00  0.00    +0.126 C 
BRANCH  13  18
ATOM      3  N   UNL     1       2.454  -1.067   3.088  0.00  0.00    -0.197 NA
ATOM     18  C   UNL     1       2.869  -1.499   2.095  0.00  0.00    +0.063 C 
ENDBRANCH  13  18
ENDBRANCH   7  13
TORSDOF 7
