REMARK  Name = 11867232
REMARK  4 active torsions:
REMARK  status: ('A' for Active; 'I' for Inactive)
REMARK    1  A    between atoms: S_1  and  N_8
REMARK    2  A    between atoms: S_1  and  C_24
REMARK    3  A    between atoms: N_8  and  C_20
REMARK    4  A    between atoms: C_19  and  C_22
REMARK                            x       y       z     vdW  Elec       q    Type
REMARK                         _______ _______ _______ _____ _____    ______ ____
ROOT
ATOM      2  O   UNL     1      -0.239   2.883  -1.183  0.00  0.00    -0.266 OA
ATOM      3  O   UNL     1       2.769  -1.137  -2.463  0.00  0.00    -0.268 OA
ATOM      6  N   UNL     1       3.527  -0.309  -0.410  0.00  0.00    -0.295 N 
ATOM      7  N   UNL     1       1.432   1.993   0.197  0.00  0.00    -0.310 N 
ATOM     10  C   UNL     1       3.927   2.147  -0.355  0.00  0.00    +0.027 C 
ATOM     11  C   UNL     1       3.195   0.979   1.686  0.00  0.00    +0.054 C 
ATOM     12  C   UNL     1       4.121   2.073   1.156  0.00  0.00    +0.018 C 
ATOM     13  C   UNL     1       4.275   0.797  -1.008  0.00  0.00    +0.113 C 
ATOM     14  C   UNL     1       2.484   2.575  -0.647  0.00  0.00    +0.130 C 
ATOM     15  C   UNL     1       3.583  -0.375   1.059  0.00  0.00    +0.117 C 
ATOM     16  C   UNL     1       1.744   1.292   1.370  0.00  0.00    +0.027 A 
ATOM     17  C   UNL     1       0.767   0.864   2.190  0.00  0.00    +0.024 A 
ATOM     18  C   UNL     1       0.098   2.261  -0.177  0.00  0.00    +0.274 A 
ATOM     19  C   UNL     1       2.820  -1.187  -1.235  0.00  0.00    +0.265 C 
ATOM     20  C   UNL     1      -0.935   1.743   0.755  0.00  0.00    +0.112 A 
ATOM     21  C   UNL     1      -0.618   1.094   1.876  0.00  0.00    +0.031 A 
ENDROOT
BRANCH  19  22
ATOM      9  N   UNL     1       2.712  -3.414  -0.400  0.00  0.00    -0.250 NA
ATOM     22  C   UNL     1       2.046  -2.257  -0.597  0.00  0.00    +0.126 A 
ATOM     23  C   UNL     1       0.727  -2.042  -0.243  0.00  0.00    +0.033 A 
ATOM     25  C   UNL     1       0.040  -3.091   0.357  0.00  0.00    +0.004 A 
ATOM     26  C   UNL     1       2.011  -4.411   0.186  0.00  0.00    +0.111 A 
ATOM     27  C   UNL     1       0.687  -4.302   0.579  0.00  0.00    +0.020 A 
ENDBRANCH  19  22
BRANCH  20   8
ATOM      8  N   UNL     1      -2.300   1.937   0.477  0.00  0.00    -0.211 N 
ATOM     33  H   UNL     1      -2.900   1.792   1.301  0.00  0.00    +0.174 HD
BRANCH   8   1
ATOM      1  S   UNL     1      -2.898   1.265  -0.957  0.00  0.00    +0.072 S 
ATOM      4  O   UNL     1      -3.585   2.285  -1.726  0.00  0.00    -0.150 OA
ATOM      5  O   UNL     1      -1.872   0.448  -1.578  0.00  0.00    -0.150 OA
BRANCH   1  24
ATOM     24  C   UNL     1      -4.129   0.168  -0.317  0.00  0.00    +0.108 A 
ATOM     28  C   UNL     1      -5.421   0.632  -0.143  0.00  0.00    +0.029 A 
ATOM     29  C   UNL     1      -3.776  -1.132  -0.001  0.00  0.00    +0.029 A 
ATOM     30  C   UNL     1      -6.392  -0.233   0.362  0.00  0.00    +0.002 A 
ATOM     31  C   UNL     1      -4.747  -1.997   0.504  0.00  0.00    +0.002 A 
ATOM     32  C   UNL     1      -6.055  -1.547   0.685  0.00  0.00    +0.000 A 
ENDBRANCH   1  24
ENDBRANCH   8   1
ENDBRANCH  20   8
TORSDOF 4
