REMARK  Name = 51137914
REMARK  5 active torsions:
REMARK  status: ('A' for Active; 'I' for Inactive)
REMARK    1  A    between atoms: S_1  and  N_4
REMARK    2  A    between atoms: S_1  and  C_12
REMARK    3  A    between atoms: N_5  and  C_15
REMARK    4  A    between atoms: C_7  and  C_11
REMARK    5  A    between atoms: C_12  and  C_16
REMARK                            x       y       z     vdW  Elec       q    Type
REMARK                         _______ _______ _______ _____ _____    ______ ____
ROOT
ATOM      4  N   UNL     1      -0.993   2.604  -0.025  0.00  0.00    -0.180 NA
ATOM      7  C   UNL     1       1.385   2.436   0.380  0.00  0.00    +0.072 C 
ATOM      8  C   UNL     1       0.007   2.401   1.063  0.00  0.00    +0.120 C 
ATOM      9  C   UNL     1       1.112   3.225  -0.902  0.00  0.00    +0.029 C 
ATOM     10  C   UNL     1      -0.282   2.775  -1.315  0.00  0.00    +0.110 C 
ENDROOT
BRANCH   7  11
ATOM      5  N   UNL     1       2.922   0.514   0.955  0.00  0.00    -0.330 N 
ATOM      6  N   UNL     1       1.851   0.365  -0.987  0.00  0.00    -0.232 NA
ATOM     11  C   UNL     1       2.041   1.097   0.088  0.00  0.00    +0.115 A 
ATOM     13  C   UNL     1       3.329  -0.673   0.403  0.00  0.00    +0.069 A 
ATOM     14  C   UNL     1       2.646  -0.743  -0.808  0.00  0.00    +0.089 A 
ATOM     15  C   UNL     1       3.352   1.050   2.227  0.00  0.00    +0.150 C 
ATOM     17  C   UNL     1       4.208  -1.662   0.846  0.00  0.00    +0.028 A 
ATOM     18  C   UNL     1       2.840  -1.859  -1.640  0.00  0.00    +0.030 A 
ATOM     21  C   UNL     1       4.389  -2.766   0.005  0.00  0.00    +0.002 A 
ATOM     22  C   UNL     1       3.718  -2.864  -1.216  0.00  0.00    +0.002 A 
ENDBRANCH   7  11
BRANCH   4   1
ATOM      1  S   UNL     1      -2.425   1.698  -0.003  0.00  0.00    +0.036 S 
ATOM      2  O   UNL     1      -3.333   2.213  -1.011  0.00  0.00    -0.158 OA
ATOM      3  O   UNL     1      -2.855   1.515   1.370  0.00  0.00    -0.158 OA
BRANCH   1  12
ATOM     12  C   UNL     1      -1.800   0.140  -0.585  0.00  0.00    +0.220 C 
BRANCH  12  16
ATOM     16  C   UNL     1      -2.776  -0.922  -0.183  0.00  0.00    -0.025 A 
ATOM     19  C   UNL     1      -3.995  -1.038  -0.851  0.00  0.00    +0.005 A 
ATOM     20  C   UNL     1      -2.466  -1.794   0.860  0.00  0.00    +0.005 A 
ATOM     23  C   UNL     1      -4.904  -2.027  -0.475  0.00  0.00    +0.000 A 
ATOM     24  C   UNL     1      -3.375  -2.784   1.236  0.00  0.00    +0.000 A 
ATOM     25  C   UNL     1      -4.595  -2.900   0.568  0.00  0.00    +0.000 A 
ENDBRANCH  12  16
ENDBRANCH   1  12
ENDBRANCH   4   1
TORSDOF 4
