REMARK  Name = 75536470
REMARK  9 active torsions:
REMARK  status: ('A' for Active; 'I' for Inactive)
REMARK    1  A    between atoms: O_2  and  C_11
REMARK    2  A    between atoms: N_4  and  C_10
REMARK    3  A    between atoms: N_4  and  C_19
REMARK    4  A    between atoms: N_4  and  C_20
REMARK    5  A    between atoms: N_5  and  C_17
REMARK    6  A    between atoms: C_12  and  C_18
REMARK    7  A    between atoms: C_13  and  C_17
REMARK    8  A    between atoms: C_19  and  C_21
REMARK    9  A    between atoms: C_20  and  C_22
REMARK                            x       y       z     vdW  Elec       q    Type
REMARK                         _______ _______ _______ _____ _____    ______ ____
ROOT
ATOM      4  N   UNL     1      -0.814  -0.804   0.641  0.00  0.00    -0.280 NA
ENDROOT
BRANCH   4  10
ATOM      1  O   UNL     1       2.685  -0.884   1.631  0.00  0.00    -0.371 OA
ATOM     10  C   UNL     1       0.441  -1.409   1.056  0.00  0.00    +0.114 C 
ATOM     11  C   UNL     1       1.349  -1.783  -0.101  0.00  0.00    +0.164 C 
ATOM     13  C   UNL     1       2.694  -1.890   0.604  0.00  0.00    +0.165 C 
ATOM     16  C   UNL     1       1.329  -0.454   1.838  0.00  0.00    +0.182 C 
BRANCH  11   2
ATOM      2  O   UNL     1       0.977  -3.001  -0.715  0.00  0.00    -0.388 OA
ATOM     28  H   UNL     1       0.968  -3.696  -0.035  0.00  0.00    +0.210 HD
ENDBRANCH  11   2
BRANCH  13  17
ATOM     17  C   UNL     1       3.877  -1.667  -0.322  0.00  0.00    +0.138 C 
BRANCH  17   5
ATOM      3  O   UNL     1       5.038   0.797   0.696  0.00  0.00    -0.276 OA
ATOM      5  N   UNL     1       3.831  -0.366  -0.923  0.00  0.00    -0.313 N 
ATOM     18  C   UNL     1       4.418   0.759  -0.361  0.00  0.00    +0.216 C 
ATOM     27  H   UNL     1       3.355  -0.275  -1.816  0.00  0.00    +0.149 HD
BRANCH  18  12
ATOM     12  C   UNL     1       4.248   2.008  -1.160  0.00  0.00    +0.075 C 
ATOM     14  C   UNL     1       3.642   3.200  -0.497  0.00  0.00    +0.013 C 
ATOM     15  C   UNL     1       2.867   2.436  -1.528  0.00  0.00    +0.013 C 
ENDBRANCH  18  12
ENDBRANCH  17   5
ENDBRANCH  13  17
ENDBRANCH   4  10
BRANCH   4  19
ATOM     19  C   UNL     1      -1.586  -0.357   1.804  0.00  0.00    +0.159 C 
BRANCH  19  21
ATOM      6  N   UNL     1      -2.269   1.971   1.175  0.00  0.00    -0.347 N 
ATOM      8  N   UNL     1      -3.913   0.483   1.303  0.00  0.00    -0.239 NA
ATOM     21  C   UNL     1      -2.618   0.674   1.429  0.00  0.00    +0.121 A 
ATOM     23  C   UNL     1      -3.413   2.651   0.868  0.00  0.00    +0.104 A 
ATOM     25  C   UNL     1      -4.414   1.712   0.953  0.00  0.00    +0.130 A 
ATOM     29  H   UNL     1      -1.335   2.357   1.206  0.00  0.00    +0.167 HD
ENDBRANCH  19  21
ENDBRANCH   4  19
BRANCH   4  20
ATOM     20  C   UNL     1      -1.606  -1.744  -0.158  0.00  0.00    +0.159 C 
BRANCH  20  22
ATOM      7  N   UNL     1      -2.291  -0.086  -1.908  0.00  0.00    -0.347 N 
ATOM      9  N   UNL     1      -3.943  -1.222  -0.953  0.00  0.00    -0.239 NA
ATOM     22  C   UNL     1      -2.642  -1.037  -0.990  0.00  0.00    +0.121 A 
ATOM     24  C   UNL     1      -3.441   0.364  -2.493  0.00  0.00    +0.104 A 
ATOM     26  C   UNL     1      -4.447  -0.352  -1.887  0.00  0.00    +0.130 A 
ATOM     30  H   UNL     1      -1.353   0.230  -2.114  0.00  0.00    +0.167 HD
ENDBRANCH  20  22
ENDBRANCH   4  20
TORSDOF 9
