REMARK  Name = 75536091
REMARK  6 active torsions:
REMARK  status: ('A' for Active; 'I' for Inactive)
REMARK    1  A    between atoms: O_2  and  C_12
REMARK    2  A    between atoms: O_3  and  C_14
REMARK    3  A    between atoms: N_6  and  C_11
REMARK    4  A    between atoms: N_8  and  C_20
REMARK    5  A    between atoms: C_10  and  C_15
REMARK    6  A    between atoms: C_18  and  C_21
REMARK                            x       y       z     vdW  Elec       q    Type
REMARK                         _______ _______ _______ _____ _____    ______ ____
ROOT
ATOM     10  C   UNL     1      -0.495  -2.319   0.979  0.00  0.00    +0.046 C 
ATOM     11  C   UNL     1       0.506  -2.463  -0.190  0.00  0.00    +0.112 C 
ATOM     12  C   UNL     1       0.940  -3.926  -0.108  0.00  0.00    +0.164 C 
ATOM     13  C   UNL     1      -1.019  -3.750   1.266  0.00  0.00    +0.044 C 
ATOM     14  C   UNL     1      -0.357  -4.654   0.228  0.00  0.00    +0.145 C 
ENDROOT
BRANCH  10  15
ATOM      7  N   UNL     1      -2.698   0.748   1.339  0.00  0.00    -0.240 NA
ATOM     15  C   UNL     1      -1.582  -1.300   0.705  0.00  0.00    -0.024 A 
ATOM     16  C   UNL     1      -2.445  -1.445  -0.376  0.00  0.00    +0.009 A 
ATOM     17  C   UNL     1      -1.749  -0.196   1.525  0.00  0.00    +0.116 A 
ATOM     19  C   UNL     1      -3.434  -0.494  -0.600  0.00  0.00    +0.044 A 
ATOM     20  C   UNL     1      -3.518   0.574   0.278  0.00  0.00    +0.121 A 
BRANCH  20   8
ATOM      5  O   UNL     1      -6.554   3.450  -0.161  0.00  0.00    -0.377 OA
ATOM      8  N   UNL     1      -4.519   1.522   0.040  0.00  0.00    -0.311 N 
ATOM     22  C   UNL     1      -4.269   2.912   0.449  0.00  0.00    +0.134 C 
ATOM     23  C   UNL     1      -5.928   1.114   0.041  0.00  0.00    +0.134 C 
ATOM     24  C   UNL     1      -5.193   3.848  -0.321  0.00  0.00    +0.178 C 
ATOM     25  C   UNL     1      -6.764   2.147  -0.707  0.00  0.00    +0.178 C 
ENDBRANCH  20   8
ENDBRANCH  10  15
BRANCH  11   6
ATOM      4  O   UNL     1       0.737   0.159  -1.336  0.00  0.00    -0.268 OA
ATOM      6  N   UNL     1       1.623  -1.563  -0.059  0.00  0.00    -0.304 N 
ATOM     18  C   UNL     1       1.645  -0.308  -0.653  0.00  0.00    +0.270 C 
ATOM     32  H   UNL     1       2.409  -1.846   0.519  0.00  0.00    +0.149 HD
BRANCH  18  21
ATOM      1  S   UNL     1       3.031   2.052  -1.124  0.00  0.00    -0.063 S 
ATOM      9  N   UNL     1       3.903   0.054   0.254  0.00  0.00    -0.234 NA
ATOM     21  C   UNL     1       2.881   0.490  -0.445  0.00  0.00    +0.164 A 
ATOM     26  C   UNL     1       4.606   2.189  -0.436  0.00  0.00    +0.040 A 
ATOM     27  C   UNL     1       4.901   1.018   0.268  0.00  0.00    +0.079 A 
ATOM     28  C   UNL     1       5.515   3.256  -0.513  0.00  0.00    +0.017 A 
ATOM     29  C   UNL     1       6.150   0.913   0.917  0.00  0.00    +0.029 A 
ATOM     30  C   UNL     1       6.745   3.127   0.138  0.00  0.00    +0.001 A 
ATOM     31  C   UNL     1       7.060   1.972   0.844  0.00  0.00    +0.002 A 
ENDBRANCH  18  21
ENDBRANCH  11   6
BRANCH  12   2
ATOM      2  O   UNL     1       1.487  -4.393  -1.326  0.00  0.00    -0.387 OA
ATOM     33  H   UNL     1       1.650  -5.346  -1.227  0.00  0.00    +0.210 HD
ENDBRANCH  12   2
BRANCH  14   3
ATOM      3  O   UNL     1      -1.206  -4.735  -0.913  0.00  0.00    -0.389 OA
ATOM     34  H   UNL     1      -2.030  -5.170  -0.634  0.00  0.00    +0.210 HD
ENDBRANCH  14   3
TORSDOF 6
