REMARK  Name = 7135168
REMARK  15 active torsions:
REMARK  status: ('A' for Active; 'I' for Inactive)
REMARK    1  A    between atoms: O_2  and  C_16
REMARK    2  A    between atoms: O_3  and  C_21
REMARK    3  A    between atoms: O_5  and  C_29
REMARK    4  A    between atoms: N_9  and  CA_27
REMARK    5  A    between atoms: C_11  and  C_19
REMARK    6  A    between atoms: C_13  and  C_21
REMARK    7  A    between atoms: C_13  and  C_22
REMARK    8  A    between atoms: C_14  and  C_24
REMARK    9  A    between atoms: C_24  and  C_25
REMARK   10  A    between atoms: CA_27  and  CB_28
REMARK   11  A    between atoms: CA_27  and  C_29
REMARK   12  A    between atoms: CB_28  and  CG_31
REMARK   13  A    between atoms: C_30  and  C_32
REMARK   14  A    between atoms: CG_31  and  CD1_33
REMARK   15  A    between atoms: CG_31  and  CD2_34
REMARK                            x       y       z     vdW  Elec       q    Type
REMARK                         _______ _______ _______ _____ _____    ______ ____
ROOT
ATOM      1  S   UNL     1       0.051   2.900  -0.636  0.00  0.00    -0.057 S 
ATOM      6  O   UNL     1       3.598   0.268   0.835  0.00  0.00    -0.266 OA
ATOM      8  N   UNL     1       0.693   0.620   0.406  0.00  0.00    -0.229 NA
ATOM     10  N   UNL     1       2.498   2.144  -0.074  0.00  0.00    -0.258 N 
ATOM     11  C   UNL     1      -3.072  -0.115   0.798  0.00  0.00    -0.019 C 
ATOM     12  C   UNL     1      -3.453   0.742  -0.489  0.00  0.00    +0.011 C 
ATOM     13  C   UNL     1      -4.989   0.923  -0.798  0.00  0.00    +0.021 C 
ATOM     14  C   UNL     1      -1.534  -0.533   0.674  0.00  0.00    +0.054 C 
ATOM     15  C   UNL     1      -3.929  -1.407   0.830  0.00  0.00    +0.010 C 
ATOM     16  C   UNL     1      -5.702  -0.454  -0.678  0.00  0.00    +0.123 C 
ATOM     17  C   UNL     1      -2.640   2.068  -0.551  0.00  0.00    +0.049 C 
ATOM     18  C   UNL     1      -5.419  -1.163   0.642  0.00  0.00    +0.032 C 
ATOM     19  C   UNL     1      -3.289   0.659   2.122  0.00  0.00    +0.012 C 
ATOM     20  C   UNL     1      -0.683   0.645   0.274  0.00  0.00    +0.058 A 
ATOM     22  C   UNL     1      -5.157   1.403  -2.268  0.00  0.00    +0.016 C 
ATOM     23  C   UNL     1      -1.198   1.794  -0.290  0.00  0.00    +0.015 A 
ATOM     26  C   UNL     1       1.185   1.758  -0.035  0.00  0.00    +0.165 A 
ATOM     30  C   UNL     1       3.607   1.395   0.353  0.00  0.00    +0.285 C 
ATOM     41  H   UNL     1       2.665   3.070  -0.460  0.00  0.00    +0.157 HD
ENDROOT
BRANCH  30  32
ATOM      7  O   UNL     1       4.892   3.262  -0.385  0.00  0.00    -0.458 OA
ATOM     32  C   UNL     1       4.928   2.051   0.164  0.00  0.00    +0.189 A 
ATOM     35  C   UNL     1       6.148   1.603   0.464  0.00  0.00    +0.054 A 
ATOM     36  C   UNL     1       7.009   2.651   0.061  0.00  0.00    +0.042 A 
ATOM     37  C   UNL     1       6.197   3.638  -0.448  0.00  0.00    +0.196 A 
ENDBRANCH  30  32
BRANCH  16   2
ATOM      2  O   UNL     1      -7.114  -0.303  -0.825  0.00  0.00    -0.391 OA
ATOM     38  H   UNL     1      -7.305  -0.164  -1.767  0.00  0.00    +0.210 HD
ENDBRANCH  16   2
BRANCH  13  21
ATOM     21  C   UNL     1      -5.697   1.987   0.070  0.00  0.00    +0.165 C 
BRANCH  21   3
ATOM      3  O   UNL     1      -7.048   2.041  -0.329  0.00  0.00    -0.394 OA
ATOM     39  H   UNL     1      -7.121   2.671  -1.065  0.00  0.00    +0.209 HD
ENDBRANCH  21   3
ENDBRANCH  13  21
BRANCH  14  24
ATOM     24  C   UNL     1      -0.965  -1.244   1.909  0.00  0.00    +0.106 C 
BRANCH  24  25
ATOM      4  O   UNL     1       1.413  -1.388   2.328  0.00  0.00    -0.276 OA
ATOM      9  N   UNL     1       0.469  -2.664   0.630  0.00  0.00    -0.310 N 
ATOM     25  C   ACE A   0       0.439  -1.751   1.674  0.00  0.00    +0.214 C 
ATOM     40  H   UNL     1      -0.396  -2.901   0.156  0.00  0.00    +0.149 HD
BRANCH   9  27
ATOM     27  CA  UNL     1       1.680  -3.312   0.182  0.00  0.00    +0.098 C 
BRANCH  27  28
ATOM     28  CB  UNL     1       2.372  -2.485  -0.917  0.00  0.00    +0.027 C 
BRANCH  28  31
ATOM     31  CG  UNL     1       3.749  -3.019  -1.367  0.00  0.00    -0.015 C 
ATOM     33  CD1 UNL     1       4.386  -2.154  -2.455  0.00  0.00    +0.007 C 
ATOM     34  CD2 UNL     1       4.689  -3.102  -0.161  0.00  0.00    +0.007 C 
ENDBRANCH  28  31
ENDBRANCH  27  28
BRANCH  27  29
ATOM     29  C   UNL     1       1.371  -4.737  -0.286  0.00  0.00    +0.178 C 
BRANCH  29   5
ATOM      5  O   UNL     1       0.516  -4.721  -1.422  0.00  0.00    -0.393 OA
ATOM     42  H   UNL     1      -0.350  -4.383  -1.140  0.00  0.00    +0.209 HD
ENDBRANCH  29   5
ENDBRANCH  27  29
ENDBRANCH   9  27
ENDBRANCH  24  25
ENDBRANCH  14  24
TORSDOF 11
