REMARK  Name = 11882552
REMARK  14 active torsions:
REMARK  status: ('A' for Active; 'I' for Inactive)
REMARK    1  A    between atoms: S_2  and  C_31
REMARK    2  A    between atoms: S_2  and  C_35
REMARK    3  A    between atoms: O_3  and  C_13
REMARK    4  A    between atoms: O_4  and  C_16
REMARK    5  A    between atoms: O_5  and  C_18
REMARK    6  A    between atoms: O_9  and  C_26
REMARK    7  A    between atoms: O_9  and  C_34
REMARK    8  A    between atoms: N_10  and  C_14
REMARK    9  A    between atoms: N_11  and  C_21
REMARK   10  A    between atoms: C_13  and  C_19
REMARK   11  A    between atoms: C_20  and  C_23
REMARK   12  A    between atoms: C_21  and  C_22
REMARK   13  A    between atoms: C_21  and  C_24
REMARK   14  A    between atoms: C_22  and  C_25
REMARK                            x       y       z     vdW  Elec       q    Type
REMARK                         _______ _______ _______ _____ _____    ______ ____
ROOT
ATOM     13  C   UNL     1      -2.352  -1.579   0.768  0.00  0.00    +0.146 C 
ATOM     14  C   UNL     1       0.034  -2.184   0.137  0.00  0.00    +0.107 C 
ATOM     15  C   UNL     1      -0.944  -1.055   0.479  0.00  0.00    +0.069 C 
ATOM     16  C   UNL     1      -0.491  -3.069  -1.002  0.00  0.00    +0.163 C 
ATOM     17  C   UNL     1      -2.870  -2.441  -0.381  0.00  0.00    +0.078 C 
ATOM     18  C   UNL     1      -1.908  -3.578  -0.727  0.00  0.00    +0.148 C 
ENDROOT
BRANCH  13  19
ATOM      6  O   UNL     1      -3.911  -0.340   2.087  0.00  0.00    -0.273 OA
ATOM     11  N   UNL     1      -3.388   0.420  -0.050  0.00  0.00    -0.301 N 
ATOM     19  C   UNL     1      -3.296  -0.442   1.029  0.00  0.00    +0.246 C 
ATOM     40  H   UNL     1      -2.893   0.211  -0.910  0.00  0.00    +0.150 HD
BRANCH  11  21
ATOM     21  C   UNL     1      -4.247   1.583  -0.061  0.00  0.00    +0.163 C 
BRANCH  21  24
ATOM      8  O   UNL     1      -5.789   0.242  -1.376  0.00  0.00    -0.274 OA
ATOM     12  N   UNL     1      -6.651   1.763   0.115  0.00  0.00    -0.328 N 
ATOM     24  C   UNL     1      -5.617   1.122  -0.536  0.00  0.00    +0.231 C 
ATOM     41  H   UNL     1      -7.617   1.538  -0.097  0.00  0.00    +0.145 HD
ATOM     42  H   UNL     1      -6.494   2.487   0.809  0.00  0.00    +0.145 HD
ENDBRANCH  21  24
BRANCH  21  22
ATOM     22  C   UNL     1      -3.710   2.691  -0.975  0.00  0.00    +0.074 C 
BRANCH  22  25
ATOM      1  S   UNL     1      -1.260   3.673  -1.780  0.00  0.00    -0.102 S 
ATOM     25  C   UNL     1      -2.337   3.168  -0.568  0.00  0.00    -0.008 A 
ATOM     29  C   UNL     1      -1.828   3.250   0.690  0.00  0.00    +0.011 A 
ATOM     32  C   UNL     1      -0.494   3.749   0.671  0.00  0.00    +0.008 A 
ATOM     33  C   UNL     1      -0.060   4.019  -0.609  0.00  0.00    +0.045 A 
ENDBRANCH  22  25
ENDBRANCH  21  22
ENDBRANCH  11  21
ENDBRANCH  13  19
BRANCH  14  10
ATOM      7  O   UNL     1       2.170  -1.570   1.954  0.00  0.00    -0.270 OA
ATOM     10  N   UNL     1       1.324  -1.627  -0.204  0.00  0.00    -0.306 N 
ATOM     20  C   UNL     1       2.294  -1.365   0.749  0.00  0.00    +0.248 C 
ATOM     36  H   UNL     1       1.453  -1.322  -1.164  0.00  0.00    +0.149 HD
BRANCH  20  23
ATOM     23  C   UNL     1       3.555  -0.767   0.240  0.00  0.00    +0.078 A 
ATOM     26  C   UNL     1       4.293   0.073   1.050  0.00  0.00    +0.133 A 
ATOM     27  C   UNL     1       3.950  -1.081  -1.045  0.00  0.00    +0.018 A 
ATOM     28  C   UNL     1       5.474   0.624   0.553  0.00  0.00    +0.061 A 
ATOM     30  C   UNL     1       5.132  -0.530  -1.541  0.00  0.00    +0.015 A 
ATOM     31  C   UNL     1       5.894   0.322  -0.742  0.00  0.00    +0.011 A 
BRANCH  31   2
ATOM      2  S   UNL     1       7.403   1.025  -1.377  0.00  0.00    -0.128 S 
ATOM     35  C   UNL     1       7.054   2.803  -1.276  0.00  0.00    +0.090 C 
ENDBRANCH  31   2
BRANCH  26   9
ATOM      9  O   UNL     1       3.899   0.380   2.318  0.00  0.00    -0.494 OA
ATOM     34  C   UNL     1       3.061   1.522   2.478  0.00  0.00    +0.277 C 
ENDBRANCH  26   9
ENDBRANCH  20  23
ENDBRANCH  14  10
BRANCH  13   3
ATOM      3  O   UNL     1      -2.361  -2.348   1.966  0.00  0.00    -0.379 OA
ATOM     37  H   UNL     1      -1.761  -3.104   1.868  0.00  0.00    +0.211 HD
ENDBRANCH  13   3
BRANCH  16   4
ATOM      4  O   UNL     1       0.360  -4.210  -1.137  0.00  0.00    -0.387 OA
ATOM     38  H   UNL     1       0.005  -4.753  -1.862  0.00  0.00    +0.210 HD
ENDBRANCH  16   4
BRANCH  18   5
ATOM      5  O   UNL     1      -2.383  -4.244  -1.897  0.00  0.00    -0.389 OA
ATOM     39  H   UNL     1      -2.399  -3.601  -2.626  0.00  0.00    +0.210 HD
ENDBRANCH  18   5
TORSDOF 12
