REMARK  Name = 45360893
REMARK  9 active torsions:
REMARK  status: ('A' for Active; 'I' for Inactive)
REMARK    1  A    between atoms: N_3  and  C_12
REMARK    2  A    between atoms: N_4  and  C_17
REMARK    3  A    between atoms: C_11  and  C_16
REMARK    4  A    between atoms: C_12  and  C_14
REMARK    5  A    between atoms: C_14  and  C_19
REMARK    6  A    between atoms: C_14  and  C_20
REMARK    7  A    between atoms: C_14  and  C_21
REMARK    8  A    between atoms: C_16  and  C_18
REMARK    9  A    between atoms: C_18  and  C_22
REMARK                            x       y       z     vdW  Elec       q    Type
REMARK                         _______ _______ _______ _____ _____    ______ ____
ROOT
ATOM      1  O   UNL     1      -1.988  -1.322  -1.029  0.00  0.00    -0.274 OA
ATOM      3  N   UNL     1      -4.050  -0.156   0.268  0.00  0.00    -0.290 NA
ATOM      4  N   UNL     1      -1.152   2.035   0.710  0.00  0.00    -0.296 NA
ATOM      5  N   UNL     1      -1.109   0.640  -1.814  0.00  0.00    -0.312 N 
ATOM      7  C   UNL     1      -2.604   1.758   0.641  0.00  0.00    +0.084 C 
ATOM      8  C   UNL     1      -3.117   0.750  -0.428  0.00  0.00    +0.160 C 
ATOM      9  C   UNL     1      -3.191   1.173   1.940  0.00  0.00    +0.036 C 
ATOM     10  C   UNL     1      -4.481   0.525   1.483  0.00  0.00    +0.087 C 
ATOM     11  C   UNL     1      -0.590   2.680  -0.509  0.00  0.00    +0.074 C 
ATOM     13  C   UNL     1      -2.031  -0.094  -1.093  0.00  0.00    +0.232 C 
ATOM     15  C   UNL     1      -1.086   2.089  -1.843  0.00  0.00    +0.123 C 
ATOM     17  C   UNL     1      -0.828   2.833   1.905  0.00  0.00    +0.105 C 
ATOM     31  H   UNL     1      -0.407   0.133  -2.345  0.00  0.00    +0.149 HD
ENDROOT
BRANCH   3  12
ATOM     12  C   UNL     1      -5.177  -0.570  -0.558  0.00  0.00    +0.091 C 
BRANCH  12  14
ATOM     14  C   UNL     1      -5.820  -1.912  -0.122  0.00  0.00    -0.025 C 
ATOM     19  C   UNL     1      -6.966  -2.303  -1.072  0.00  0.00    +0.012 C 
ATOM     20  C   UNL     1      -4.780  -3.045  -0.090  0.00  0.00    +0.012 C 
ATOM     21  C   UNL     1      -6.395  -1.734   1.296  0.00  0.00    +0.012 C 
ENDBRANCH  12  14
ENDBRANCH   3  12
BRANCH  11  16
ATOM     16  C   UNL     1       0.951   2.588  -0.505  0.00  0.00    +0.029 C 
BRANCH  16  18
ATOM     18  C   UNL     1       1.435   1.182  -0.211  0.00  0.00    +0.098 C 
BRANCH  18  22
ATOM      2  O   UNL     1       3.594   2.124  -0.478  0.00  0.00    -0.275 OA
ATOM      6  N   UNL     1       3.468  -0.152   0.024  0.00  0.00    -0.271 N 
ATOM     22  C   UNL     1       2.943   1.106  -0.237  0.00  0.00    +0.220 C 
ATOM     23  C   UNL     1       2.685  -1.372   0.313  0.00  0.00    +0.118 C 
ATOM     24  C   UNL     1       4.838  -0.486   0.057  0.00  0.00    +0.039 A 
ATOM     25  C   UNL     1       3.675  -2.519   0.543  0.00  0.00    +0.056 C 
ATOM     26  C   UNL     1       4.992  -1.842   0.353  0.00  0.00    -0.024 A 
ATOM     27  C   UNL     1       5.947   0.321  -0.154  0.00  0.00    +0.024 A 
ATOM     28  C   UNL     1       6.249  -2.422   0.444  0.00  0.00    +0.005 A 
ATOM     29  C   UNL     1       7.218  -0.256  -0.064  0.00  0.00    +0.002 A 
ATOM     30  C   UNL     1       7.368  -1.617   0.233  0.00  0.00    +0.000 A 
ENDBRANCH  18  22
ENDBRANCH  16  18
ENDBRANCH  11  16
TORSDOF 5
