REMARK  Name = 11913301
REMARK  8 active torsions:
REMARK  status: ('A' for Active; 'I' for Inactive)
REMARK    1  A    between atoms: O_4  and  C_25
REMARK    2  A    between atoms: N_7  and  C_14
REMARK    3  A    between atoms: N_8  and  C_17
REMARK    4  A    between atoms: C_11  and  C_18
REMARK    5  A    between atoms: C_11  and  C_22
REMARK    6  A    between atoms: C_18  and  C_24
REMARK    7  A    between atoms: C_22  and  C_25
REMARK    8  A    between atoms: C_27  and  C_30
REMARK                            x       y       z     vdW  Elec       q    Type
REMARK                         _______ _______ _______ _____ _____    ______ ____
ROOT
ATOM      1  O   UNL     1       0.783  -1.975  -1.755  0.00  0.00    -0.370 OA
ATOM      2  O   UNL     1      -0.226  -3.488   0.781  0.00  0.00    -0.370 OA
ATOM     12  C   UNL     1      -0.562  -2.220   0.192  0.00  0.00    +0.171 C 
ATOM     13  C   UNL     1       0.719  -1.627  -0.361  0.00  0.00    +0.171 C 
ATOM     14  C   UNL     1      -1.431  -2.421  -1.028  0.00  0.00    +0.130 C 
ATOM     17  C   UNL     1       1.814  -2.331   0.405  0.00  0.00    +0.130 C 
ATOM     21  C   UNL     1      -0.408  -2.690  -2.116  0.00  0.00    +0.185 C 
ATOM     23  C   UNL     1       1.194  -3.683   0.706  0.00  0.00    +0.185 C 
ENDROOT
BRANCH  17   8
ATOM      8  N   UNL     1       2.091  -1.623   1.636  0.00  0.00    -0.306 N 
ATOM      9  N   UNL     1       3.558  -0.166   0.579  0.00  0.00    -0.211 NA
ATOM     10  N   UNL     1       3.107   0.008   2.940  0.00  0.00    -0.223 NA
ATOM     26  C   UNL     1       2.957  -0.547   1.722  0.00  0.00    +0.216 A 
ATOM     27  C   UNL     1       4.395   0.886   0.699  0.00  0.00    +0.111 A 
ATOM     28  C   UNL     1       3.958   1.054   2.987  0.00  0.00    +0.116 A 
ATOM     29  C   UNL     1       4.636   1.542   1.889  0.00  0.00    +0.051 A 
ATOM     35  H   UNL     1       1.595  -1.881   2.482  0.00  0.00    +0.149 HD
BRANCH  27  30
ATOM      6  O   UNL     1       4.710   0.556  -1.621  0.00  0.00    -0.461 OA
ATOM     30  C   UNL     1       5.036   1.288  -0.524  0.00  0.00    +0.153 A 
ATOM     31  C   UNL     1       5.934   2.277  -0.853  0.00  0.00    +0.051 A 
ATOM     32  C   UNL     1       6.176   2.143  -2.241  0.00  0.00    +0.042 A 
ATOM     33  C   UNL     1       5.408   1.083  -2.662  0.00  0.00    +0.196 A 
ENDBRANCH  27  30
ENDBRANCH  17   8
BRANCH  14   7
ATOM      3  O   UNL     1      -4.146  -1.853  -0.197  0.00  0.00    -0.276 OA
ATOM      7  N   UNL     1      -2.205  -1.237  -1.318  0.00  0.00    -0.308 N 
ATOM     24  C   UNL     1      -3.508  -1.052  -0.874  0.00  0.00    +0.214 C 
ATOM     34  H   UNL     1      -1.751  -0.499  -1.848  0.00  0.00    +0.149 HD
BRANCH  24  18
ATOM     18  C   UNL     1      -4.068   0.284  -1.327  0.00  0.00    +0.103 C 
BRANCH  18  11
ATOM     11  C   UNL     1      -3.829   1.399  -0.307  0.00  0.00    -0.011 C 
ATOM     15  C   UNL     1      -4.248   2.768  -0.858  0.00  0.00    +0.008 C 
ATOM     16  C   UNL     1      -2.331   1.614  -0.046  0.00  0.00    +0.008 C 
ATOM     19  C   UNL     1      -3.453   3.785  -0.042  0.00  0.00    +0.001 C 
ATOM     20  C   UNL     1      -2.221   3.043   0.479  0.00  0.00    +0.001 C 
BRANCH  11  22
ATOM     22  C   UNL     1      -4.579   1.066   0.993  0.00  0.00    +0.127 C 
BRANCH  22  25
ATOM      5  O   UNL     1      -6.830   1.665   0.272  0.00  0.00    -0.251 OA
ATOM     25  C   UNL     1      -6.043   0.855   0.739  0.00  0.00    +0.305 C 
BRANCH  25   4
ATOM      4  O   UNL     1      -6.388  -0.404   1.111  0.00  0.00    -0.481 OA
ATOM     36  H   UNL     1      -7.341  -0.582   0.959  0.00  0.00    +0.295 HD
ENDBRANCH  25   4
ENDBRANCH  22  25
ENDBRANCH  11  22
ENDBRANCH  18  11
ENDBRANCH  24  18
ENDBRANCH  14   7
TORSDOF 8
