REMARK  Name = 71694092
REMARK  8 active torsions:
REMARK  status: ('A' for Active; 'I' for Inactive)
REMARK    1  A    between atoms: O_4  and  C_26
REMARK    2  A    between atoms: O_4  and  C_27
REMARK    3  A    between atoms: N_5  and  C_7
REMARK    4  A    between atoms: N_5  and  C_12
REMARK    5  A    between atoms: C_7  and  C_10
REMARK    6  A    between atoms: C_10  and  C_11
REMARK    7  A    between atoms: C_12  and  C_13
REMARK    8  A    between atoms: C_15  and  C_18
REMARK                            x       y       z     vdW  Elec       q    Type
REMARK                         _______ _______ _______ _____ _____    ______ ____
ROOT
ATOM      2  O   UNL     1      -3.349   3.600   1.067  0.00  0.00    -0.376 OA
ATOM      7  C   UNL     1      -2.283   2.086  -0.001  0.00  0.00    +0.072 C 
ATOM      8  C   UNL     1      -3.690   2.698  -0.019  0.00  0.00    +0.184 C 
ATOM      9  C   UNL     1      -2.120   2.865   1.311  0.00  0.00    +0.184 C 
ENDROOT
BRANCH   7   5
ATOM      5  N   UNL     1      -2.398   0.661   0.319  0.00  0.00    -0.302 NA
ATOM     28  H   UNL     1      -1.528   0.194   0.567  0.00  0.00    +0.123 HD
BRANCH   5  12
ATOM     12  C   UNL     1      -3.052  -0.032  -0.784  0.00  0.00    +0.118 C 
BRANCH  12  13
ATOM      1 CL   UNL     1      -1.270  -2.490  -0.222  0.00  0.00    -0.083 Cl
ATOM     13  C   UNL     1      -3.720  -1.303  -0.331  0.00  0.00    -0.015 A 
ATOM     16  C   UNL     1      -2.987  -2.457  -0.056  0.00  0.00    +0.045 A 
ATOM     17  C   UNL     1      -5.108  -1.307  -0.186  0.00  0.00    +0.006 A 
ATOM     19  C   UNL     1      -3.642  -3.616   0.363  0.00  0.00    +0.020 A 
ATOM     20  C   UNL     1      -5.762  -2.465   0.232  0.00  0.00    +0.000 A 
ATOM     21  C   UNL     1      -5.029  -3.620   0.507  0.00  0.00    +0.001 A 
ENDBRANCH  12  13
ENDBRANCH   5  12
ENDBRANCH   7   5
BRANCH   7  10
ATOM     10  C   UNL     1      -1.339   2.366  -1.141  0.00  0.00    +0.085 C 
BRANCH  10  11
ATOM      3  O   UNL     1       2.062   2.465   0.068  0.00  0.00    -0.354 OA
ATOM      6  N   UNL     1       0.829   3.054  -0.186  0.00  0.00    -0.083 NA
ATOM     11  C   UNL     1       0.088   2.084  -0.729  0.00  0.00    +0.086 A 
ATOM     14  C   UNL     1       0.793   0.874  -0.841  0.00  0.00    +0.076 A 
ATOM     15  C   UNL     1       2.028   1.167  -0.326  0.00  0.00    +0.167 A 
BRANCH  15  18
ATOM     18  C   UNL     1       3.237   0.423  -0.123  0.00  0.00    +0.020 A 
ATOM     22  C   UNL     1       3.300  -0.920  -0.494  0.00  0.00    +0.015 A 
ATOM     23  C   UNL     1       4.350   1.042   0.444  0.00  0.00    +0.015 A 
ATOM     24  C   UNL     1       4.476  -1.644  -0.297  0.00  0.00    +0.046 A 
ATOM     25  C   UNL     1       5.526   0.319   0.641  0.00  0.00    +0.046 A 
ATOM     26  C   UNL     1       5.589  -1.024   0.271  0.00  0.00    +0.120 A 
BRANCH  26   4
ATOM      4  O   UNL     1       6.738  -1.729   0.460  0.00  0.00    -0.495 OA
ATOM     27  C   UNL     1       6.734  -3.097   0.056  0.00  0.00    +0.277 C 
ENDBRANCH  26   4
ENDBRANCH  15  18
ENDBRANCH  10  11
ENDBRANCH   7  10
TORSDOF 7
