REMARK  Name = 71694321
REMARK  5 active torsions:
REMARK  status: ('A' for Active; 'I' for Inactive)
REMARK    1  A    between atoms: O_6  and  C_24
REMARK    2  A    between atoms: O_6  and  C_25
REMARK    3  A    between atoms: C_10  and  C_13
REMARK    4  A    between atoms: C_15  and  C_19
REMARK    5  A    between atoms: C_16  and  C_18
REMARK                            x       y       z     vdW  Elec       q    Type
REMARK                         _______ _______ _______ _____ _____    ______ ____
ROOT
ATOM      8  N   UNL     1       1.056   0.084   0.407  0.00  0.00    -0.340 N 
ATOM      9  N   UNL     1       2.129   1.853  -0.399  0.00  0.00    -0.238 NA
ATOM     13  C   UNL     1       2.249   0.743   0.294  0.00  0.00    +0.130 A 
ATOM     16  C   UNL     1       0.116   0.822  -0.256  0.00  0.00    +0.066 A 
ATOM     17  C   UNL     1       0.802   1.909  -0.745  0.00  0.00    +0.139 A 
ATOM     26  H   UNL     1       0.905  -0.785   0.901  0.00  0.00    +0.167 HD
ENDROOT
BRANCH  13  10
ATOM      4  O   UNL     1       5.294   1.816   0.372  0.00  0.00    -0.376 OA
ATOM      5  O   UNL     1       3.077  -2.608   0.922  0.00  0.00    -0.276 OA
ATOM      7  N   UNL     1       4.197  -0.774   0.030  0.00  0.00    -0.287 N 
ATOM     10  C   UNL     1       3.523   0.191   0.923  0.00  0.00    +0.167 C 
ATOM     11  C   UNL     1       4.508   1.260   1.427  0.00  0.00    +0.190 C 
ATOM     12  C   UNL     1       5.121  -0.197  -0.955  0.00  0.00    +0.136 C 
ATOM     14  C   UNL     1       6.051   0.809  -0.295  0.00  0.00    +0.179 C 
ATOM     15  C   UNL     1       3.854  -2.128   0.093  0.00  0.00    +0.213 C 
ATOM     19  C   UNL     1       4.492  -3.036  -0.929  0.00  0.00    +0.109 C 
ENDBRANCH  13  10
BRANCH  16  18
ATOM     18  C   UNL     1      -1.268   0.439  -0.354  0.00  0.00    +0.000 A 
ATOM     20  C   UNL     1      -2.257   1.417  -0.456  0.00  0.00    +0.013 A 
ATOM     21  C   UNL     1      -1.619  -0.911  -0.347  0.00  0.00    +0.013 A 
ATOM     22  C   UNL     1      -3.598   1.045  -0.551  0.00  0.00    +0.046 A 
ATOM     23  C   UNL     1      -2.960  -1.283  -0.443  0.00  0.00    +0.046 A 
ATOM     24  C   UNL     1      -3.950  -0.305  -0.544  0.00  0.00    +0.130 A 
BRANCH  24   6
ATOM      6  O   UNL     1      -5.258  -0.668  -0.640  0.00  0.00    -0.406 OA
BRANCH   6  25
ATOM      1  F   UNL     1      -6.747   0.944   0.004  0.00  0.00    -0.133 F 
ATOM      2  F   UNL     1      -7.130  -1.143   0.528  0.00  0.00    -0.133 F 
ATOM      3  F   UNL     1      -5.528  -0.062   1.548  0.00  0.00    -0.133 F 
ATOM     25  C   UNL     1      -6.158  -0.216   0.365  0.00  0.00    +0.575 C 
ENDBRANCH   6  25
ENDBRANCH  24   6
ENDBRANCH  16  18
TORSDOF 4
