REMARK  Name = 75536570
REMARK  7 active torsions:
REMARK  status: ('A' for Active; 'I' for Inactive)
REMARK    1  A    between atoms: O_3  and  C_8
REMARK    2  A    between atoms: N_5  and  C_16
REMARK    3  A    between atoms: N_6  and  C_9
REMARK    4  A    between atoms: N_6  and  C_18
REMARK    5  A    between atoms: C_7  and  C_16
REMARK    6  A    between atoms: C_10  and  C_17
REMARK    7  A    between atoms: C_18  and  C_19
REMARK                            x       y       z     vdW  Elec       q    Type
REMARK                         _______ _______ _______ _____ _____    ______ ____
ROOT
ATOM      2  O   UNL     1       0.768   1.073   0.482  0.00  0.00    -0.371 OA
ATOM      7  C   UNL     1       1.122  -0.162  -0.161  0.00  0.00    +0.165 C 
ATOM      8  C   UNL     1      -0.172  -0.723  -0.735  0.00  0.00    +0.164 C 
ATOM      9  C   UNL     1      -1.173  -0.286   0.318  0.00  0.00    +0.111 C 
ATOM     15  C   UNL     1      -0.658   1.102   0.664  0.00  0.00    +0.181 C 
ENDROOT
BRANCH   8   3
ATOM      3  O   UNL     1      -0.117  -2.128  -0.886  0.00  0.00    -0.388 OA
ATOM     27  H   UNL     1       0.086  -2.521  -0.019  0.00  0.00    +0.210 HD
ENDBRANCH   8   3
BRANCH   9   6
ATOM      6  N   UNL     1      -2.549  -0.279  -0.151  0.00  0.00    -0.305 NA
ATOM     26  H   UNL     1      -2.730  -1.143  -0.663  0.00  0.00    +0.123 HD
BRANCH   6  18
ATOM     18  C   UNL     1      -3.484  -0.185   0.963  0.00  0.00    +0.119 C 
BRANCH  18  19
ATOM      1  F   UNL     1      -4.697   2.107  -0.176  0.00  0.00    -0.205 F 
ATOM     19  C   UNL     1      -4.914  -0.159   0.495  0.00  0.00    +0.002 A 
ATOM     20  C   UNL     1      -5.449   1.004  -0.057  0.00  0.00    +0.128 A 
ATOM     21  C   UNL     1      -5.705  -1.302   0.613  0.00  0.00    +0.008 A 
ATOM     22  C   UNL     1      -6.775   1.025  -0.491  0.00  0.00    +0.038 A 
ATOM     23  C   UNL     1      -7.030  -1.282   0.179  0.00  0.00    +0.000 A 
ATOM     24  C   UNL     1      -7.565  -0.118  -0.373  0.00  0.00    +0.003 A 
ENDBRANCH  18  19
ENDBRANCH   6  18
ENDBRANCH   9   6
BRANCH   7  16
ATOM     16  C   UNL     1       2.185   0.094  -1.215  0.00  0.00    +0.138 C 
BRANCH  16   5
ATOM      4  O   UNL     1       4.463  -1.394  -0.203  0.00  0.00    -0.276 OA
ATOM      5  N   UNL     1       3.382   0.625  -0.630  0.00  0.00    -0.313 N 
ATOM     17  C   UNL     1       4.428  -0.167  -0.170  0.00  0.00    +0.216 C 
ATOM     25  H   UNL     1       3.459   1.635  -0.556  0.00  0.00    +0.149 HD
BRANCH  17  10
ATOM     10  C   UNL     1       5.568   0.642   0.372  0.00  0.00    +0.075 C 
ATOM     11  C   UNL     1       6.577   0.948  -0.740  0.00  0.00    +0.013 C 
ATOM     12  C   UNL     1       6.331  -0.147   1.437  0.00  0.00    +0.013 C 
ATOM     13  C   UNL     1       7.918   0.418  -0.243  0.00  0.00    +0.001 C 
ATOM     14  C   UNL     1       7.544  -0.705   0.707  0.00  0.00    +0.001 C 
ENDBRANCH  17  10
ENDBRANCH  16   5
ENDBRANCH   7  16
TORSDOF 7
