REMARK  Name = 75537020
REMARK  3 active torsions:
REMARK  status: ('A' for Active; 'I' for Inactive)
REMARK    1  A    between atoms: N_3  and  C_8
REMARK    2  A    between atoms: N_6  and  C_20
REMARK    3  A    between atoms: C_20  and  C_21
REMARK                            x       y       z     vdW  Elec       q    Type
REMARK                         _______ _______ _______ _____ _____    ______ ____
ROOT
ATOM      1  O   UNL     1       1.729  -2.635   0.534  0.00  0.00    -0.252 OA
ATOM      2  O   UNL     1      -4.906  -0.813  -0.151  0.00  0.00    -0.253 OA
ATOM      3  N   UNL     1       1.875  -0.309   0.175  0.00  0.00    -0.281 N 
ATOM      4  N   UNL     1      -0.160  -1.254   0.311  0.00  0.00    -0.278 N 
ATOM      5  N   UNL     1      -2.661  -0.433  -0.584  0.00  0.00    -0.282 N 
ATOM      6  N   UNL     1      -4.191   1.355  -0.357  0.00  0.00    -0.300 N 
ATOM      7  C   UNL     1      -0.423   0.172   0.213  0.00  0.00    +0.112 C 
ATOM      9  C   UNL     1       0.945   0.772  -0.101  0.00  0.00    +0.133 C 
ATOM     12  C   UNL     1      -1.495   0.437  -0.840  0.00  0.00    +0.133 C 
ATOM     13  C   UNL     1       1.212  -1.538   0.366  0.00  0.00    +0.305 C 
ATOM     14  C   UNL     1      -1.265  -2.188   0.443  0.00  0.00    +0.128 C 
ATOM     18  C   UNL     1      -2.345  -1.870  -0.591  0.00  0.00    +0.128 C 
ATOM     19  C   UNL     1      -3.982  -0.018  -0.352  0.00  0.00    +0.302 C 
ATOM     22  H   UNL     1      -3.431   2.008  -0.483  0.00  0.00    +0.150 HD
ENDROOT
BRANCH   3   8
ATOM      8  C   UNL     1       3.304  -0.124   0.105  0.00  0.00    +0.078 C 
ATOM     10  C   UNL     1       3.784   0.780   1.244  0.00  0.00    +0.022 C 
ATOM     11  C   UNL     1       3.712   0.436  -1.260  0.00  0.00    +0.022 C 
ATOM     15  C   UNL     1       5.287   1.036   1.163  0.00  0.00    +0.002 C 
ATOM     16  C   UNL     1       5.215   0.691  -1.337  0.00  0.00    +0.002 C 
ATOM     17  C   UNL     1       5.692   1.590  -0.200  0.00  0.00    +0.000 C 
ENDBRANCH   3   8
BRANCH   6  20
ATOM     20  C   UNL     1      -5.495   1.936  -0.129  0.00  0.00    +0.102 C 
ATOM     21  C   UNL     1      -5.832   1.979   1.348  0.00  0.00    +0.024 C 
ENDBRANCH   6  20
TORSDOF 2
