REMARK  Name = 26743419
REMARK  9 active torsions:
REMARK  status: ('A' for Active; 'I' for Inactive)
REMARK    1  A    between atoms: O_3  and  C_19
REMARK    2  A    between atoms: O_3  and  C_26
REMARK    3  A    between atoms: N_4  and  C_9
REMARK    4  A    between atoms: N_5  and  C_17
REMARK    5  A    between atoms: C_7  and  C_10
REMARK    6  A    between atoms: C_13  and  C_15
REMARK    7  A    between atoms: C_14  and  C_16
REMARK    8  A    between atoms: C_18  and  C_19
REMARK    9  A    between atoms: C_24  and  C_25
REMARK                            x       y       z     vdW  Elec       q    Type
REMARK                         _______ _______ _______ _____ _____    ______ ____
ROOT
ATOM      7  C   UNL     1      -0.246   1.086  -0.737  0.00  0.00    +0.047 C 
ATOM      8  C   UNL     1       0.450  -0.251  -0.409  0.00  0.00    +0.039 C 
ATOM      9  C   UNL     1       1.331  -0.574  -1.622  0.00  0.00    +0.097 C 
ATOM     11  C   UNL     1      -0.161   1.135  -2.235  0.00  0.00    -0.021 C 
ATOM     12  C   UNL     1       0.702   0.231  -2.712  0.00  0.00    -0.009 C 
ENDROOT
BRANCH   7  10
ATOM      5  N   UNL     1      -3.752   0.840   0.297  0.00  0.00    -0.236 N 
ATOM      6  N   UNL     1      -3.447   1.941   1.006  0.00  0.00    -0.171 NA
ATOM     10  C   UNL     1      -1.648   1.182  -0.180  0.00  0.00    +0.003 A 
ATOM     13  C   UNL     1      -2.709   0.346  -0.430  0.00  0.00    +0.046 A 
ATOM     14  C   UNL     1      -2.160   2.145   0.710  0.00  0.00    +0.064 A 
ATOM     15  C   UNL     1      -2.812  -0.856  -1.282  0.00  0.00    +0.066 C 
ATOM     16  C   UNL     1      -1.451   3.288   1.311  0.00  0.00    +0.068 C 
BRANCH   5  17
ATOM      1 CL   UNL     1      -6.752  -3.129   1.435  0.00  0.00    -0.083 Cl
ATOM     17  C   UNL     1      -5.043   0.315   0.356  0.00  0.00    +0.067 A 
ATOM     20  C   UNL     1      -5.247  -0.988   0.812  0.00  0.00    +0.048 A 
ATOM     21  C   UNL     1      -6.130   1.092  -0.043  0.00  0.00    +0.028 A 
ATOM     22  C   UNL     1      -6.537  -1.513   0.868  0.00  0.00    +0.046 A 
ATOM     23  C   UNL     1      -7.421   0.567   0.014  0.00  0.00    +0.007 A 
ATOM     24  C   UNL     1      -7.625  -0.736   0.469  0.00  0.00    -0.032 A 
ATOM     25  C   UNL     1      -9.023  -1.261   0.516  0.00  0.00    +0.045 C 
ENDBRANCH   5  17
ENDBRANCH   7  10
BRANCH   9   4
ATOM      2  O   UNL     1       3.539  -2.155  -0.626  0.00  0.00    -0.272 OA
ATOM      4  N   UNL     1       2.694  -0.150  -1.449  0.00  0.00    -0.306 N 
ATOM     18  C   UNL     1       3.693  -0.984  -0.960  0.00  0.00    +0.251 C 
ATOM     32  H   UNL     1       2.931   0.817  -1.659  0.00  0.00    +0.149 HD
BRANCH  18  19
ATOM     19  C   UNL     1       5.031  -0.279  -0.882  0.00  0.00    +0.324 C 
BRANCH  19   3
ATOM      3  O   UNL     1       6.027  -1.154  -0.396  0.00  0.00    -0.483 OA
BRANCH   3  26
ATOM     26  C   UNL     1       7.064  -0.593   0.311  0.00  0.00    +0.121 A 
ATOM     27  C   UNL     1       7.477   0.710   0.028  0.00  0.00    +0.045 A 
ATOM     28  C   UNL     1       7.703  -1.325   1.311  0.00  0.00    +0.045 A 
ATOM     29  C   UNL     1       8.529   1.279   0.746  0.00  0.00    +0.004 A 
ATOM     30  C   UNL     1       8.755  -0.756   2.028  0.00  0.00    +0.004 A 
ATOM     31  C   UNL     1       9.168   0.546   1.746  0.00  0.00    +0.000 A 
ENDBRANCH   3  26
ENDBRANCH  19   3
ENDBRANCH  18  19
ENDBRANCH   9   4
TORSDOF 6
