REMARK  Name = 51138139
REMARK  10 active torsions:
REMARK  status: ('A' for Active; 'I' for Inactive)
REMARK    1  A    between atoms: N_4  and  C_10
REMARK    2  A    between atoms: N_5  and  C_24
REMARK    3  A    between atoms: C_7  and  C_10
REMARK    4  A    between atoms: C_11  and  C_17
REMARK    5  A    between atoms: C_12  and  C_18
REMARK    6  A    between atoms: C_17  and  C_20
REMARK    7  A    between atoms: C_20  and  C_26
REMARK    8  A    between atoms: C_20  and  C_27
REMARK    9  A    between atoms: C_24  and  C_28
REMARK   10  A    between atoms: C_30  and  C_31
REMARK                            x       y       z     vdW  Elec       q    Type
REMARK                         _______ _______ _______ _____ _____    ______ ____
ROOT
ATOM      3  N   UNL     1      -1.868  -0.234  -0.439  0.00  0.00    -0.299 NA
ATOM      5  N   UNL     1       2.833   0.847   1.056  0.00  0.00    -0.340 N 
ATOM     11  C   UNL     1      -1.383  -1.438   0.250  0.00  0.00    +0.085 C 
ATOM     12  C   UNL     1      -1.819   0.983   0.358  0.00  0.00    +0.145 C 
ATOM     13  C   UNL     1      -0.562   1.798   0.060  0.00  0.00    +0.065 C 
ATOM     14  C   UNL     1       0.098  -1.433   0.643  0.00  0.00    -0.021 A 
ATOM     15  C   UNL     1       0.926  -0.275   0.707  0.00  0.00    +0.008 A 
ATOM     16  C   UNL     1       0.705   1.127   0.471  0.00  0.00    -0.020 A 
ATOM     19  C   UNL     1       2.264  -0.405   1.095  0.00  0.00    +0.050 A 
ATOM     21  C   UNL     1       1.904   1.774   0.688  0.00  0.00    +0.091 A 
ATOM     22  C   UNL     1       0.695  -2.652   1.054  0.00  0.00    +0.006 A 
ATOM     23  C   UNL     1       2.847  -1.622   1.452  0.00  0.00    +0.026 A 
ATOM     25  C   UNL     1       2.032  -2.747   1.437  0.00  0.00    +0.002 A 
ATOM     32  H   UNL     1      -1.393  -0.110  -1.332  0.00  0.00    +0.123 HD
ENDROOT
BRANCH  12  18
ATOM      1  O   UNL     1      -2.982   2.587  -0.973  0.00  0.00    -0.274 OA
ATOM      4  N   UNL     1      -4.133   1.481   0.722  0.00  0.00    -0.314 N 
ATOM     18  C   UNL     1      -3.025   1.772  -0.055  0.00  0.00    +0.230 C 
ATOM     33  H   UNL     1      -4.065   0.766   1.441  0.00  0.00    +0.149 HD
BRANCH   4  10
ATOM     10  C   UNL     1      -5.415   2.122   0.542  0.00  0.00    +0.107 C 
BRANCH  10   7
ATOM      7  C   UNL     1      -6.263   1.367  -0.425  0.00  0.00    +0.006 C 
ATOM      8  C   UNL     1      -7.167   0.283   0.084  0.00  0.00    +0.005 C 
ATOM      9  C   UNL     1      -7.749   1.573  -0.414  0.00  0.00    +0.005 C 
ENDBRANCH  10   7
ENDBRANCH   4  10
ENDBRANCH  12  18
BRANCH  11  17
ATOM     17  C   UNL     1      -1.738  -2.598  -0.698  0.00  0.00    +0.026 C 
BRANCH  17  20
ATOM     20  C   UNL     1      -3.223  -2.971  -0.657  0.00  0.00    -0.015 C 
ATOM     26  C   UNL     1      -3.469  -4.164  -1.583  0.00  0.00    +0.007 C 
ATOM     27  C   UNL     1      -4.133  -1.809  -1.057  0.00  0.00    +0.007 C 
ENDBRANCH  17  20
ENDBRANCH  11  17
BRANCH   5  24
ATOM     24  C   UNL     1       4.210   1.156   1.376  0.00  0.00    +0.180 C 
BRANCH  24  28
ATOM      2  O   UNL     1       6.861  -0.084  -0.733  0.00  0.00    -0.360 OA
ATOM      6  N   UNL     1       6.190  -0.005   0.482  0.00  0.00    -0.081 NA
ATOM     28  C   UNL     1       5.171   0.830   0.260  0.00  0.00    +0.103 A 
ATOM     29  C   UNL     1       5.148   1.304  -1.064  0.00  0.00    +0.072 A 
ATOM     30  C   UNL     1       6.231   0.699  -1.645  0.00  0.00    +0.135 A 
ATOM     31  C   UNL     1       6.812   0.733  -2.992  0.00  0.00    +0.089 C 
ENDBRANCH  24  28
ENDBRANCH   5  24
TORSDOF 7
