REMARK  Name = 38028183
REMARK  9 active torsions:
REMARK  status: ('A' for Active; 'I' for Inactive)
REMARK    1  A    between atoms: N_4  and  C_13
REMARK    2  A    between atoms: C_6  and  C_10
REMARK    3  A    between atoms: C_7  and  C_13
REMARK    4  A    between atoms: C_9  and  C_14
REMARK    5  A    between atoms: C_10  and  C_15
REMARK    6  A    between atoms: C_10  and  C_16
REMARK    7  A    between atoms: C_11  and  C_17
REMARK    8  A    between atoms: C_14  and  C_18
REMARK    9  A    between atoms: C_21  and  C_24
REMARK                            x       y       z     vdW  Elec       q    Type
REMARK                         _______ _______ _______ _____ _____    ______ ____
ROOT
ATOM      6  C   UNL     1      -0.712  -2.271  -0.667  0.00  0.00    +0.000 C 
ATOM      7  C   UNL     1      -1.791  -2.662   0.373  0.00  0.00    +0.032 C 
ATOM      8  C   UNL     1       0.676  -2.740  -0.202  0.00  0.00    +0.012 C 
ATOM      9  C   UNL     1       1.069  -2.138   1.160  0.00  0.00    +0.023 C 
ATOM     11  C   UNL     1      -0.056  -2.247   2.170  0.00  0.00    -0.073 C 
ATOM     12  C   UNL     1      -1.325  -2.496   1.800  0.00  0.00    -0.022 C 
ATOM     17  C   UNL     1       0.320  -2.110   3.619  0.00  0.00    +0.039 C 
ENDROOT
BRANCH   6  10
ATOM     10  C   UNL     1      -1.019  -2.850  -2.051  0.00  0.00    -0.013 C 
ATOM     15  C   UNL     1      -0.349  -2.015  -3.138  0.00  0.00    +0.007 C 
ATOM     16  C   UNL     1      -0.566  -4.304  -2.131  0.00  0.00    +0.007 C 
ENDBRANCH   6  10
BRANCH   7  13
ATOM     13  C   UNL     1      -3.081  -1.862   0.160  0.00  0.00    +0.112 C 
BRANCH  13   4
ATOM      3  O   UNL     1      -3.434   0.302  -1.694  0.00  0.00    -0.270 OA
ATOM      4  N   UNL     1      -2.864  -0.473   0.418  0.00  0.00    -0.311 N 
ATOM     21  C   UNL     1      -3.061   0.518  -0.544  0.00  0.00    +0.244 C 
ATOM     30  H   UNL     1      -2.643  -0.208   1.373  0.00  0.00    +0.149 HD
BRANCH  21  24
ATOM     24  C   UNL     1      -2.766   1.912  -0.125  0.00  0.00    +0.037 A 
ATOM     25  C   UNL     1      -3.424   2.978  -0.740  0.00  0.00    +0.013 A 
ATOM     26  C   UNL     1      -1.834   2.157   0.883  0.00  0.00    +0.013 A 
ATOM     27  C   UNL     1      -3.149   4.287  -0.346  0.00  0.00    +0.001 A 
ATOM     28  C   UNL     1      -1.560   3.466   1.277  0.00  0.00    +0.001 A 
ATOM     29  C   UNL     1      -2.217   4.532   0.662  0.00  0.00    +0.000 A 
ENDBRANCH  21  24
ENDBRANCH  13   4
ENDBRANCH   7  13
BRANCH   9  14
ATOM     14  C   UNL     1       1.530  -0.684   1.008  0.00  0.00    +0.103 C 
BRANCH  14  18
ATOM      1  O   UNL     1       3.481  -1.703   0.127  0.00  0.00    -0.276 OA
ATOM      2  O   UNL     1       4.315   3.056  -0.928  0.00  0.00    -0.377 OA
ATOM      5  N   UNL     1       3.464   0.617   0.198  0.00  0.00    -0.297 N 
ATOM     18  C   UNL     1       2.913  -0.645   0.407  0.00  0.00    +0.216 C 
ATOM     19  C   UNL     1       4.799   0.746  -0.386  0.00  0.00    +0.136 C 
ATOM     20  C   UNL     1       2.872   1.887   0.633  0.00  0.00    +0.136 C 
ATOM     22  C   UNL     1       4.806   1.823  -1.461  0.00  0.00    +0.179 C 
ATOM     23  C   UNL     1       2.963   2.921  -0.482  0.00  0.00    +0.179 C 
ENDBRANCH  14  18
ENDBRANCH   9  14
TORSDOF 6
