REMARK  Name = 75536253
REMARK  7 active torsions:
REMARK  status: ('A' for Active; 'I' for Inactive)
REMARK    1  A    between atoms: O_3  and  C_9
REMARK    2  A    between atoms: N_5  and  C_11
REMARK    3  A    between atoms: N_5  and  C_14
REMARK    4  A    between atoms: C_8  and  C_14
REMARK    5  A    between atoms: C_10  and  C_17
REMARK    6  A    between atoms: C_17  and  C_20
REMARK    7  A    between atoms: C_22  and  C_23
REMARK                            x       y       z     vdW  Elec       q    Type
REMARK                         _______ _______ _______ _____ _____    ______ ____
ROOT
ATOM      2  O   UNL     1       2.659  -1.140   0.847  0.00  0.00    -0.369 OA
ATOM      8  C   UNL     1       3.527  -0.041   1.152  0.00  0.00    +0.161 C 
ATOM      9  C   UNL     1       4.988  -0.375   0.824  0.00  0.00    +0.145 C 
ATOM     10  C   UNL     1       2.733  -1.618  -0.498  0.00  0.00    +0.125 C 
ATOM     12  C   UNL     1       5.151  -0.948  -0.582  0.00  0.00    +0.036 C 
ATOM     13  C   UNL     1       4.152  -2.074  -0.832  0.00  0.00    +0.034 C 
ENDROOT
BRANCH   9   3
ATOM      3  O   UNL     1       5.456  -1.357   1.752  0.00  0.00    -0.389 OA
ATOM     31  H   UNL     1       6.395  -1.520   1.559  0.00  0.00    +0.210 HD
ENDBRANCH   9   3
BRANCH   8  14
ATOM     14  C   UNL     1       3.044   1.244   0.482  0.00  0.00    +0.115 C 
BRANCH  14   5
ATOM      5  N   UNL     1       1.664   1.530   0.843  0.00  0.00    -0.311 NA
ATOM     29  H   UNL     1       1.135   0.657   0.833  0.00  0.00    +0.122 HD
BRANCH   5  11
ATOM      6  N   UNL     1      -0.653   4.786  -0.617  0.00  0.00    -0.316 NA
ATOM     11  C   UNL     1       1.057   2.462  -0.105  0.00  0.00    +0.056 C 
ATOM     15  C   UNL     1       1.529   3.897   0.157  0.00  0.00    +0.034 C 
ATOM     16  C   UNL     1      -0.471   2.385  -0.019  0.00  0.00    +0.034 C 
ATOM     18  C   UNL     1       0.802   4.884  -0.756  0.00  0.00    +0.082 C 
ATOM     19  C   UNL     1      -1.120   3.432  -0.926  0.00  0.00    +0.082 C 
ATOM     30  H   UNL     1      -1.098   5.448  -1.252  0.00  0.00    +0.122 HD
ENDBRANCH   5  11
ENDBRANCH  14   5
ENDBRANCH   8  14
BRANCH  10  17
ATOM     17  C   UNL     1       1.747  -2.773  -0.629  0.00  0.00    +0.090 C 
BRANCH  17  20
ATOM      4  O   UNL     1      -1.480  -1.611  -1.736  0.00  0.00    -0.354 OA
ATOM      7  N   UNL     1      -0.179  -2.038  -1.974  0.00  0.00    -0.083 NA
ATOM     20  C   UNL     1       0.330  -2.284  -0.763  0.00  0.00    +0.087 A 
ATOM     21  C   UNL     1      -0.594  -2.032   0.266  0.00  0.00    +0.076 A 
ATOM     22  C   UNL     1      -1.716  -1.612  -0.399  0.00  0.00    +0.167 A 
BRANCH  22  23
ATOM      1  F   UNL     1      -6.805   0.008   1.157  0.00  0.00    -0.205 F 
ATOM     23  C   UNL     1      -3.027  -1.193   0.002  0.00  0.00    +0.020 A 
ATOM     24  C   UNL     1      -3.366  -1.163   1.355  0.00  0.00    +0.014 A 
ATOM     25  C   UNL     1      -3.964  -0.818  -0.960  0.00  0.00    +0.014 A 
ATOM     26  C   UNL     1      -4.642  -0.757   1.745  0.00  0.00    +0.039 A 
ATOM     27  C   UNL     1      -5.240  -0.412  -0.570  0.00  0.00    +0.039 A 
ATOM     28  C   UNL     1      -5.579  -0.382   0.783  0.00  0.00    +0.123 A 
ENDBRANCH  22  23
ENDBRANCH  17  20
ENDBRANCH  10  17
TORSDOF 7
