REMARK  Name = 26743862
REMARK  5 active torsions:
REMARK  status: ('A' for Active; 'I' for Inactive)
REMARK    1  A    between atoms: O_2  and  C_11
REMARK    2  A    between atoms: N_4  and  C_7
REMARK    3  A    between atoms: C_8  and  C_14
REMARK    4  A    between atoms: C_17  and  C_18
REMARK    5  A    between atoms: C_21  and  C_24
REMARK                            x       y       z     vdW  Elec       q    Type
REMARK                         _______ _______ _______ _____ _____    ______ ____
ROOT
ATOM      4  N   UNL     1      -2.411  -0.336  -0.400  0.00  0.00    -0.286 NA
ATOM      8  C   UNL     1      -1.871  -1.286   0.593  0.00  0.00    +0.149 C 
ATOM      9  C   UNL     1      -3.538  -1.007  -1.045  0.00  0.00    +0.116 C 
ATOM     10  C   UNL     1      -2.219  -2.679   0.035  0.00  0.00    +0.061 C 
ATOM     11  C   UNL     1      -2.993  -2.408  -1.248  0.00  0.00    +0.130 C 
ENDROOT
BRANCH   4   7
ATOM      1  O   UNL     1      -2.469   3.808   0.276  0.00  0.00    -0.380 OA
ATOM      7  C   UNL     1      -2.795   0.949   0.181  0.00  0.00    +0.062 C 
ATOM     12  C   UNL     1      -1.587   1.615   0.844  0.00  0.00    +0.047 C 
ATOM     13  C   UNL     1      -3.390   1.878  -0.881  0.00  0.00    +0.047 C 
ATOM     15  C   UNL     1      -1.957   3.009   1.342  0.00  0.00    +0.161 C 
ATOM     16  C   UNL     1      -3.660   3.256  -0.288  0.00  0.00    +0.161 C 
ENDBRANCH   4   7
BRANCH   8  14
ATOM      3  O   UNL     1       0.085  -1.471   2.047  0.00  0.00    -0.336 OA
ATOM      5  N   UNL     1       0.530  -0.635   0.018  0.00  0.00    -0.190 NA
ATOM      6  N   UNL     1       1.461  -1.212   2.026  0.00  0.00    -0.056 NA
ATOM     14  C   UNL     1      -0.386  -1.103   0.827  0.00  0.00    +0.245 A 
ATOM     17  C   UNL     1       1.647  -0.721   0.798  0.00  0.00    +0.202 A 
BRANCH  17  18
ATOM     18  C   UNL     1       2.934  -0.309   0.318  0.00  0.00    +0.023 A 
ATOM     19  C   UNL     1       3.068   0.197  -0.975  0.00  0.00    +0.015 A 
ATOM     20  C   UNL     1       4.052  -0.413   1.146  0.00  0.00    +0.012 A 
ATOM     21  C   UNL     1       4.321   0.599  -1.440  0.00  0.00    -0.050 A 
ATOM     22  C   UNL     1       5.304  -0.011   0.680  0.00  0.00    +0.001 A 
ATOM     23  C   UNL     1       5.439   0.495  -0.612  0.00  0.00    +0.003 A 
ATOM     24  C   UNL     1       4.464   1.140  -2.822  0.00  0.00    +0.044 C 
ENDBRANCH  17  18
ENDBRANCH   8  14
BRANCH  11   2
ATOM      2  O   UNL     1      -4.029  -3.355  -1.419  0.00  0.00    -0.390 OA
ATOM     25  H   UNL     1      -3.616  -4.234  -1.467  0.00  0.00    +0.210 HD
ENDBRANCH  11   2
TORSDOF 4
