REMARK  Name = 75536635
REMARK  6 active torsions:
REMARK  status: ('A' for Active; 'I' for Inactive)
REMARK    1  A    between atoms: O_3  and  C_9
REMARK    2  A    between atoms: N_6  and  C_8
REMARK    3  A    between atoms: N_6  and  C_11
REMARK    4  A    between atoms: N_7  and  C_15
REMARK    5  A    between atoms: C_10  and  C_15
REMARK    6  A    between atoms: C_18  and  C_19
REMARK                            x       y       z     vdW  Elec       q    Type
REMARK                         _______ _______ _______ _____ _____    ______ ____
ROOT
ATOM      2  O   UNL     1      -0.409   0.453  -0.899  0.00  0.00    -0.371 OA
ATOM      8  C   UNL     1      -2.533  -0.326  -0.177  0.00  0.00    +0.111 C 
ATOM      9  C   UNL     1      -1.588  -1.507  -0.297  0.00  0.00    +0.164 C 
ATOM     10  C   UNL     1      -0.236  -0.809  -0.232  0.00  0.00    +0.165 C 
ATOM     12  C   UNL     1      -1.817   0.719  -1.017  0.00  0.00    +0.181 C 
ENDROOT
BRANCH   9   3
ATOM      3  O   UNL     1      -1.749  -2.444   0.750  0.00  0.00    -0.388 OA
ATOM     26  H   UNL     1      -1.633  -1.980   1.596  0.00  0.00    +0.210 HD
ENDBRANCH   9   3
BRANCH   8   6
ATOM      6  N   UNL     1      -3.880  -0.606  -0.649  0.00  0.00    -0.306 NA
ATOM     25  H   UNL     1      -4.186  -1.518  -0.313  0.00  0.00    +0.123 HD
BRANCH   6  11
ATOM      4  O   UNL     1      -7.423   1.118   0.801  0.00  0.00    -0.380 OA
ATOM     11  C   UNL     1      -4.817   0.424  -0.208  0.00  0.00    +0.058 C 
ATOM     13  C   UNL     1      -5.212   0.218   1.258  0.00  0.00    +0.047 C 
ATOM     14  C   UNL     1      -6.066   0.422  -1.093  0.00  0.00    +0.047 C 
ATOM     16  C   UNL     1      -6.289   1.218   1.662  0.00  0.00    +0.161 C 
ATOM     17  C   UNL     1      -7.096   1.411  -0.558  0.00  0.00    +0.161 C 
ENDBRANCH   6  11
ENDBRANCH   8   6
BRANCH  10  15
ATOM     15  C   UNL     1       0.878  -1.594  -0.899  0.00  0.00    +0.138 C 
BRANCH  15   7
ATOM      5  O   UNL     1       2.828  -1.814   1.197  0.00  0.00    -0.270 OA
ATOM      7  N   UNL     1       2.130  -0.898  -0.817  0.00  0.00    -0.309 N 
ATOM     18  C   UNL     1       3.017  -1.066   0.242  0.00  0.00    +0.244 C 
ATOM     27  H   UNL     1       2.316  -0.211  -1.539  0.00  0.00    +0.149 HD
BRANCH  18  19
ATOM      1  F   UNL     1       7.711   2.009   0.056  0.00  0.00    -0.205 F 
ATOM     19  C   UNL     1       4.259  -0.252   0.192  0.00  0.00    +0.037 A 
ATOM     20  C   UNL     1       4.912   0.095   1.375  0.00  0.00    +0.016 A 
ATOM     21  C   UNL     1       4.772   0.165  -1.036  0.00  0.00    +0.016 A 
ATOM     22  C   UNL     1       6.078   0.859   1.329  0.00  0.00    +0.039 A 
ATOM     23  C   UNL     1       5.938   0.929  -1.082  0.00  0.00    +0.039 A 
ATOM     24  C   UNL     1       6.591   1.276   0.101  0.00  0.00    +0.123 A 
ENDBRANCH  18  19
ENDBRANCH  15   7
ENDBRANCH  10  15
TORSDOF 6
