REMARK  Name = 45783375
REMARK  8 active torsions:
REMARK  status: ('A' for Active; 'I' for Inactive)
REMARK    1  A    between atoms: O_2  and  C_27
REMARK    2  A    between atoms: O_2  and  C_28
REMARK    3  A    between atoms: N_3  and  C_9
REMARK    4  A    between atoms: N_6  and  C_25
REMARK    5  A    between atoms: C_8  and  C_9
REMARK    6  A    between atoms: C_10  and  C_19
REMARK    7  A    between atoms: C_20  and  C_21
REMARK    8  A    between atoms: C_25  and  C_27
REMARK                            x       y       z     vdW  Elec       q    Type
REMARK                         _______ _______ _______ _____ _____    ______ ____
ROOT
ATOM      1  O   UNL     1       0.703  -2.722   1.727  0.00  0.00    -0.336 OA
ATOM      4  N   UNL     1       0.668  -0.921   0.396  0.00  0.00    -0.190 NA
ATOM      5  N   UNL     1       1.935  -2.080   1.907  0.00  0.00    -0.056 NA
ATOM     19  C   UNL     1       0.018  -1.974   0.822  0.00  0.00    +0.245 A 
ATOM     20  C   UNL     1       1.838  -1.028   1.089  0.00  0.00    +0.205 A 
ENDROOT
BRANCH  20  21
ATOM      6  N   UNL     1       2.256   0.382  -1.341  0.00  0.00    -0.326 N 
ATOM      7  N   UNL     1       4.094   1.542  -0.406  0.00  0.00    -0.240 NA
ATOM     21  C   UNL     1       2.892  -0.066   0.941  0.00  0.00    +0.062 A 
ATOM     22  C   UNL     1       3.110   0.631  -0.237  0.00  0.00    +0.130 A 
ATOM     23  C   UNL     1       3.738   0.190   2.015  0.00  0.00    +0.016 A 
ATOM     24  C   UNL     1       4.762   1.121   1.879  0.00  0.00    +0.020 A 
ATOM     26  C   UNL     1       4.897   1.764   0.659  0.00  0.00    +0.113 A 
ATOM     29  H   UNL     1       1.793  -0.521  -1.351  0.00  0.00    +0.148 HD
BRANCH   6  25
ATOM     25  C   UNL     1       2.403   1.050  -2.592  0.00  0.00    +0.131 C 
BRANCH  25  27
ATOM     27  C   UNL     1       1.320   0.594  -3.555  0.00  0.00    +0.178 C 
BRANCH  27   2
ATOM      2  O   UNL     1       0.042   0.865  -2.994  0.00  0.00    -0.381 OA
ATOM     28  C   UNL     1      -1.006   0.449  -3.858  0.00  0.00    +0.194 C 
ENDBRANCH  27   2
ENDBRANCH  25  27
ENDBRANCH   6  25
ENDBRANCH  20  21
BRANCH  19  10
ATOM      3  N   UNL     1      -2.260  -1.369   0.026  0.00  0.00    -0.291 NA
ATOM     10  C   UNL     1      -1.366  -2.464   0.452  0.00  0.00    +0.146 C 
ATOM     13  C   UNL     1      -3.211  -1.955  -0.919  0.00  0.00    +0.085 C 
ATOM     14  C   UNL     1      -1.352  -3.442  -0.738  0.00  0.00    +0.030 C 
ATOM     15  C   UNL     1      -2.313  -2.844  -1.755  0.00  0.00    +0.017 C 
BRANCH   3   9
ATOM      9  C   UNL     1      -2.930  -0.710   1.140  0.00  0.00    +0.088 C 
BRANCH   9   8
ATOM      8  C   UNL     1      -3.401   0.688   0.742  0.00  0.00    +0.003 C 
ATOM     11  C   UNL     1      -4.083   1.388   1.925  0.00  0.00    +0.005 C 
ATOM     12  C   UNL     1      -2.228   1.525   0.214  0.00  0.00    +0.005 C 
ATOM     16  C   UNL     1      -4.515   2.808   1.567  0.00  0.00    +0.000 C 
ATOM     17  C   UNL     1      -2.663   2.945  -0.141  0.00  0.00    +0.000 C 
ATOM     18  C   UNL     1      -3.348   3.634   1.035  0.00  0.00    +0.000 C 
ENDBRANCH   9   8
ENDBRANCH   3   9
ENDBRANCH  19  10
TORSDOF 7
