REMARK  Name = 71693207
REMARK  16 active torsions:
REMARK  status: ('A' for Active; 'I' for Inactive)
REMARK    1  A    between atoms: O_2  and  C_29
REMARK    2  A    between atoms: O_4  and  C_37
REMARK    3  A    between atoms: O_4  and  C_38
REMARK    4  A    between atoms: N_6  and  C_21
REMARK    5  A    between atoms: C_9  and  C_18
REMARK    6  A    between atoms: C_9  and  C_20
REMARK    7  A    between atoms: C_10  and  C_19
REMARK    8  A    between atoms: C_13  and  C_21
REMARK    9  A    between atoms: C_17  and  C_24
REMARK   10  A    between atoms: C_18  and  C_25
REMARK   11  A    between atoms: C_19  and  C_26
REMARK   12  A    between atoms: C_19  and  C_27
REMARK   13  A    between atoms: C_20  and  C_29
REMARK   14  A    between atoms: C_22  and  C_28
REMARK   15  A    between atoms: C_24  and  C_30
REMARK   16  A    between atoms: C_35  and  C_37
REMARK                            x       y       z     vdW  Elec       q    Type
REMARK                         _______ _______ _______ _____ _____    ______ ____
ROOT
ATOM     10  C   UNL     1      -1.063   2.360   0.947  0.00  0.00    +0.000 C 
ATOM     13  C   UNL     1      -2.112   3.342   0.367  0.00  0.00    +0.032 C 
ATOM     14  C   UNL     1       0.335   2.684   0.398  0.00  0.00    +0.012 C 
ATOM     17  C   UNL     1       0.391   2.605  -1.139  0.00  0.00    +0.022 C 
ATOM     22  C   UNL     1      -0.774   3.331  -1.782  0.00  0.00    -0.073 C 
ATOM     23  C   UNL     1      -1.878   3.663  -1.090  0.00  0.00    -0.022 C 
ATOM     28  C   UNL     1      -0.621   3.706  -3.230  0.00  0.00    +0.039 C 
ENDROOT
BRANCH  10  19
ATOM     19  C   UNL     1      -1.039   2.393   2.478  0.00  0.00    -0.013 C 
ATOM     26  C   UNL     1      -0.208   3.572   2.973  0.00  0.00    +0.007 C 
ATOM     27  C   UNL     1      -0.495   1.079   3.030  0.00  0.00    +0.007 C 
ENDBRANCH  10  19
BRANCH  13  21
ATOM     21  C   UNL     1      -3.535   2.801   0.549  0.00  0.00    +0.112 C 
BRANCH  21   6
ATOM      1  O   UNL     1      -4.240   0.170   1.524  0.00  0.00    -0.276 OA
ATOM      6  N   UNL     1      -3.730   1.615  -0.226  0.00  0.00    -0.315 N 
ATOM     25  C   UNL     1      -4.071   0.379   0.326  0.00  0.00    +0.214 C 
ATOM     39  H   UNL     1      -3.671   1.691  -1.237  0.00  0.00    +0.149 HD
BRANCH  25  18
ATOM     18  C   UNL     1      -4.214  -0.698  -0.734  0.00  0.00    +0.103 C 
BRANCH  18   9
ATOM      9  C   UNL     1      -4.554  -2.071  -0.138  0.00  0.00    -0.011 C 
ATOM     11  C   UNL     1      -4.787  -3.110  -1.257  0.00  0.00    +0.008 C 
ATOM     12  C   UNL     1      -5.891  -2.004   0.639  0.00  0.00    +0.008 C 
ATOM     15  C   UNL     1      -6.298  -3.272  -1.342  0.00  0.00    +0.001 C 
ATOM     16  C   UNL     1      -6.734  -3.156   0.107  0.00  0.00    +0.001 C 
BRANCH   9  20
ATOM     20  C   UNL     1      -3.408  -2.516   0.779  0.00  0.00    +0.127 C 
BRANCH  20  29
ATOM      3  O   UNL     1      -1.853  -3.284  -0.934  0.00  0.00    -0.251 OA
ATOM     29  C   UNL     1      -2.108  -2.584   0.034  0.00  0.00    +0.305 C 
BRANCH  29   2
ATOM      2  O   UNL     1      -1.218  -1.730   0.602  0.00  0.00    -0.481 OA
ATOM     41  H   UNL     1      -0.352  -1.742   0.141  0.00  0.00    +0.295 HD
ENDBRANCH  29   2
ENDBRANCH  20  29
ENDBRANCH   9  20
ENDBRANCH  18   9
ENDBRANCH  25  18
ENDBRANCH  21   6
ENDBRANCH  13  21
BRANCH  17  24
ATOM     24  C   UNL     1       0.461   1.150  -1.615  0.00  0.00    +0.082 C 
BRANCH  24  30
ATOM      7  N   UNL     1       2.905   0.637  -1.465  0.00  0.00    -0.342 N 
ATOM      8  N   UNL     1       1.597  -0.440  -0.026  0.00  0.00    -0.232 NA
ATOM     30  C   UNL     1       1.632   0.430  -1.010  0.00  0.00    +0.109 A 
ATOM     31  C   UNL     1       3.747  -0.152  -0.725  0.00  0.00    +0.067 A 
ATOM     32  C   UNL     1       2.907  -0.814   0.167  0.00  0.00    +0.089 A 
ATOM     33  C   UNL     1       5.130  -0.337  -0.757  0.00  0.00    +0.042 A 
ATOM     34  C   UNL     1       3.462  -1.719   1.087  0.00  0.00    +0.030 A 
ATOM     35  C   UNL     1       5.665  -1.242   0.166  0.00  0.00    +0.061 A 
ATOM     36  C   UNL     1       4.848  -1.921   1.073  0.00  0.00    +0.017 A 
ATOM     40  H   UNL     1       3.179   1.261  -2.213  0.00  0.00    +0.167 HD
BRANCH  35  37
ATOM      5  O   UNL     1       7.631  -2.545   0.514  0.00  0.00    -0.245 OA
ATOM     37  C   UNL     1       7.101  -1.477   0.181  0.00  0.00    +0.339 C 
BRANCH  37   4
ATOM      4  O   UNL     1       7.796  -0.370  -0.222  0.00  0.00    -0.464 OA
ATOM     38  C   UNL     1       9.223  -0.478  -0.251  0.00  0.00    +0.280 C 
ENDBRANCH  37   4
ENDBRANCH  35  37
ENDBRANCH  24  30
ENDBRANCH  17  24
TORSDOF 12
