REMARK  Name = 9422045
REMARK  3 active torsions:
REMARK  status: ('A' for Active; 'I' for Inactive)
REMARK    1  A    between atoms: N_5  and  C_9
REMARK    2  A    between atoms: N_7  and  C_21
REMARK    3  A    between atoms: C_21  and  C_22
REMARK                            x       y       z     vdW  Elec       q    Type
REMARK                         _______ _______ _______ _____ _____    ______ ____
ROOT
ATOM      1  O   UNL     1      -0.265  -2.005   0.625  0.00  0.00    -0.273 OA
ATOM      2  O   UNL     1       2.225   2.321  -1.211  0.00  0.00    -0.270 OA
ATOM      4  N   UNL     1       0.916   1.089   0.223  0.00  0.00    -0.284 N 
ATOM      6  N   UNL     1       1.895  -1.686  -0.009  0.00  0.00    -0.283 N 
ATOM      8  C   UNL     1       0.748   0.088   1.257  0.00  0.00    +0.164 C 
ATOM      9  C   UNL     1      -1.345   1.252   0.900  0.00  0.00    +0.094 C 
ATOM     10  C   UNL     1      -0.561   0.472   1.957  0.00  0.00    +0.056 C 
ATOM     11  C   UNL     1      -0.248   1.960   0.117  0.00  0.00    +0.131 C 
ATOM     12  C   UNL     1       0.718  -1.263   0.570  0.00  0.00    +0.238 C 
ATOM     13  C   UNL     1       2.084   1.356  -0.459  0.00  0.00    +0.249 C 
ATOM     14  C   UNL     1       3.226   0.420  -0.295  0.00  0.00    +0.058 A 
ATOM     15  C   UNL     1       3.101  -0.975  -0.182  0.00  0.00    +0.046 A 
ATOM     17  C   UNL     1       4.506   0.989  -0.435  0.00  0.00    +0.015 A 
ATOM     18  C   UNL     1       4.259  -1.768  -0.279  0.00  0.00    +0.024 A 
ATOM     19  C   UNL     1       5.646   0.188  -0.482  0.00  0.00    +0.001 A 
ATOM     20  C   UNL     1       5.521  -1.193  -0.417  0.00  0.00    +0.002 A 
ATOM     25  H   UNL     1       1.924  -2.672  -0.258  0.00  0.00    +0.155 HD
ENDROOT
BRANCH   9   5
ATOM      3  O   UNL     1      -4.099   0.476   1.276  0.00  0.00    -0.253 OA
ATOM      5  N   UNL     1      -2.125   0.382   0.057  0.00  0.00    -0.295 N 
ATOM      7  N   UNL     1      -3.967  -0.799  -0.658  0.00  0.00    -0.296 N 
ATOM     16  C   UNL     1      -3.456   0.058   0.314  0.00  0.00    +0.300 C 
ATOM     24  H   UNL     1      -1.666  -0.067  -0.731  0.00  0.00    +0.151 HD
ATOM     26  H   UNL     1      -3.366  -1.075  -1.429  0.00  0.00    +0.151 HD
BRANCH   7  21
ATOM     21  C   UNL     1      -5.324  -1.291  -0.632  0.00  0.00    +0.132 C 
BRANCH  21  22
ATOM     22  C   UNL     1      -6.200  -0.346  -1.385  0.00  0.00    -0.016 C 
ATOM     23  C   UNL     1      -7.257   0.277  -0.851  0.00  0.00    +0.005 C 
ENDBRANCH  21  22
ENDBRANCH   7  21
ENDBRANCH   9   5
TORSDOF 3
