REMARK  Name = 75536644
REMARK  9 active torsions:
REMARK  status: ('A' for Active; 'I' for Inactive)
REMARK    1  A    between atoms: S_1  and  C_20
REMARK    2  A    between atoms: S_1  and  C_26
REMARK    3  A    between atoms: O_4  and  C_11
REMARK    4  A    between atoms: N_8  and  C_10
REMARK    5  A    between atoms: N_8  and  C_15
REMARK    6  A    between atoms: N_9  and  C_14
REMARK    7  A    between atoms: C_12  and  C_14
REMARK    8  A    between atoms: C_15  and  C_16
REMARK    9  A    between atoms: C_17  and  C_23
REMARK                            x       y       z     vdW  Elec       q    Type
REMARK                         _______ _______ _______ _____ _____    ______ ____
ROOT
ATOM      3  O   UNL     1       4.491   0.768   0.949  0.00  0.00    -0.371 OA
ATOM     10  C   UNL     1       3.425  -1.345   0.962  0.00  0.00    +0.111 C 
ATOM     11  C   UNL     1       4.161  -1.202  -0.359  0.00  0.00    +0.164 C 
ATOM     12  C   UNL     1       4.632   0.252  -0.388  0.00  0.00    +0.165 C 
ATOM     13  C   UNL     1       4.124  -0.306   1.823  0.00  0.00    +0.181 C 
ENDROOT
BRANCH  11   4
ATOM      4  O   UNL     1       5.303  -2.061  -0.317  0.00  0.00    -0.388 OA
ATOM     31  H   UNL     1       5.785  -1.943  -1.153  0.00  0.00    +0.210 HD
ENDBRANCH  11   4
BRANCH  10   8
ATOM      8  N   UNL     1       2.005  -1.033   0.824  0.00  0.00    -0.305 NA
ATOM     30  H   UNL     1       1.643  -0.710   1.722  0.00  0.00    +0.123 HD
BRANCH   8  15
ATOM     15  C   UNL     1       1.246  -2.209   0.415  0.00  0.00    +0.116 C 
BRANCH  15  16
ATOM     16  C   UNL     1      -0.219  -1.902   0.252  0.00  0.00    -0.033 A 
ATOM     18  C   UNL     1      -1.032  -1.762   1.377  0.00  0.00    +0.007 A 
ATOM     19  C   UNL     1      -0.764  -1.758  -1.024  0.00  0.00    +0.007 A 
ATOM     20  C   UNL     1      -2.934  -1.333  -0.050  0.00  0.00    +0.088 A 
ATOM     21  C   UNL     1      -2.389  -1.477   1.226  0.00  0.00    +0.027 A 
ATOM     22  C   UNL     1      -2.121  -1.473  -1.175  0.00  0.00    +0.027 A 
BRANCH  20   1
ATOM      1  S   UNL     1      -4.632  -0.974  -0.238  0.00  0.00    -0.006 S 
ATOM      6  O   UNL     1      -5.116  -0.331   0.976  0.00  0.00    -0.170 OA
ATOM      7  O   UNL     1      -4.810  -0.316  -1.525  0.00  0.00    -0.170 OA
ATOM     26  C   UNL     1      -5.415  -2.568  -0.326  0.00  0.00    +0.200 C 
ENDBRANCH  20   1
ENDBRANCH  15  16
ENDBRANCH   8  15
ENDBRANCH  10   8
BRANCH  12  14
ATOM     14  C   UNL     1       3.825   1.134  -1.328  0.00  0.00    +0.138 C 
BRANCH  14   9
ATOM      5  O   UNL     1       1.185   0.590  -2.316  0.00  0.00    -0.270 OA
ATOM      9  N   UNL     1       2.586   1.539  -0.729  0.00  0.00    -0.309 N 
ATOM     17  C   UNL     1       1.346   1.229  -1.280  0.00  0.00    +0.244 C 
ATOM     32  H   UNL     1       2.650   2.141   0.085  0.00  0.00    +0.149 HD
BRANCH  17  23
ATOM      2  F   UNL     1      -3.146   3.174   1.470  0.00  0.00    -0.205 F 
ATOM     23  C   UNL     1       0.158   1.744  -0.552  0.00  0.00    +0.037 A 
ATOM     24  C   UNL     1      -1.028   1.995  -1.243  0.00  0.00    +0.016 A 
ATOM     25  C   UNL     1       0.227   1.976   0.821  0.00  0.00    +0.016 A 
ATOM     27  C   UNL     1      -2.144   2.478  -0.560  0.00  0.00    +0.039 A 
ATOM     28  C   UNL     1      -0.889   2.459   1.504  0.00  0.00    +0.039 A 
ATOM     29  C   UNL     1      -2.075   2.710   0.813  0.00  0.00    +0.123 A 
ENDBRANCH  17  23
ENDBRANCH  14   9
ENDBRANCH  12  14
TORSDOF 8
