REMARK  Name = 45784167
REMARK  13 active torsions:
REMARK  status: ('A' for Active; 'I' for Inactive)
REMARK    1  A    between atoms: N_4  and  C_14
REMARK    2  A    between atoms: C_7  and  C_11
REMARK    3  A    between atoms: C_8  and  C_14
REMARK    4  A    between atoms: C_10  and  C_15
REMARK    5  A    between atoms: C_11  and  C_16
REMARK    6  A    between atoms: C_11  and  C_17
REMARK    7  A    between atoms: C_12  and  C_18
REMARK    8  A    between atoms: C_15  and  C_19
REMARK    9  A    between atoms: C_20  and  C_21
REMARK   10  A    between atoms: C_21  and  C_22
REMARK   11  A    between atoms: C_21  and  C_23
REMARK   12  A    between atoms: C_21  and  C_24
REMARK   13  A    between atoms: C_25  and  C_26
REMARK                            x       y       z     vdW  Elec       q    Type
REMARK                         _______ _______ _______ _____ _____    ______ ____
ROOT
ATOM      7  C   UNL     1       1.557   0.826  -1.388  0.00  0.00    +0.000 C 
ATOM      8  C   UNL     1       3.063   1.187  -1.334  0.00  0.00    +0.032 C 
ATOM      9  C   UNL     1       0.701   2.041  -1.002  0.00  0.00    +0.012 C 
ATOM     10  C   UNL     1       1.028   2.560   0.411  0.00  0.00    +0.024 C 
ATOM     12  C   UNL     1       2.522   2.687   0.632  0.00  0.00    -0.073 C 
ATOM     13  C   UNL     1       3.416   2.077  -0.167  0.00  0.00    -0.022 C 
ATOM     18  C   UNL     1       2.966   3.570   1.765  0.00  0.00    +0.039 C 
ENDROOT
BRANCH   7  11
ATOM     11  C   UNL     1       1.143   0.318  -2.773  0.00  0.00    -0.013 C 
ATOM     16  C   UNL     1       0.895   1.490  -3.717  0.00  0.00    +0.007 C 
ATOM     17  C   UNL     1      -0.097  -0.564  -2.667  0.00  0.00    +0.007 C 
ENDBRANCH   7  11
BRANCH   8  14
ATOM     14  C   UNL     1       3.933  -0.075  -1.296  0.00  0.00    +0.112 C 
BRANCH  14   4
ATOM      3  O   UNL     1       2.986  -2.753  -1.067  0.00  0.00    -0.275 OA
ATOM      4  N   UNL     1       3.724  -0.798  -0.081  0.00  0.00    -0.314 N 
ATOM     20  C   UNL     1       3.256  -2.112  -0.051  0.00  0.00    +0.218 C 
ATOM     32  H   UNL     1       3.981  -0.346   0.791  0.00  0.00    +0.149 HD
BRANCH  20  21
ATOM     21  C   UNL     1       3.104  -2.710   1.364  0.00  0.00    +0.039 C 
ATOM     22  C   UNL     1       2.110  -1.876   2.186  0.00  0.00    +0.020 C 
ATOM     23  C   UNL     1       2.565  -4.148   1.255  0.00  0.00    +0.020 C 
ATOM     24  C   UNL     1       4.469  -2.751   2.068  0.00  0.00    +0.020 C 
ENDBRANCH  20  21
ENDBRANCH  14   4
ENDBRANCH   8  14
BRANCH  10  15
ATOM     15  C   UNL     1       0.388   1.675   1.486  0.00  0.00    +0.105 C 
BRANCH  15  19
ATOM      2  O   UNL     1      -1.571   0.411   0.762  0.00  0.00    -0.420 OA
ATOM      5  N   UNL     1      -2.040   2.443   1.573  0.00  0.00    -0.112 NA
ATOM      6  N   UNL     1      -3.230   1.845   1.204  0.00  0.00    -0.107 NA
ATOM     19  C   UNL     1      -1.099   1.571   1.297  0.00  0.00    +0.218 A 
ATOM     25  C   UNL     1      -2.908   0.661   0.737  0.00  0.00    +0.251 A 
BRANCH  25  26
ATOM      1  F   UNL     1      -5.695   0.906   0.570  0.00  0.00    -0.205 F 
ATOM     26  C   UNL     1      -3.733  -0.389   0.214  0.00  0.00    +0.074 A 
ATOM     27  C   UNL     1      -5.117  -0.228   0.148  0.00  0.00    +0.136 A 
ATOM     28  C   UNL     1      -3.147  -1.575  -0.229  0.00  0.00    +0.016 A 
ATOM     29  C   UNL     1      -5.915  -1.253  -0.360  0.00  0.00    +0.039 A 
ATOM     30  C   UNL     1      -3.945  -2.600  -0.737  0.00  0.00    +0.001 A 
ATOM     31  C   UNL     1      -5.329  -2.439  -0.803  0.00  0.00    +0.003 A 
ENDBRANCH  25  26
ENDBRANCH  15  19
ENDBRANCH  10  15
TORSDOF 7
