REMARK  Name = 75536822
REMARK  7 active torsions:
REMARK  status: ('A' for Active; 'I' for Inactive)
REMARK    1  A    between atoms: O_2  and  C_8
REMARK    2  A    between atoms: N_4  and  C_7
REMARK    3  A    between atoms: N_4  and  C_12
REMARK    4  A    between atoms: N_5  and  C_11
REMARK    5  A    between atoms: C_9  and  C_11
REMARK    6  A    between atoms: C_12  and  C_13
REMARK    7  A    between atoms: C_14  and  C_17
REMARK                            x       y       z     vdW  Elec       q    Type
REMARK                         _______ _______ _______ _____ _____    ______ ____
ROOT
ATOM      1  O   UNL     1       0.415  -0.923   0.006  0.00  0.00    -0.371 OA
ATOM      7  C   UNL     1      -1.645   0.222  -0.292  0.00  0.00    +0.111 C 
ATOM      8  C   UNL     1      -0.743   1.051   0.604  0.00  0.00    +0.164 C 
ATOM      9  C   UNL     1       0.624   0.477   0.256  0.00  0.00    +0.165 C 
ATOM     10  C   UNL     1      -0.992  -1.147  -0.192  0.00  0.00    +0.181 C 
ENDROOT
BRANCH   8   2
ATOM      2  O   UNL     1      -0.821   2.435   0.325  0.00  0.00    -0.388 OA
ATOM     26  H   UNL     1      -0.609   2.570  -0.614  0.00  0.00    +0.210 HD
ENDBRANCH   8   2
BRANCH   7   4
ATOM      4  N   UNL     1      -3.038   0.217   0.125  0.00  0.00    -0.305 NA
ATOM     25  H   UNL     1      -3.322   1.171   0.348  0.00  0.00    +0.123 HD
BRANCH   4  12
ATOM     12  C   UNL     1      -3.901  -0.298  -0.931  0.00  0.00    +0.116 C 
BRANCH  12  13
ATOM      6  N   UNL     1      -8.030  -0.378   0.271  0.00  0.00    -0.263 NA
ATOM     13  C   UNL     1      -5.346  -0.326  -0.510  0.00  0.00    -0.031 A 
ATOM     15  C   UNL     1      -5.803  -1.317   0.351  0.00  0.00    +0.024 A 
ATOM     16  C   UNL     1      -6.229   0.639  -0.981  0.00  0.00    +0.024 A 
ATOM     18  C   UNL     1      -7.142  -1.299   0.708  0.00  0.00    +0.111 A 
ATOM     19  C   UNL     1      -7.549   0.570  -0.565  0.00  0.00    +0.111 A 
ENDBRANCH  12  13
ENDBRANCH   4  12
ENDBRANCH   7   4
BRANCH   9  11
ATOM     11  C   UNL     1       1.648   0.654   1.362  0.00  0.00    +0.138 C 
BRANCH  11   5
ATOM      3  O   UNL     1       3.791   2.010   0.016  0.00  0.00    -0.270 OA
ATOM      5  N   UNL     1       2.917   0.096   0.992  0.00  0.00    -0.309 N 
ATOM     14  C   UNL     1       3.902   0.831   0.339  0.00  0.00    +0.244 C 
ATOM     27  H   UNL     1       3.046  -0.895   1.167  0.00  0.00    +0.149 HD
BRANCH  14  17
ATOM     17  C   UNL     1       5.151   0.100   0.002  0.00  0.00    +0.037 A 
ATOM     20  C   UNL     1       5.927   0.509  -1.083  0.00  0.00    +0.013 A 
ATOM     21  C   UNL     1       5.547  -0.994   0.770  0.00  0.00    +0.013 A 
ATOM     22  C   UNL     1       7.100  -0.177  -1.398  0.00  0.00    +0.001 A 
ATOM     23  C   UNL     1       6.720  -1.679   0.455  0.00  0.00    +0.001 A 
ATOM     24  C   UNL     1       7.497  -1.271  -0.629  0.00  0.00    +0.000 A 
ENDBRANCH  14  17
ENDBRANCH  11   5
ENDBRANCH   9  11
TORSDOF 7
