REMARK  Name = 26743838
REMARK  6 active torsions:
REMARK  status: ('A' for Active; 'I' for Inactive)
REMARK    1  A    between atoms: O_1  and  C_13
REMARK    2  A    between atoms: N_3  and  C_7
REMARK    3  A    between atoms: C_6  and  C_7
REMARK    4  A    between atoms: C_8  and  C_17
REMARK    5  A    between atoms: C_18  and  C_19
REMARK    6  A    between atoms: C_22  and  C_25
REMARK                            x       y       z     vdW  Elec       q    Type
REMARK                         _______ _______ _______ _____ _____    ______ ____
ROOT
ATOM      3  N   UNL     1      -2.272  -0.889  -0.063  0.00  0.00    -0.289 NA
ATOM      8  C   UNL     1      -1.523  -2.037   0.486  0.00  0.00    +0.148 C 
ATOM     11  C   UNL     1      -3.380  -1.449  -0.835  0.00  0.00    +0.116 C 
ATOM     12  C   UNL     1      -1.769  -3.183  -0.513  0.00  0.00    +0.061 C 
ATOM     13  C   UNL     1      -2.705  -2.596  -1.563  0.00  0.00    +0.130 C 
ENDROOT
BRANCH   8  17
ATOM      2  O   UNL     1       0.588  -2.432   1.653  0.00  0.00    -0.336 OA
ATOM      4  N   UNL     1       0.712  -0.886   0.037  0.00  0.00    -0.190 NA
ATOM      5  N   UNL     1       1.916  -1.986   1.642  0.00  0.00    -0.056 NA
ATOM     17  C   UNL     1      -0.052  -1.734   0.678  0.00  0.00    +0.245 A 
ATOM     18  C   UNL     1       1.910  -1.076   0.663  0.00  0.00    +0.202 A 
BRANCH  18  19
ATOM     19  C   UNL     1       3.082  -0.341   0.286  0.00  0.00    +0.023 A 
ATOM     20  C   UNL     1       3.016   0.597  -0.744  0.00  0.00    +0.015 A 
ATOM     21  C   UNL     1       4.288  -0.564   0.950  0.00  0.00    +0.012 A 
ATOM     22  C   UNL     1       4.156   1.313  -1.110  0.00  0.00    -0.050 A 
ATOM     23  C   UNL     1       5.428   0.151   0.585  0.00  0.00    +0.001 A 
ATOM     24  C   UNL     1       5.362   1.090  -0.445  0.00  0.00    +0.003 A 
ATOM     25  C   UNL     1       4.086   2.316  -2.211  0.00  0.00    +0.044 C 
ENDBRANCH  18  19
ENDBRANCH   8  17
BRANCH  13   1
ATOM      1  O   UNL     1      -3.639  -3.564  -1.999  0.00  0.00    -0.390 OA
ATOM     26  H   UNL     1      -3.137  -4.301  -2.386  0.00  0.00    +0.210 HD
ENDBRANCH  13   1
BRANCH   3   7
ATOM      7  C   UNL     1      -2.732   0.039   0.962  0.00  0.00    +0.088 C 
BRANCH   7   6
ATOM      6  C   UNL     1      -3.014   1.416   0.362  0.00  0.00    +0.003 C 
ATOM      9  C   UNL     1      -3.474   2.397   1.449  0.00  0.00    +0.005 C 
ATOM     10  C   UNL     1      -1.776   1.952  -0.370  0.00  0.00    +0.005 C 
ATOM     14  C   UNL     1      -3.711   3.795   0.883  0.00  0.00    +0.000 C 
ATOM     15  C   UNL     1      -2.016   3.351  -0.933  0.00  0.00    +0.000 C 
ATOM     16  C   UNL     1      -2.481   4.321   0.149  0.00  0.00    +0.000 C 
ENDBRANCH   7   6
ENDBRANCH   3   7
TORSDOF 5
