REMARK  Name = 9424937
REMARK  5 active torsions:
REMARK  status: ('A' for Active; 'I' for Inactive)
REMARK    1  A    between atoms: N_4  and  C_14
REMARK    2  A    between atoms: N_7  and  C_21
REMARK    3  A    between atoms: N_8  and  C_28
REMARK    4  A    between atoms: C_25  and  C_26
REMARK    5  A    between atoms: C_33  and  C_34
REMARK                            x       y       z     vdW  Elec       q    Type
REMARK                         _______ _______ _______ _____ _____    ______ ____
ROOT
ATOM      1  O   UNL     1       2.301   3.766  -2.654  0.00  0.00    -0.268 OA
ATOM      4  N   UNL     1       2.630   0.399   1.053  0.00  0.00    -0.298 NA
ATOM      5  N   UNL     1       1.603   2.948  -0.573  0.00  0.00    -0.310 N 
ATOM      9  C   UNL     1       3.182   2.814   1.442  0.00  0.00    +0.024 C 
ATOM     10  C   UNL     1       0.865   2.057   1.659  0.00  0.00    +0.052 C 
ATOM     11  C   UNL     1       1.911   2.995   2.256  0.00  0.00    +0.017 C 
ATOM     12  C   UNL     1       3.654   1.346   1.509  0.00  0.00    +0.090 C 
ATOM     13  C   UNL     1       1.361   0.597   1.768  0.00  0.00    +0.094 C 
ATOM     15  C   UNL     1       2.909   3.283   0.010  0.00  0.00    +0.130 C 
ATOM     16  C   UNL     1       0.561   2.408   0.204  0.00  0.00    +0.047 A 
ATOM     21  C   UNL     1      -0.651   2.195  -0.356  0.00  0.00    +0.055 A 
ATOM     22  C   UNL     1       1.432   3.278  -1.930  0.00  0.00    +0.252 A 
ATOM     23  C   UNL     1      -0.878   2.520  -1.744  0.00  0.00    +0.030 A 
ATOM     24  C   UNL     1       0.091   3.024  -2.510  0.00  0.00    +0.072 A 
ENDROOT
BRANCH   4  14
ATOM      2  O   UNL     1       5.291  -4.462  -1.580  0.00  0.00    -0.276 OA
ATOM      6  N   UNL     1       3.870  -3.498  -0.016  0.00  0.00    -0.302 N 
ATOM     14  C   UNL     1       3.096  -0.980   1.185  0.00  0.00    +0.060 C 
ATOM     17  C   UNL     1       2.055  -1.944   0.601  0.00  0.00    +0.038 C 
ATOM     18  C   UNL     1       4.444  -1.150   0.473  0.00  0.00    +0.038 C 
ATOM     19  C   UNL     1       2.562  -3.386   0.642  0.00  0.00    +0.109 C 
ATOM     20  C   UNL     1       4.903  -2.607   0.517  0.00  0.00    +0.109 C 
ATOM     25  C   UNL     1       4.183  -4.388  -1.043  0.00  0.00    +0.212 C 
ATOM     26  C   UNL     1       3.077  -5.302  -1.505  0.00  0.00    +0.109 C 
ENDBRANCH   4  14
BRANCH  21   7
ATOM      3  O   UNL     1      -2.703   0.587  -1.492  0.00  0.00    -0.252 OA
ATOM      7  N   UNL     1      -1.712   1.650   0.315  0.00  0.00    -0.268 N 
ATOM      8  N   UNL     1      -3.640   0.461   0.657  0.00  0.00    -0.269 N 
ATOM     27  C   UNL     1      -2.696   0.864  -0.294  0.00  0.00    +0.308 C 
ATOM     35  H   UNL     1      -1.673   1.609   1.327  0.00  0.00    +0.156 HD
ATOM     36  H   UNL     1      -3.491   0.780   1.611  0.00  0.00    +0.156 HD
BRANCH   8  28
ATOM     28  C   UNL     1      -4.788  -0.340   0.456  0.00  0.00    +0.035 A 
ATOM     29  C   UNL     1      -5.608  -0.633   1.534  0.00  0.00    +0.023 A 
ATOM     30  C   UNL     1      -5.071  -0.814  -0.815  0.00  0.00    +0.023 A 
ATOM     31  C   UNL     1      -6.741  -1.423   1.335  0.00  0.00    +0.005 A 
ATOM     32  C   UNL     1      -6.204  -1.604  -1.013  0.00  0.00    +0.005 A 
ATOM     33  C   UNL     1      -7.038  -1.908   0.062  0.00  0.00    -0.050 A 
ATOM     34  C   UNL     1      -8.250  -2.752  -0.150  0.00  0.00    +0.044 C 
ENDBRANCH   8  28
ENDBRANCH  21   7
TORSDOF 3
