REMARK  Name = 45783585
REMARK  6 active torsions:
REMARK  status: ('A' for Active; 'I' for Inactive)
REMARK    1  A    between atoms: O_2  and  C_19
REMARK    2  A    between atoms: O_2  and  C_27
REMARK    3  A    between atoms: N_3  and  C_8
REMARK    4  A    between atoms: N_4  and  C_18
REMARK    5  A    between atoms: C_9  and  C_17
REMARK    6  A    between atoms: C_25  and  C_26
REMARK                            x       y       z     vdW  Elec       q    Type
REMARK                         _______ _______ _______ _____ _____    ______ ____
ROOT
ATOM      1  O   UNL     1       1.807   1.827   1.970  0.00  0.00    -0.336 OA
ATOM      5  N   UNL     1       1.406   1.135  -0.123  0.00  0.00    -0.190 NA
ATOM      6  N   UNL     1       0.430   1.581   1.898  0.00  0.00    -0.056 NA
ATOM     17  C   UNL     1       2.305   1.539   0.739  0.00  0.00    +0.245 A 
ATOM     25  C   UNL     1       0.271   1.177   0.634  0.00  0.00    +0.204 A 
ENDROOT
BRANCH  25  26
ATOM      7  N   UNL     1      -3.384   0.522   0.431  0.00  0.00    -0.221 NA
ATOM     26  C   UNL     1      -1.007   0.810   0.096  0.00  0.00    +0.041 A 
ATOM     27  C   UNL     1      -3.469   0.124  -0.859  0.00  0.00    +0.215 A 
ATOM     28  C   UNL     1      -1.135   0.395  -1.225  0.00  0.00    +0.018 A 
ATOM     29  C   UNL     1      -2.151   0.856   0.875  0.00  0.00    +0.126 A 
ATOM     30  C   UNL     1      -2.386   0.044  -1.719  0.00  0.00    +0.068 A 
BRANCH  27   2
ATOM      2  O   UNL     1      -4.713  -0.217  -1.322  0.00  0.00    -0.473 OA
BRANCH   2  19
ATOM     19  C   UNL     1      -5.790  -0.117  -0.397  0.00  0.00    +0.175 C 
ATOM     20  C   UNL     1      -5.936  -1.433   0.366  0.00  0.00    +0.044 C 
ATOM     21  C   UNL     1      -7.074   0.247  -1.142  0.00  0.00    +0.044 C 
ATOM     22  C   UNL     1      -7.140  -1.409   1.302  0.00  0.00    +0.004 C 
ATOM     23  C   UNL     1      -8.278   0.271  -0.206  0.00  0.00    +0.004 C 
ATOM     24  C   UNL     1      -8.423  -1.043   0.558  0.00  0.00    +0.000 C 
ENDBRANCH   2  19
ENDBRANCH  27   2
ENDBRANCH  25  26
BRANCH  17   9
ATOM      3  N   UNL     1       4.354   0.842  -0.490  0.00  0.00    -0.288 NA
ATOM      9  C   UNL     1       3.797   1.725   0.554  0.00  0.00    +0.146 C 
ATOM     10  C   UNL     1       5.506   1.546  -1.055  0.00  0.00    +0.085 C 
ATOM     13  C   UNL     1       4.167   3.150   0.100  0.00  0.00    +0.030 C 
ATOM     14  C   UNL     1       4.981   2.962  -1.173  0.00  0.00    +0.017 C 
BRANCH   3   8
ATOM      4  N   UNL     1       4.353  -3.388  -0.075  0.00  0.00    -0.305 NA
ATOM      8  C   UNL     1       4.711  -0.484   0.008  0.00  0.00    +0.060 C 
ATOM     11  C   UNL     1       5.270  -1.344  -1.129  0.00  0.00    +0.034 C 
ATOM     12  C   UNL     1       3.499  -1.177   0.639  0.00  0.00    +0.034 C 
ATOM     15  C   UNL     1       5.557  -2.769  -0.648  0.00  0.00    +0.085 C 
ATOM     16  C   UNL     1       3.843  -2.608   1.061  0.00  0.00    +0.085 C 
ATOM     18  C   UNL     1       4.630  -4.765   0.332  0.00  0.00    +0.104 C 
ENDBRANCH   3   8
ENDBRANCH  17   9
TORSDOF 5
