REMARK  Name = 51136875
REMARK  7 active torsions:
REMARK  status: ('A' for Active; 'I' for Inactive)
REMARK    1  A    between atoms: O_3  and  C_32
REMARK    2  A    between atoms: O_3  and  C_33
REMARK    3  A    between atoms: N_4  and  C_9
REMARK    4  A    between atoms: N_8  and  C_25
REMARK    5  A    between atoms: C_10  and  C_19
REMARK    6  A    between atoms: C_20  and  C_21
REMARK    7  A    between atoms: C_26  and  C_27
REMARK                            x       y       z     vdW  Elec       q    Type
REMARK                         _______ _______ _______ _____ _____    ______ ____
ROOT
ATOM      7  N   UNL     1       1.701   1.593  -1.297  0.00  0.00    -0.239 NA
ATOM     21  C   UNL     1      -0.551   1.227  -0.498  0.00  0.00    +0.041 A 
ATOM     22  C   UNL     1      -0.073   0.347   0.467  0.00  0.00    +0.016 A 
ATOM     23  C   UNL     1       0.368   1.819  -1.348  0.00  0.00    +0.124 A 
ATOM     24  C   UNL     1       1.291   0.089   0.550  0.00  0.00    +0.044 A 
ATOM     25  C   UNL     1       2.128   0.732  -0.347  0.00  0.00    +0.125 A 
ENDROOT
BRANCH  21  20
ATOM      1  O   UNL     1      -3.820   2.321  -1.259  0.00  0.00    -0.336 OA
ATOM      5  N   UNL     1      -2.869   0.936   0.222  0.00  0.00    -0.190 NA
ATOM      6  N   UNL     1      -2.445   2.354  -1.523  0.00  0.00    -0.056 NA
ATOM     19  C   UNL     1      -3.984   1.463  -0.218  0.00  0.00    +0.245 A 
ATOM     20  C   UNL     1      -1.953   1.512  -0.609  0.00  0.00    +0.204 A 
BRANCH  19  10
ATOM      4  N   UNL     1      -5.598  -0.074   0.887  0.00  0.00    -0.288 NA
ATOM     10  C   UNL     1      -5.403   1.250   0.264  0.00  0.00    +0.146 C 
ATOM     13  C   UNL     1      -6.661   0.088   1.879  0.00  0.00    +0.085 C 
ATOM     14  C   UNL     1      -5.820   2.259   1.350  0.00  0.00    +0.030 C 
ATOM     15  C   UNL     1      -6.291   1.409   2.522  0.00  0.00    +0.017 C 
BRANCH   4   9
ATOM      9  C   UNL     1      -5.904  -1.127  -0.080  0.00  0.00    +0.057 C 
ATOM     11  C   UNL     1      -4.760  -1.253  -1.092  0.00  0.00    +0.019 C 
ATOM     12  C   UNL     1      -6.144  -2.452   0.652  0.00  0.00    +0.019 C 
ATOM     16  C   UNL     1      -5.010  -2.397  -2.074  0.00  0.00    +0.002 C 
ATOM     17  C   UNL     1      -6.392  -3.594  -0.333  0.00  0.00    +0.002 C 
ATOM     18  C   UNL     1      -5.261  -3.716  -1.349  0.00  0.00    +0.000 C 
ENDBRANCH   4   9
ENDBRANCH  19  10
ENDBRANCH  21  20
BRANCH  25   8
ATOM      2  O   UNL     1       3.632  -1.059   1.529  0.00  0.00    -0.270 OA
ATOM      8  N   UNL     1       3.499   0.466  -0.255  0.00  0.00    -0.266 N 
ATOM     26  C   UNL     1       4.149  -0.384   0.646  0.00  0.00    +0.249 C 
ATOM     34  H   UNL     1       4.041   0.938  -0.972  0.00  0.00    +0.157 HD
BRANCH  26  27
ATOM     27  C   UNL     1       5.623  -0.481   0.474  0.00  0.00    +0.037 A 
ATOM     28  C   UNL     1       6.297  -1.635   0.873  0.00  0.00    +0.016 A 
ATOM     29  C   UNL     1       6.332   0.583  -0.084  0.00  0.00    +0.016 A 
ATOM     30  C   UNL     1       7.680  -1.726   0.714  0.00  0.00    +0.046 A 
ATOM     31  C   UNL     1       7.714   0.492  -0.243  0.00  0.00    +0.046 A 
ATOM     32  C   UNL     1       8.388  -0.662   0.156  0.00  0.00    +0.120 A 
BRANCH  32   3
ATOM      3  O   UNL     1       9.738  -0.750   0.000  0.00  0.00    -0.495 OA
ATOM     33  C   UNL     1      10.400   0.374  -0.577  0.00  0.00    +0.277 C 
ENDBRANCH  32   3
ENDBRANCH  26  27
ENDBRANCH  25   8
TORSDOF 6
