REMARK  Name = 26762953
REMARK  5 active torsions:
REMARK  status: ('A' for Active; 'I' for Inactive)
REMARK    1  A    between atoms: N_8  and  C_13
REMARK    2  A    between atoms: N_10  and  C_27
REMARK    3  A    between atoms: C_12  and  C_17
REMARK    4  A    between atoms: C_17  and  C_19
REMARK    5  A    between atoms: C_19  and  C_20
REMARK                            x       y       z     vdW  Elec       q    Type
REMARK                         _______ _______ _______ _____ _____    ______ ____
ROOT
ATOM      3  O   UNL     1       2.065  -2.687  -2.857  0.00  0.00    -0.274 OA
ATOM      6  N   UNL     1       2.060  -2.245   0.550  0.00  0.00    -0.285 NA
ATOM      7  N   UNL     1       3.866  -2.340  -1.451  0.00  0.00    -0.313 N 
ATOM     11  C   UNL     1       1.835  -3.232  -0.505  0.00  0.00    +0.145 C 
ATOM     12  C   UNL     1       3.451  -2.180   1.006  0.00  0.00    +0.075 C 
ATOM     13  C   UNL     1      -0.190  -2.789   0.756  0.00  0.00    +0.090 C 
ATOM     14  C   UNL     1       0.315  -3.287  -0.607  0.00  0.00    +0.052 C 
ATOM     15  C   UNL     1       1.072  -2.539   1.583  0.00  0.00    +0.107 C 
ATOM     16  C   UNL     1       4.434  -2.545  -0.130  0.00  0.00    +0.123 C 
ATOM     18  C   UNL     1       2.562  -2.721  -1.735  0.00  0.00    +0.230 C 
ATOM     33  H   UNL     1       4.461  -2.010  -2.204  0.00  0.00    +0.149 HD
ENDROOT
BRANCH  13   8
ATOM      5  O   UNL     1      -3.032  -2.633   0.417  0.00  0.00    -0.252 OA
ATOM      8  N   UNL     1      -0.979  -1.587   0.614  0.00  0.00    -0.295 N 
ATOM     10  N   UNL     1      -2.858  -0.294   0.342  0.00  0.00    -0.267 N 
ATOM     21  C   UNL     1      -2.370  -1.599   0.452  0.00  0.00    +0.304 C 
ATOM     34  H   UNL     1      -0.495  -0.697   0.558  0.00  0.00    +0.151 HD
ATOM     35  H   UNL     1      -2.174   0.457   0.392  0.00  0.00    +0.156 HD
BRANCH  10  27
ATOM      1  F   UNL     1      -3.539   2.402   0.150  0.00  0.00    -0.203 F 
ATOM      2  F   UNL     1      -8.118   1.318  -0.339  0.00  0.00    -0.205 F 
ATOM     27  C   UNL     1      -4.199   0.120   0.168  0.00  0.00    +0.070 A 
ATOM     28  C   UNL     1      -4.507   1.477   0.076  0.00  0.00    +0.147 A 
ATOM     29  C   UNL     1      -5.215  -0.832   0.090  0.00  0.00    +0.029 A 
ATOM     30  C   UNL     1      -5.831   1.882  -0.095  0.00  0.00    +0.078 A 
ATOM     31  C   UNL     1      -6.539  -0.427  -0.082  0.00  0.00    +0.040 A 
ATOM     32  C   UNL     1      -6.847   0.930  -0.174  0.00  0.00    +0.126 A 
ENDBRANCH  10  27
ENDBRANCH  13   8
BRANCH  12  17
ATOM     17  C   UNL     1       3.733  -0.763   1.514  0.00  0.00    +0.029 C 
BRANCH  17  19
ATOM     19  C   UNL     1       3.516   0.292   0.441  0.00  0.00    +0.097 C 
BRANCH  19  20
ATOM      4  O   UNL     1       4.086   1.811   2.167  0.00  0.00    -0.276 OA
ATOM      9  N   UNL     1       3.592   2.737   0.094  0.00  0.00    -0.301 N 
ATOM     20  C   UNL     1       3.759   1.677   0.985  0.00  0.00    +0.216 C 
ATOM     22  C   UNL     1       3.808   4.112   0.548  0.00  0.00    +0.108 C 
ATOM     23  C   UNL     1       3.247   2.606  -1.327  0.00  0.00    +0.108 C 
ATOM     24  C   UNL     1       2.593   4.984   0.245  0.00  0.00    +0.019 C 
ATOM     25  C   UNL     1       2.021   3.450  -1.667  0.00  0.00    +0.019 C 
ATOM     26  C   UNL     1       2.208   4.903  -1.231  0.00  0.00    +0.003 C 
ENDBRANCH  19  20
ENDBRANCH  17  19
ENDBRANCH  12  17
TORSDOF 5
