REMARK  Name = 40780211
REMARK  7 active torsions:
REMARK  status: ('A' for Active; 'I' for Inactive)
REMARK    1  A    between atoms: N_3  and  C_15
REMARK    2  A    between atoms: N_4  and  C_16
REMARK    3  A    between atoms: N_5  and  C_22
REMARK    4  A    between atoms: N_6  and  C_25
REMARK    5  A    between atoms: C_9  and  C_15
REMARK    6  A    between atoms: C_10  and  C_16
REMARK    7  A    between atoms: C_31  and  C_34
REMARK                            x       y       z     vdW  Elec       q    Type
REMARK                         _______ _______ _______ _____ _____    ______ ____
ROOT
ATOM      2  N   UNL     1      -0.576   3.745  -0.025  0.00  0.00    -0.298 NA
ATOM      8  C   UNL     1       0.994   1.969   1.046  0.00  0.00    -0.003 C 
ATOM      9  C   UNL     1       1.681   2.662  -0.152  0.00  0.00    +0.020 C 
ATOM     10  C   UNL     1      -1.282   2.440   0.083  0.00  0.00    +0.074 C 
ATOM     11  C   UNL     1      -0.327   1.331   0.577  0.00  0.00    +0.024 C 
ATOM     12  C   UNL     1       0.657   3.597  -0.834  0.00  0.00    +0.089 C 
ATOM     13  C   UNL     1       0.632   3.075   2.056  0.00  0.00    +0.019 C 
ATOM     14  C   UNL     1      -0.184   4.167   1.342  0.00  0.00    +0.085 C 
ENDROOT
BRANCH   9  15
ATOM     15  C   UNL     1       2.296   1.679  -1.145  0.00  0.00    +0.089 C 
BRANCH  15   3
ATOM      3  N   UNL     1       3.244   0.787  -0.479  0.00  0.00    -0.299 NA
ATOM      5  N   UNL     1       5.634  -0.755  -0.221  0.00  0.00    -0.327 N 
ATOM     17  C   UNL     1       4.542   1.451  -0.306  0.00  0.00    +0.103 C 
ATOM     18  C   UNL     1       3.415  -0.451  -1.248  0.00  0.00    +0.103 C 
ATOM     19  C   UNL     1       5.527   0.549   0.441  0.00  0.00    +0.120 C 
ATOM     20  C   UNL     1       4.361  -1.417  -0.532  0.00  0.00    +0.120 C 
BRANCH   5  22
ATOM     22  C   UNL     1       6.755  -1.560   0.010  0.00  0.00    +0.030 A 
ATOM     23  C   UNL     1       7.420  -1.495   1.234  0.00  0.00    +0.023 A 
ATOM     24  C   UNL     1       7.206  -2.430  -0.983  0.00  0.00    +0.023 A 
ATOM     26  C   UNL     1       8.537  -2.298   1.465  0.00  0.00    +0.002 A 
ATOM     27  C   UNL     1       8.323  -3.233  -0.752  0.00  0.00    +0.002 A 
ATOM     28  C   UNL     1       8.988  -3.168   0.472  0.00  0.00    +0.000 A 
ENDBRANCH   5  22
ENDBRANCH  15   3
ENDBRANCH   9  15
BRANCH  10  16
ATOM     16  C   UNL     1      -1.985   2.047  -1.219  0.00  0.00    +0.124 C 
BRANCH  16   4
ATOM      1  O   UNL     1      -4.733   1.943  -0.418  0.00  0.00    -0.253 OA
ATOM      4  N   UNL     1      -2.790   0.852  -1.029  0.00  0.00    -0.298 N 
ATOM      6  N   UNL     1      -4.640  -0.399  -0.537  0.00  0.00    -0.269 N 
ATOM     21  C   UNL     1      -4.127   0.897  -0.636  0.00  0.00    +0.304 C 
ATOM     35  H   UNL     1      -2.354  -0.051  -1.187  0.00  0.00    +0.150 HD
ATOM     36  H   UNL     1      -4.001  -1.161  -0.752  0.00  0.00    +0.156 HD
BRANCH   6  25
ATOM     25  C   UNL     1      -5.949  -0.789  -0.169  0.00  0.00    +0.036 A 
ATOM     29  C   UNL     1      -6.287  -2.142  -0.121  0.00  0.00    +0.042 A 
ATOM     30  C   UNL     1      -6.902   0.180   0.146  0.00  0.00    +0.023 A 
ATOM     31  C   UNL     1      -7.577  -2.525   0.243  0.00  0.00    +0.054 A 
ATOM     32  C   UNL     1      -8.193  -0.204   0.510  0.00  0.00    +0.003 A 
ATOM     33  C   UNL     1      -8.530  -1.557   0.558  0.00  0.00    +0.019 A 
BRANCH  31  34
ATOM      7  N   UNL     1      -8.206  -5.036   0.332  0.00  0.00    -0.191 NA
ATOM     34  C   UNL     1      -7.924  -3.911   0.292  0.00  0.00    +0.099 C 
ENDBRANCH  31  34
ENDBRANCH   6  25
ENDBRANCH  16   4
ENDBRANCH  10  16
TORSDOF 7
