REMARK  Name = 40587810
REMARK  4 active torsions:
REMARK  status: ('A' for Active; 'I' for Inactive)
REMARK    1  A    between atoms: O_3  and  C_25
REMARK    2  A    between atoms: O_3  and  C_31
REMARK    3  A    between atoms: N_6  and  C_22
REMARK    4  A    between atoms: C_14  and  C_19
REMARK                            x       y       z     vdW  Elec       q    Type
REMARK                         _______ _______ _______ _____ _____    ______ ____
ROOT
ATOM      1  O   UNL     1       1.640   2.925  -2.213  0.00  0.00    -0.268 OA
ATOM      2  O   UNL     1       1.206  -1.935   0.871  0.00  0.00    -0.252 OA
ATOM      4  N   UNL     1       0.264   2.140  -0.487  0.00  0.00    -0.311 N 
ATOM      5  N   UNL     1       0.993   0.135   1.882  0.00  0.00    -0.284 N 
ATOM      6  N   UNL     1       3.123  -0.712   1.326  0.00  0.00    -0.269 N 
ATOM      7  C   UNL     1       0.791   2.626   1.972  0.00  0.00    +0.027 C 
ATOM      8  C   UNL     1      -1.169   1.268   1.385  0.00  0.00    +0.054 C 
ATOM      9  C   UNL     1      -0.709   2.491   2.176  0.00  0.00    +0.018 C 
ATOM     10  C   UNL     1       1.051   2.903   0.490  0.00  0.00    +0.130 C 
ATOM     11  C   UNL     1       1.541   1.371   2.459  0.00  0.00    +0.114 C 
ATOM     12  C   UNL     1      -0.467   0.018   1.948  0.00  0.00    +0.119 C 
ATOM     13  C   UNL     1      -0.881   1.411  -0.112  0.00  0.00    +0.034 A 
ATOM     14  C   UNL     1      -1.664   0.843  -1.066  0.00  0.00    +0.002 A 
ATOM     15  C   UNL     1       0.660   2.287  -1.829  0.00  0.00    +0.252 A 
ATOM     16  C   UNL     1       1.744  -0.918   1.315  0.00  0.00    +0.306 C 
ATOM     17  C   UNL     1      -1.285   0.969  -2.461  0.00  0.00    +0.015 A 
ATOM     18  C   UNL     1      -0.192   1.628  -2.845  0.00  0.00    +0.071 A 
ATOM     32  H   UNL     1       3.517  -0.162   2.083  0.00  0.00    +0.156 HD
ENDROOT
BRANCH  14  19
ATOM     19  C   UNL     1      -2.884   0.080  -0.722  0.00  0.00    -0.016 A 
ATOM     20  C   UNL     1      -2.803  -1.290  -0.473  0.00  0.00    +0.012 A 
ATOM     21  C   UNL     1      -4.115   0.731  -0.647  0.00  0.00    +0.012 A 
ATOM     23  C   UNL     1      -3.953  -2.009  -0.148  0.00  0.00    +0.046 A 
ATOM     24  C   UNL     1      -5.266   0.012  -0.322  0.00  0.00    +0.046 A 
ATOM     25  C   UNL     1      -5.184  -1.358  -0.073  0.00  0.00    +0.120 A 
BRANCH  25   3
ATOM      3  O   UNL     1      -6.307  -2.060   0.243  0.00  0.00    -0.495 OA
ATOM     31  C   UNL     1      -6.152  -3.458   0.485  0.00  0.00    +0.277 C 
ENDBRANCH  25   3
ENDBRANCH  14  19
BRANCH   6  22
ATOM     22  C   UNL     1       4.071  -1.201   0.393  0.00  0.00    +0.035 A 
ATOM     26  C   UNL     1       5.431  -0.971   0.595  0.00  0.00    +0.023 A 
ATOM     27  C   UNL     1       3.643  -1.914  -0.727  0.00  0.00    +0.023 A 
ATOM     28  C   UNL     1       6.364  -1.452  -0.324  0.00  0.00    +0.002 A 
ATOM     29  C   UNL     1       4.575  -2.395  -1.645  0.00  0.00    +0.002 A 
ATOM     30  C   UNL     1       5.936  -2.164  -1.444  0.00  0.00    +0.000 A 
ENDBRANCH   6  22
TORSDOF 3
