REMARK  Name = 25312536
REMARK  11 active torsions:
REMARK  status: ('A' for Active; 'I' for Inactive)
REMARK    1  A    between atoms: O_2  and  C_15
REMARK    2  A    between atoms: N_5  and  C_13
REMARK    3  A    between atoms: N_5  and  C_16
REMARK    4  A    between atoms: N_5  and  C_17
REMARK    5  A    between atoms: C_6  and  C_10
REMARK    6  A    between atoms: C_7  and  C_12
REMARK    7  A    between atoms: C_10  and  C_13
REMARK    8  A    between atoms: C_12  and  C_15
REMARK    9  A    between atoms: C_14  and  C_18
REMARK   10  A    between atoms: C_16  and  C_19
REMARK   11  A    between atoms: C_17  and  C_20
REMARK                            x       y       z     vdW  Elec       q    Type
REMARK                         _______ _______ _______ _____ _____    ______ ____
ROOT
ATOM      1  O   UNL     1       0.994   4.061   1.279  0.00  0.00    -0.276 OA
ATOM      4  N   UNL     1       1.127   2.280  -0.206  0.00  0.00    -0.301 N 
ATOM      6  C   UNL     1       0.493  -0.010  -0.932  0.00  0.00    +0.011 C 
ATOM      7  C   UNL     1       1.871  -0.511  -0.427  0.00  0.00    +0.006 C 
ATOM      8  C   UNL     1       0.585   1.479  -1.311  0.00  0.00    +0.111 C 
ATOM      9  C   UNL     1       2.423   0.386   0.694  0.00  0.00    +0.023 C 
ATOM     11  C   UNL     1       2.441   1.853   0.272  0.00  0.00    +0.108 C 
ATOM     14  C   UNL     1       0.505   3.388   0.368  0.00  0.00    +0.212 C 
ATOM     18  C   UNL     1      -0.850   3.762  -0.178  0.00  0.00    +0.109 C 
ENDROOT
BRANCH   6  10
ATOM     10  C   UNL     1      -0.653  -0.237   0.061  0.00  0.00    +0.020 C 
BRANCH  10  13
ATOM     13  C   UNL     1      -1.988  -0.334  -0.664  0.00  0.00    +0.084 C 
BRANCH  13   5
ATOM      5  N   UNL     1      -3.063  -0.532   0.301  0.00  0.00    -0.303 NA
BRANCH   5  16
ATOM     16  C   UNL     1      -3.131  -1.934   0.717  0.00  0.00    +0.081 C 
ATOM     19  C   UNL     1      -4.204  -2.143   1.772  0.00  0.00    +0.020 C 
ENDBRANCH   5  16
BRANCH   5  17
ATOM     17  C   UNL     1      -4.346  -0.106  -0.261  0.00  0.00    +0.081 C 
ATOM     20  C   UNL     1      -4.718  -0.943  -1.474  0.00  0.00    +0.020 C 
ENDBRANCH   5  17
ENDBRANCH  13   5
ENDBRANCH  10  13
ENDBRANCH   6  10
BRANCH   7  12
ATOM     12  C   UNL     1       1.854  -1.974   0.013  0.00  0.00    +0.124 C 
BRANCH  12  15
ATOM      3  O   UNL     1       4.263  -2.021  -0.358  0.00  0.00    -0.251 OA
ATOM     15  C   UNL     1       3.229  -2.582  -0.028  0.00  0.00    +0.305 C 
BRANCH  15   2
ATOM      2  O   UNL     1       3.167  -3.881   0.364  0.00  0.00    -0.481 OA
ATOM     21  H   UNL     1       4.050  -4.309   0.350  0.00  0.00    +0.295 HD
ENDBRANCH  15   2
ENDBRANCH  12  15
ENDBRANCH   7  12
TORSDOF 8
