REMARK  Name = 26761802
REMARK  5 active torsions:
REMARK  status: ('A' for Active; 'I' for Inactive)
REMARK    1  A    between atoms: O_1  and  C_13
REMARK    2  A    between atoms: O_1  and  C_22
REMARK    3  A    between atoms: C_7  and  C_13
REMARK    4  A    between atoms: C_12  and  C_15
REMARK    5  A    between atoms: C_18  and  C_21
REMARK                            x       y       z     vdW  Elec       q    Type
REMARK                         _______ _______ _______ _____ _____    ______ ____
ROOT
ATOM      2  O   UNL     1      -1.004   2.324  -1.615  0.00  0.00    -0.270 OA
ATOM      4  N   UNL     1      -1.822   0.430  -0.497  0.00  0.00    -0.278 N 
ATOM      5  N   UNL     1      -2.690  -3.056   0.562  0.00  0.00    -0.347 N 
ATOM      6  N   UNL     1      -4.651  -2.645  -0.425  0.00  0.00    -0.240 NA
ATOM      7  C   UNL     1      -3.237   0.864  -0.635  0.00  0.00    +0.191 C 
ATOM      8  C   UNL     1      -4.204  -0.247  -1.097  0.00  0.00    +0.091 C 
ATOM      9  C   UNL     1      -1.522  -0.812   0.273  0.00  0.00    +0.164 C 
ATOM     10  C   UNL     1      -2.636  -1.767   0.123  0.00  0.00    +0.056 A 
ATOM     11  C   UNL     1      -3.851  -1.538  -0.474  0.00  0.00    +0.066 A 
ATOM     12  C   UNL     1      -0.818   1.289  -0.976  0.00  0.00    +0.248 C 
ATOM     14  C   UNL     1      -3.923  -3.543   0.208  0.00  0.00    +0.197 A 
ATOM     28  H   UNL     1      -1.965  -3.560   1.055  0.00  0.00    +0.167 HD
ENDROOT
BRANCH  12  15
ATOM     15  C   UNL     1       0.583   0.943  -0.695  0.00  0.00    +0.037 A 
ATOM     16  C   UNL     1       1.297   0.147  -1.591  0.00  0.00    +0.013 A 
ATOM     17  C   UNL     1       1.197   1.410   0.467  0.00  0.00    +0.013 A 
ATOM     18  C   UNL     1       3.241   0.286  -0.163  0.00  0.00    -0.018 A 
ATOM     19  C   UNL     1       2.627  -0.181  -1.325  0.00  0.00    +0.009 A 
ATOM     20  C   UNL     1       2.527   1.081   0.733  0.00  0.00    +0.009 A 
BRANCH  18  21
ATOM     21  C   UNL     1       4.620  -0.055   0.113  0.00  0.00    -0.018 A 
ATOM     23  C   UNL     1       4.922  -1.209   0.836  0.00  0.00    +0.008 A 
ATOM     24  C   UNL     1       5.647   0.771  -0.343  0.00  0.00    +0.008 A 
ATOM     25  C   UNL     1       6.251  -1.538   1.102  0.00  0.00    +0.001 A 
ATOM     26  C   UNL     1       6.977   0.442  -0.077  0.00  0.00    +0.001 A 
ATOM     27  C   UNL     1       7.278  -0.712   0.646  0.00  0.00    +0.000 A 
ENDBRANCH  18  21
ENDBRANCH  12  15
BRANCH   7  13
ATOM      3  O   UNL     1      -2.897   1.435   1.682  0.00  0.00    -0.249 OA
ATOM     13  C   UNL     1      -3.626   1.434   0.699  0.00  0.00    +0.328 C 
BRANCH  13   1
ATOM      1  O   UNL     1      -4.892   1.934   0.630  0.00  0.00    -0.467 OA
ATOM     22  C   UNL     1      -5.392   2.512   1.839  0.00  0.00    +0.280 C 
ENDBRANCH  13   1
ENDBRANCH   7  13
TORSDOF 4
