REMARK  Name = 25390136
REMARK  10 active torsions:
REMARK  status: ('A' for Active; 'I' for Inactive)
REMARK    1  A    between atoms: O_3  and  C_11
REMARK    2  A    between atoms: O_4  and  C_12
REMARK    3  A    between atoms: N_7  and  C_16
REMARK    4  A    between atoms: N_9  and  C_20
REMARK    5  A    between atoms: C_13  and  C_15
REMARK    6  A    between atoms: C_14  and  C_16
REMARK    7  A    between atoms: C_15  and  C_17
REMARK    8  A    between atoms: C_19  and  C_21
REMARK    9  A    between atoms: C_20  and  C_22
REMARK   10  A    between atoms: C_20  and  C_23
REMARK                            x       y       z     vdW  Elec       q    Type
REMARK                         _______ _______ _______ _____ _____    ______ ____
ROOT
ATOM      2  O   UNL     1       2.455   0.139  -0.575  0.00  0.00    -0.366 OA
ATOM     11  C   UNL     1       4.335   0.994   0.562  0.00  0.00    +0.175 C 
ATOM     12  C   UNL     1       4.834   0.104  -0.558  0.00  0.00    +0.176 C 
ATOM     13  C   UNL     1       2.931   1.325   0.086  0.00  0.00    +0.159 C 
ATOM     14  C   UNL     1       3.586  -0.701  -0.902  0.00  0.00    +0.167 C 
ENDROOT
BRANCH  11   3
ATOM      3  O   UNL     1       5.120   2.154   0.746  0.00  0.00    -0.387 OA
ATOM     29  H   UNL     1       6.029   1.864   0.933  0.00  0.00    +0.210 HD
ENDBRANCH  11   3
BRANCH  12   4
ATOM      4  O   UNL     1       5.183   0.889  -1.697  0.00  0.00    -0.387 OA
ATOM     30  H   UNL     1       5.460   0.276  -2.399  0.00  0.00    +0.210 HD
ENDBRANCH  12   4
BRANCH  13  15
ATOM     15  C   UNL     1       1.985   1.697   1.213  0.00  0.00    +0.133 C 
BRANCH  15  17
ATOM      5  O   UNL     1       0.339   3.104   0.094  0.00  0.00    -0.338 OA
ATOM      8  N   UNL     1      -0.465   1.137   0.799  0.00  0.00    -0.191 NA
ATOM     10  N   UNL     1      -1.013   3.083  -0.271  0.00  0.00    -0.056 NA
ATOM     17  C   UNL     1       0.579   1.921   0.717  0.00  0.00    +0.230 A 
ATOM     19  C   UNL     1      -1.418   1.892   0.179  0.00  0.00    +0.202 A 
BRANCH  19  21
ATOM      1  F   UNL     1      -6.646   0.084  -0.420  0.00  0.00    -0.205 F 
ATOM     21  C   UNL     1      -2.766   1.426   0.025  0.00  0.00    +0.023 A 
ATOM     24  C   UNL     1      -3.594   1.994  -0.943  0.00  0.00    +0.014 A 
ATOM     25  C   UNL     1      -3.248   0.404   0.842  0.00  0.00    +0.014 A 
ATOM     26  C   UNL     1      -4.904   1.541  -1.093  0.00  0.00    +0.039 A 
ATOM     27  C   UNL     1      -4.559  -0.050   0.692  0.00  0.00    +0.039 A 
ATOM     28  C   UNL     1      -5.387   0.519  -0.276  0.00  0.00    +0.123 A 
ENDBRANCH  19  21
ENDBRANCH  15  17
ENDBRANCH  13  15
BRANCH  14  16
ATOM     16  C   UNL     1       3.462  -1.984  -0.092  0.00  0.00    +0.140 C 
BRANCH  16   7
ATOM      6  O   UNL     1       0.848  -1.722   1.103  0.00  0.00    -0.253 OA
ATOM      7  N   UNL     1       2.275  -2.707  -0.444  0.00  0.00    -0.297 N 
ATOM      9  N   UNL     1       0.059  -3.350  -0.351  0.00  0.00    -0.297 N 
ATOM     18  C   UNL     1       1.041  -2.521   0.187  0.00  0.00    +0.300 C 
ATOM     31  H   UNL     1       2.332  -3.381  -1.201  0.00  0.00    +0.150 HD
ATOM     32  H   UNL     1       0.333  -4.028  -1.055  0.00  0.00    +0.150 HD
BRANCH   9  20
ATOM     20  C   UNL     1      -1.305  -3.355   0.121  0.00  0.00    +0.068 C 
ATOM     22  C   UNL     1      -1.462  -4.339   1.274  0.00  0.00    +0.027 C 
ATOM     23  C   UNL     1      -2.264  -3.681  -1.017  0.00  0.00    +0.027 C 
ENDBRANCH   9  20
ENDBRANCH  16   7
ENDBRANCH  14  16
TORSDOF 8
