REMARK  Name = 51137905
REMARK  3 active torsions:
REMARK  status: ('A' for Active; 'I' for Inactive)
REMARK    1  A    between atoms: N_4  and  C_14
REMARK    2  A    between atoms: C_6  and  C_10
REMARK    3  A    between atoms: C_11  and  C_15
REMARK                            x       y       z     vdW  Elec       q    Type
REMARK                         _______ _______ _______ _____ _____    ______ ____
ROOT
ATOM      2  O   UNL     1       2.558   2.081   1.882  0.00  0.00    -0.270 OA
ATOM      3  N   UNL     1       1.179   1.736   0.045  0.00  0.00    -0.297 N 
ATOM      6  C   UNL     1      -0.705   1.467  -1.383  0.00  0.00    +0.074 C 
ATOM      7  C   UNL     1      -0.632   2.921  -0.893  0.00  0.00    +0.032 C 
ATOM      8  C   UNL     1       0.722   0.969  -1.115  0.00  0.00    +0.119 C 
ATOM      9  C   UNL     1       0.289   2.854   0.317  0.00  0.00    +0.109 C 
ATOM     11  C   UNL     1       2.254   1.449   0.872  0.00  0.00    +0.247 C 
ENDROOT
BRANCH   6  10
ATOM      4  N   UNL     1      -2.494  -0.319  -1.324  0.00  0.00    -0.330 N 
ATOM      5  N   UNL     1      -2.283   0.919   0.510  0.00  0.00    -0.232 NA
ATOM     10  C   UNL     1      -1.829   0.703  -0.704  0.00  0.00    +0.115 A 
ATOM     12  C   UNL     1      -3.439  -0.793  -0.452  0.00  0.00    +0.069 A 
ATOM     13  C   UNL     1      -3.288  -0.005   0.686  0.00  0.00    +0.089 A 
ATOM     14  C   UNL     1      -2.247  -0.813  -2.660  0.00  0.00    +0.150 C 
ATOM     16  C   UNL     1      -4.385  -1.814  -0.557  0.00  0.00    +0.028 A 
ATOM     17  C   UNL     1      -4.121  -0.234   1.794  0.00  0.00    +0.030 A 
ATOM     18  C   UNL     1      -5.206  -2.028   0.555  0.00  0.00    +0.002 A 
ATOM     19  C   UNL     1      -5.078  -1.253   1.710  0.00  0.00    +0.002 A 
ENDBRANCH   6  10
BRANCH  11  15
ATOM      1  F   UNL     1       5.431  -2.969  -0.452  0.00  0.00    -0.205 F 
ATOM     15  C   UNL     1       3.088   0.288   0.524  0.00  0.00    +0.037 A 
ATOM     20  C   UNL     1       3.747   0.246  -0.705  0.00  0.00    +0.016 A 
ATOM     21  C   UNL     1       3.221  -0.770   1.423  0.00  0.00    +0.016 A 
ATOM     22  C   UNL     1       4.538  -0.854  -1.035  0.00  0.00    +0.039 A 
ATOM     23  C   UNL     1       4.012  -1.870   1.093  0.00  0.00    +0.039 A 
ATOM     24  C   UNL     1       4.670  -1.912  -0.136  0.00  0.00    +0.123 A 
ENDBRANCH  11  15
TORSDOF 2
