REMARK  Name = 11883396
REMARK  5 active torsions:
REMARK  status: ('A' for Active; 'I' for Inactive)
REMARK    1  A    between atoms: O_6  and  C_16
REMARK    2  A    between atoms: O_6  and  C_20
REMARK    3  A    between atoms: N_10  and  C_15
REMARK    4  A    between atoms: N_12  and  C_25
REMARK    5  A    between atoms: C_28  and  C_31
REMARK                            x       y       z     vdW  Elec       q    Type
REMARK                         _______ _______ _______ _____ _____    ______ ____
ROOT
ATOM      4  O   UNL     1      -1.212  -1.074  -1.278  0.00  0.00    -0.368 OA
ATOM      5  O   UNL     1      -2.243  -3.140   0.740  0.00  0.00    -0.368 OA
ATOM     13  C   UNL     1      -2.616  -1.767   0.503  0.00  0.00    +0.173 C 
ATOM     14  C   UNL     1      -1.345  -1.021   0.152  0.00  0.00    +0.192 C 
ATOM     15  C   UNL     1      -3.454  -1.665  -0.750  0.00  0.00    +0.131 C 
ATOM     16  C   UNL     1      -0.283  -1.842   0.844  0.00  0.00    +0.235 C 
ATOM     17  C   UNL     1      -2.398  -1.654  -1.843  0.00  0.00    +0.185 C 
ATOM     18  C   UNL     1      -0.813  -3.249   0.684  0.00  0.00    +0.207 C 
ENDROOT
BRANCH  15  10
ATOM      7  O   UNL     1      -6.120  -1.421   0.113  0.00  0.00    -0.253 OA
ATOM      8  O   UNL     1      -7.339   3.375   0.086  0.00  0.00    -0.377 OA
ATOM     10  N   UNL     1      -4.235  -0.449  -0.761  0.00  0.00    -0.292 N 
ATOM     11  N   UNL     1      -6.182   0.842  -0.396  0.00  0.00    -0.281 N 
ATOM     19  C   UNL     1      -5.551  -0.411  -0.316  0.00  0.00    +0.303 C 
ATOM     21  C   UNL     1      -5.633   2.049  -1.029  0.00  0.00    +0.137 C 
ATOM     22  C   UNL     1      -7.572   0.970   0.046  0.00  0.00    +0.137 C 
ATOM     23  C   UNL     1      -5.941   3.287  -0.194  0.00  0.00    +0.179 C 
ATOM     24  C   UNL     1      -7.774   2.247   0.847  0.00  0.00    +0.179 C 
ATOM     32  H   UNL     1      -3.739   0.399  -0.997  0.00  0.00    +0.151 HD
ENDBRANCH  15  10
BRANCH  16   6
ATOM      6  O   UNL     1       1.001  -1.691   0.281  0.00  0.00    -0.442 OA
BRANCH   6  20
ATOM      9  O   UNL     1       1.471  -0.035   1.786  0.00  0.00    -0.226 OA
ATOM     12  N   UNL     1       3.032  -0.716   0.179  0.00  0.00    -0.251 N 
ATOM     20  C   UNL     1       1.820  -0.734   0.842  0.00  0.00    +0.405 C 
ATOM     33  H   UNL     1       3.135  -1.378  -0.586  0.00  0.00    +0.158 HD
BRANCH  12  25
ATOM     25  C   UNL     1       4.150   0.111   0.432  0.00  0.00    +0.037 A 
ATOM     26  C   UNL     1       5.301  -0.013  -0.347  0.00  0.00    +0.035 A 
ATOM     27  C   UNL     1       4.103   1.050   1.462  0.00  0.00    +0.023 A 
ATOM     28  C   UNL     1       6.404   0.803  -0.096  0.00  0.00    +0.057 A 
ATOM     29  C   UNL     1       5.207   1.866   1.713  0.00  0.00    +0.002 A 
ATOM     30  C   UNL     1       6.357   1.742   0.933  0.00  0.00    +0.012 A 
BRANCH  28  31
ATOM      1  F   UNL     1       8.632   1.531  -0.572  0.00  0.00    -0.166 F 
ATOM      2  F   UNL     1       8.199  -0.572  -0.876  0.00  0.00    -0.166 F 
ATOM      3  F   UNL     1       7.400   0.910  -2.252  0.00  0.00    -0.166 F 
ATOM     31  C   UNL     1       7.634   0.670  -0.929  0.00  0.00    +0.417 C 
ENDBRANCH  28  31
ENDBRANCH  12  25
ENDBRANCH   6  20
ENDBRANCH  16   6
TORSDOF 5
