REMARK  Name = 11882080
REMARK  12 active torsions:
REMARK  status: ('A' for Active; 'I' for Inactive)
REMARK    1  A    between atoms: S_1  and  C_19
REMARK    2  A    between atoms: S_1  and  C_27
REMARK    3  A    between atoms: S_2  and  C_33
REMARK    4  A    between atoms: S_2  and  C_36
REMARK    5  A    between atoms: N_8  and  C_12
REMARK    6  A    between atoms: N_9  and  C_18
REMARK    7  A    between atoms: N_10  and  C_24
REMARK    8  A    between atoms: C_13  and  C_16
REMARK    9  A    between atoms: C_17  and  C_19
REMARK   10  A    between atoms: C_18  and  C_21
REMARK   11  A    between atoms: C_18  and  C_22
REMARK   12  A    between atoms: C_21  and  C_23
REMARK                            x       y       z     vdW  Elec       q    Type
REMARK                         _______ _______ _______ _____ _____    ______ ____
ROOT
ATOM      4  O   UNL     1       3.245  -2.318  -1.770  0.00  0.00    -0.275 OA
ATOM      7  N   UNL     1       2.382  -2.213   0.376  0.00  0.00    -0.287 N 
ATOM     12  C   UNL     1       0.541  -1.073   1.341  0.00  0.00    +0.105 C 
ATOM     13  C   UNL     1       1.484  -1.087   0.139  0.00  0.00    +0.182 C 
ATOM     14  C   UNL     1       1.377  -1.704   2.458  0.00  0.00    +0.043 C 
ATOM     15  C   UNL     1       2.236  -2.733   1.733  0.00  0.00    +0.110 C 
ATOM     17  C   UNL     1       3.142  -2.784  -0.634  0.00  0.00    +0.226 C 
ENDROOT
BRANCH  12   8
ATOM      5  O   UNL     1      -1.950  -0.088   0.328  0.00  0.00    -0.252 OA
ATOM      8  N   UNL     1      -0.649  -1.847   1.075  0.00  0.00    -0.294 N 
ATOM     10  N   UNL     1      -2.807  -2.272   0.421  0.00  0.00    -0.269 N 
ATOM     20  C   UNL     1      -1.830  -1.285   0.578  0.00  0.00    +0.304 C 
ATOM     37  H   UNL     1      -0.608  -2.854   1.193  0.00  0.00    +0.151 HD
ATOM     39  H   UNL     1      -2.544  -3.220   0.677  0.00  0.00    +0.156 HD
BRANCH  10  24
ATOM     24  C   UNL     1      -4.131  -2.115  -0.053  0.00  0.00    +0.036 A 
ATOM     28  C   UNL     1      -4.592  -0.854  -0.430  0.00  0.00    +0.038 A 
ATOM     29  C   UNL     1      -4.974  -3.222  -0.143  0.00  0.00    +0.023 A 
ATOM     33  C   UNL     1      -5.898  -0.700  -0.897  0.00  0.00    +0.009 A 
ATOM     34  C   UNL     1      -6.279  -3.068  -0.610  0.00  0.00    +0.003 A 
ATOM     35  C   UNL     1      -6.741  -1.807  -0.987  0.00  0.00    +0.015 A 
BRANCH  33   2
ATOM      2  S   UNL     1      -6.489   0.911  -1.379  0.00  0.00    -0.129 S 
ATOM     36  C   UNL     1      -6.305   1.848   0.164  0.00  0.00    +0.090 C 
ENDBRANCH  33   2
ENDBRANCH  10  24
ENDBRANCH  12   8
BRANCH  13  16
ATOM      3  O   UNL     1       3.377   0.231   0.754  0.00  0.00    -0.274 OA
ATOM      9  N   UNL     1       1.814   1.123  -0.723  0.00  0.00    -0.302 N 
ATOM     16  C   UNL     1       2.342   0.142   0.099  0.00  0.00    +0.236 C 
ATOM     38  H   UNL     1       0.975   0.918  -1.258  0.00  0.00    +0.150 HD
BRANCH   9  18
ATOM     18  C   UNL     1       2.438   2.412  -0.916  0.00  0.00    +0.163 C 
BRANCH  18  22
ATOM      6  O   UNL     1       3.282   1.521  -3.013  0.00  0.00    -0.274 OA
ATOM     11  N   UNL     1       4.551   3.071  -1.888  0.00  0.00    -0.328 N 
ATOM     22  C   UNL     1       3.448   2.257  -2.043  0.00  0.00    +0.231 C 
ATOM     40  H   UNL     1       5.295   3.075  -2.577  0.00  0.00    +0.145 HD
ATOM     41  H   UNL     1       4.663   3.692  -1.093  0.00  0.00    +0.145 HD
ENDBRANCH  18  22
BRANCH  18  21
ATOM     21  C   UNL     1       1.417   3.504  -1.260  0.00  0.00    +0.067 C 
BRANCH  21  23
ATOM     23  C   UNL     1       0.685   4.022  -0.046  0.00  0.00    -0.045 A 
ATOM     25  C   UNL     1      -0.504   3.417   0.361  0.00  0.00    +0.004 A 
ATOM     26  C   UNL     1       1.197   5.104   0.669  0.00  0.00    +0.004 A 
ATOM     30  C   UNL     1      -1.181   3.895   1.483  0.00  0.00    +0.000 A 
ATOM     31  C   UNL     1       0.520   5.582   1.791  0.00  0.00    +0.000 A 
ATOM     32  C   UNL     1      -0.669   4.978   2.198  0.00  0.00    +0.000 A 
ENDBRANCH  21  23
ENDBRANCH  18  21
ENDBRANCH   9  18
ENDBRANCH  13  16
BRANCH  17  19
ATOM     19  C   UNL     1       3.876  -4.048  -0.260  0.00  0.00    +0.164 C 
BRANCH  19   1
ATOM      1  S   UNL     1       5.497  -3.576   0.359  0.00  0.00    -0.155 S 
ATOM     27  C   UNL     1       6.148  -5.225   0.724  0.00  0.00    +0.085 C 
ENDBRANCH  19   1
ENDBRANCH  17  19
TORSDOF 10
