REMARK  Name = 11882034
REMARK  10 active torsions:
REMARK  status: ('A' for Active; 'I' for Inactive)
REMARK    1  A    between atoms: O_5  and  C_36
REMARK    2  A    between atoms: O_5  and  C_37
REMARK    3  A    between atoms: N_7  and  C_12
REMARK    4  A    between atoms: N_8  and  C_18
REMARK    5  A    between atoms: N_9  and  C_28
REMARK    6  A    between atoms: C_13  and  C_16
REMARK    7  A    between atoms: C_17  and  C_21
REMARK    8  A    between atoms: C_18  and  C_20
REMARK    9  A    between atoms: C_18  and  C_23
REMARK   10  A    between atoms: C_20  and  C_22
REMARK                            x       y       z     vdW  Elec       q    Type
REMARK                         _______ _______ _______ _____ _____    ______ ____
ROOT
ATOM      2  O   UNL     1      -6.043   0.951   1.109  0.00  0.00    -0.276 OA
ATOM      6  N   UNL     1      -4.209   2.011   0.176  0.00  0.00    -0.288 N 
ATOM     12  C   UNL     1      -2.200   2.701  -0.888  0.00  0.00    +0.094 C 
ATOM     13  C   UNL     1      -3.814   0.913  -0.694  0.00  0.00    +0.164 C 
ATOM     14  C   UNL     1      -2.792   1.516  -1.656  0.00  0.00    +0.055 C 
ATOM     15  C   UNL     1      -3.365   3.188  -0.033  0.00  0.00    +0.131 C 
ATOM     17  C   UNL     1      -5.355   1.962   0.955  0.00  0.00    +0.213 C 
ATOM     21  C   UNL     1      -5.729   3.250   1.645  0.00  0.00    +0.109 C 
ENDROOT
BRANCH  12   7
ATOM      3  O   UNL     1       0.558   2.742  -1.663  0.00  0.00    -0.253 OA
ATOM      7  N   UNL     1      -1.072   2.307  -0.081  0.00  0.00    -0.295 N 
ATOM      9  N   UNL     1       1.128   1.917   0.459  0.00  0.00    -0.269 N 
ATOM     19  C   UNL     1       0.252   2.358  -0.537  0.00  0.00    +0.304 C 
ATOM     38  H   UNL     1      -1.248   1.915   0.839  0.00  0.00    +0.151 HD
ATOM     40  H   UNL     1       0.710   1.630   1.340  0.00  0.00    +0.156 HD
BRANCH   9  28
ATOM     28  C   UNL     1       2.537   1.817   0.394  0.00  0.00    +0.035 A 
ATOM     32  C   UNL     1       3.255   1.351   1.495  0.00  0.00    +0.027 A 
ATOM     33  C   UNL     1       3.209   2.184  -0.772  0.00  0.00    +0.027 A 
ATOM     34  C   UNL     1       4.645   1.251   1.430  0.00  0.00    +0.047 A 
ATOM     35  C   UNL     1       4.599   2.085  -0.837  0.00  0.00    +0.047 A 
ATOM     36  C   UNL     1       5.317   1.618   0.264  0.00  0.00    +0.120 A 
BRANCH  36   5
ATOM      5  O   UNL     1       6.673   1.519   0.200  0.00  0.00    -0.495 OA
ATOM     37  C   UNL     1       7.344   1.033   1.361  0.00  0.00    +0.277 C 
ENDBRANCH  36   5
ENDBRANCH   9  28
ENDBRANCH  12   7
BRANCH  13  16
ATOM      1  O   UNL     1      -3.107  -0.068   1.364  0.00  0.00    -0.274 OA
ATOM      8  N   UNL     1      -2.777  -1.244  -0.618  0.00  0.00    -0.302 N 
ATOM     16  C   UNL     1      -3.207  -0.171   0.144  0.00  0.00    +0.234 C 
ATOM     39  H   UNL     1      -2.990  -1.257  -1.611  0.00  0.00    +0.150 HD
BRANCH   8  18
ATOM     18  C   UNL     1      -2.136  -2.409  -0.052  0.00  0.00    +0.163 C 
BRANCH  18  23
ATOM      4  O   UNL     1      -4.294  -3.507  -0.256  0.00  0.00    -0.274 OA
ATOM     11  N   UNL     1      -2.912  -4.114   1.475  0.00  0.00    -0.328 N 
ATOM     23  C   UNL     1      -3.240  -3.371   0.361  0.00  0.00    +0.231 C 
ATOM     42  H   UNL     1      -2.027  -4.008   1.960  0.00  0.00    +0.145 HD
ATOM     43  H   UNL     1      -3.555  -4.804   1.849  0.00  0.00    +0.145 HD
ENDBRANCH  18  23
BRANCH  18  20
ATOM     20  C   UNL     1      -1.179  -3.084  -1.043  0.00  0.00    +0.069 C 
BRANCH  20  22
ATOM     10  N   UNL     1       1.758  -1.012  -1.811  0.00  0.00    -0.360 N 
ATOM     22  C   UNL     1       0.148  -2.388  -1.148  0.00  0.00    -0.020 A 
ATOM     24  C   UNL     1       1.307  -2.650  -0.366  0.00  0.00    +0.003 A 
ATOM     25  C   UNL     1       0.457  -1.376  -2.028  0.00  0.00    +0.087 A 
ATOM     26  C   UNL     1       2.303  -1.774  -0.802  0.00  0.00    +0.047 A 
ATOM     27  C   UNL     1       1.606  -3.552   0.675  0.00  0.00    +0.010 A 
ATOM     29  C   UNL     1       3.587  -1.753  -0.247  0.00  0.00    +0.026 A 
ATOM     30  C   UNL     1       2.886  -3.543   1.240  0.00  0.00    +0.001 A 
ATOM     31  C   UNL     1       3.861  -2.657   0.784  0.00  0.00    +0.002 A 
ATOM     41  H   UNL     1       2.249  -0.289  -2.319  0.00  0.00    +0.165 HD
ENDBRANCH  20  22
ENDBRANCH  18  20
ENDBRANCH   8  18
ENDBRANCH  13  16
TORSDOF 8
