REMARK  Name = 11883007
REMARK  12 active torsions:
REMARK  status: ('A' for Active; 'I' for Inactive)
REMARK    1  A    between atoms: O_2  and  C_14
REMARK    2  A    between atoms: O_3  and  C_19
REMARK    3  A    between atoms: N_7  and  C_25
REMARK    4  A    between atoms: C_9  and  C_17
REMARK    5  A    between atoms: C_11  and  C_19
REMARK    6  A    between atoms: C_11  and  C_20
REMARK    7  A    between atoms: C_12  and  C_22
REMARK    8  A    between atoms: C_22  and  C_23
REMARK    9  A    between atoms: C_28  and  C_29
REMARK   10  A    between atoms: C_29  and  C_30
REMARK   11  A    between atoms: C_29  and  C_31
REMARK   12  A    between atoms: C_29  and  C_32
REMARK                            x       y       z     vdW  Elec       q    Type
REMARK                         _______ _______ _______ _____ _____    ______ ____
ROOT
ATOM      1  S   UNL     1       0.500   2.944   0.168  0.00  0.00    -0.057 S 
ATOM      5  O   UNL     1       4.218   0.185  -0.156  0.00  0.00    -0.275 OA
ATOM      6  N   UNL     1       1.294   0.492  -0.048  0.00  0.00    -0.229 NA
ATOM      8  N   UNL     1       3.007   2.186   0.038  0.00  0.00    -0.264 N 
ATOM      9  C   UNL     1      -2.380  -0.599   0.374  0.00  0.00    -0.019 C 
ATOM     10  C   UNL     1      -2.934   0.725  -0.317  0.00  0.00    +0.011 C 
ATOM     11  C   UNL     1      -4.499   0.921  -0.334  0.00  0.00    +0.021 C 
ATOM     12  C   UNL     1      -0.868  -0.806  -0.100  0.00  0.00    +0.054 C 
ATOM     13  C   UNL     1      -3.213  -1.817  -0.103  0.00  0.00    +0.010 C 
ATOM     14  C   UNL     1      -5.177  -0.402  -0.788  0.00  0.00    +0.123 C 
ATOM     15  C   UNL     1      -2.149   1.983   0.154  0.00  0.00    +0.049 C 
ATOM     16  C   UNL     1      -4.718  -1.617   0.010  0.00  0.00    +0.032 C 
ATOM     17  C   UNL     1      -2.431  -0.537   1.920  0.00  0.00    +0.012 C 
ATOM     18  C   UNL     1      -0.087   0.479   0.001  0.00  0.00    +0.058 A 
ATOM     20  C   UNL     1      -4.861   2.010  -1.383  0.00  0.00    +0.016 C 
ATOM     21  C   UNL     1      -0.682   1.721   0.096  0.00  0.00    +0.015 A 
ATOM     24  C   UNL     1       1.713   1.735   0.040  0.00  0.00    +0.165 A 
ATOM     28  C   UNL     1       4.178   1.409  -0.057  0.00  0.00    +0.224 C 
ATOM     36  H   UNL     1       3.097   3.194   0.116  0.00  0.00    +0.157 HD
ENDROOT
BRANCH  28  29
ATOM     29  C   UNL     1       5.485   2.243  -0.026  0.00  0.00    +0.039 C 
ATOM     30  C   UNL     1       5.562   3.027   1.298  0.00  0.00    +0.020 C 
ATOM     31  C   UNL     1       5.499   3.250  -1.187  0.00  0.00    +0.020 C 
ATOM     32  C   UNL     1       6.708   1.317  -0.112  0.00  0.00    +0.020 C 
ENDBRANCH  28  29
BRANCH  14   2
ATOM      2  O   UNL     1      -6.597  -0.299  -0.691  0.00  0.00    -0.391 OA
ATOM     33  H   UNL     1      -6.977  -1.128  -1.028  0.00  0.00    +0.210 HD
ENDBRANCH  14   2
BRANCH  11  19
ATOM     19  C   UNL     1      -5.097   1.416   1.001  0.00  0.00    +0.165 C 
BRANCH  19   3
ATOM      3  O   UNL     1      -6.490   1.553   0.826  0.00  0.00    -0.394 OA
ATOM     34  H   UNL     1      -6.857   1.874   1.667  0.00  0.00    +0.209 HD
ENDBRANCH  19   3
ENDBRANCH  11  19
BRANCH  12  22
ATOM     22  C   UNL     1      -0.136  -1.964   0.591  0.00  0.00    +0.106 C 
BRANCH  22  23
ATOM      4  O   UNL     1       1.215  -2.143  -1.411  0.00  0.00    -0.276 OA
ATOM      7  N   UNL     1       1.589  -3.604   0.354  0.00  0.00    -0.312 N 
ATOM     23  C   UNL     1       0.947  -2.551  -0.284  0.00  0.00    +0.214 C 
ATOM     35  H   UNL     1       1.298  -3.881   1.288  0.00  0.00    +0.149 HD
BRANCH   7  25
ATOM     25  C   UNL     1       2.659  -4.339  -0.257  0.00  0.00    +0.073 C 
ATOM     26  C   UNL     1       3.671  -5.071   0.576  0.00  0.00    +0.024 C 
ATOM     27  C   UNL     1       4.075  -3.847  -0.193  0.00  0.00    +0.024 C 
ENDBRANCH   7  25
ENDBRANCH  22  23
ENDBRANCH  12  22
TORSDOF 7
