REMARK  Name = 11882961
REMARK  8 active torsions:
REMARK  status: ('A' for Active; 'I' for Inactive)
REMARK    1  A    between atoms: O_2  and  C_15
REMARK    2  A    between atoms: O_3  and  C_20
REMARK    3  A    between atoms: C_10  and  C_18
REMARK    4  A    between atoms: C_12  and  C_20
REMARK    5  A    between atoms: C_12  and  C_21
REMARK    6  A    between atoms: C_13  and  C_23
REMARK    7  A    between atoms: C_23  and  C_24
REMARK    8  A    between atoms: C_28  and  C_29
REMARK                            x       y       z     vdW  Elec       q    Type
REMARK                         _______ _______ _______ _____ _____    ______ ____
ROOT
ATOM      1  S   UNL     1      -0.155   3.111   0.744  0.00  0.00    -0.057 S 
ATOM      6  O   UNL     1       3.682   0.536   0.089  0.00  0.00    -0.275 OA
ATOM      7  N   UNL     1       0.716   0.753   0.132  0.00  0.00    -0.229 NA
ATOM      9  N   UNL     1       2.375   2.443   0.584  0.00  0.00    -0.264 N 
ATOM     10  C   UNL     1      -2.938  -0.475   0.208  0.00  0.00    -0.019 C 
ATOM     11  C   UNL     1      -3.505   0.937  -0.261  0.00  0.00    +0.011 C 
ATOM     12  C   UNL     1      -5.074   1.099  -0.306  0.00  0.00    +0.021 C 
ATOM     13  C   UNL     1      -1.405  -0.562  -0.235  0.00  0.00    +0.054 C 
ATOM     14  C   UNL     1      -3.718  -1.608  -0.509  0.00  0.00    +0.010 C 
ATOM     15  C   UNL     1      -5.696  -0.138  -1.013  0.00  0.00    +0.123 C 
ATOM     16  C   UNL     1      -2.774   2.109   0.456  0.00  0.00    +0.049 C 
ATOM     17  C   UNL     1      -5.231  -1.464  -0.423  0.00  0.00    +0.032 C 
ATOM     18  C   UNL     1      -3.046  -0.689   1.738  0.00  0.00    +0.012 C 
ATOM     19  C   UNL     1      -0.665   0.702   0.122  0.00  0.00    +0.058 A 
ATOM     21  C   UNL     1      -5.429   2.349  -1.160  0.00  0.00    +0.016 C 
ATOM     22  C   UNL     1      -1.299   1.893   0.411  0.00  0.00    +0.015 A 
ATOM     25  C   UNL     1       1.096   1.971   0.454  0.00  0.00    +0.165 A 
ATOM     28  C   UNL     1       3.564   1.717   0.399  0.00  0.00    +0.222 C 
ATOM     39  H   UNL     1       2.441   3.426   0.835  0.00  0.00    +0.157 HD
ENDROOT
BRANCH  28  29
ATOM     29  C   UNL     1       4.777   2.572   0.626  0.00  0.00    +0.075 C 
ATOM     32  C   UNL     1       5.929   1.748   1.205  0.00  0.00    +0.013 C 
ATOM     33  C   UNL     1       5.160   3.297  -0.666  0.00  0.00    +0.013 C 
ATOM     34  C   UNL     1       6.627   0.866   0.170  0.00  0.00    +0.001 C 
ATOM     35  C   UNL     1       5.850   2.388  -1.681  0.00  0.00    +0.001 C 
ATOM     36  C   UNL     1       7.038   1.658  -1.066  0.00  0.00    +0.000 C 
ENDBRANCH  28  29
BRANCH  15   2
ATOM      2  O   UNL     1      -7.122  -0.085  -0.956  0.00  0.00    -0.391 OA
ATOM     37  H   UNL     1      -7.465  -0.849  -1.449  0.00  0.00    +0.210 HD
ENDBRANCH  15   2
BRANCH  12  20
ATOM     20  C   UNL     1      -5.733   1.336   1.071  0.00  0.00    +0.165 C 
BRANCH  20   3
ATOM      3  O   UNL     1      -7.121   1.472   0.867  0.00  0.00    -0.394 OA
ATOM     38  H   UNL     1      -7.528   1.630   1.736  0.00  0.00    +0.209 HD
ENDBRANCH  20   3
ENDBRANCH  12  20
BRANCH  13  23
ATOM     23  C   UNL     1      -0.665  -1.808   0.271  0.00  0.00    +0.106 C 
BRANCH  23  24
ATOM      4  O   UNL     1       0.656  -1.445  -1.664  0.00  0.00    -0.276 OA
ATOM      5  O   UNL     1       3.256  -4.968   0.635  0.00  0.00    -0.377 OA
ATOM      8  N   UNL     1       1.238  -3.257  -0.335  0.00  0.00    -0.297 N 
ATOM     24  C   UNL     1       0.465  -2.147  -0.668  0.00  0.00    +0.216 C 
ATOM     26  C   UNL     1       2.357  -3.654  -1.190  0.00  0.00    +0.136 C 
ATOM     27  C   UNL     1       0.963  -4.186   0.767  0.00  0.00    +0.136 C 
ATOM     30  C   UNL     1       3.581  -3.978  -0.344  0.00  0.00    +0.179 C 
ATOM     31  C   UNL     1       2.246  -4.494   1.529  0.00  0.00    +0.179 C 
ENDBRANCH  23  24
ENDBRANCH  13  23
TORSDOF 6
