REMARK  Name = 45783662
REMARK  7 active torsions:
REMARK  status: ('A' for Active; 'I' for Inactive)
REMARK    1  A    between atoms: O_3  and  C_22
REMARK    2  A    between atoms: N_4  and  C_14
REMARK    3  A    between atoms: N_8  and  C_26
REMARK    4  A    between atoms: C_10  and  C_15
REMARK    5  A    between atoms: C_14  and  C_16
REMARK    6  A    between atoms: C_18  and  C_21
REMARK    7  A    between atoms: C_19  and  C_22
REMARK                            x       y       z     vdW  Elec       q    Type
REMARK                         _______ _______ _______ _____ _____    ______ ____
ROOT
ATOM      1  O   UNL     1      -2.043  -1.025   2.015  0.00  0.00    -0.336 OA
ATOM      5  N   UNL     1      -1.143  -1.198  -0.028  0.00  0.00    -0.190 NA
ATOM      6  N   UNL     1      -0.673  -0.782   2.172  0.00  0.00    -0.056 NA
ATOM     15  C   UNL     1      -2.235  -1.262   0.691  0.00  0.00    +0.245 A 
ATOM     18  C   UNL     1      -0.211  -0.902   0.923  0.00  0.00    +0.204 A 
ENDROOT
BRANCH  18  21
ATOM      7  N   UNL     1       3.429  -0.258   1.328  0.00  0.00    -0.237 NA
ATOM     21  C   UNL     1       1.175  -0.734   0.594  0.00  0.00    +0.041 A 
ATOM     23  C   UNL     1       1.622  -0.867  -0.716  0.00  0.00    +0.017 A 
ATOM     24  C   UNL     1       2.110  -0.431   1.571  0.00  0.00    +0.124 A 
ATOM     25  C   UNL     1       2.971  -0.696  -1.005  0.00  0.00    +0.047 A 
ATOM     26  C   UNL     1       3.826  -0.395   0.043  0.00  0.00    +0.139 A 
BRANCH  26   8
ATOM      8  N   UNL     1       5.172  -0.224  -0.240  0.00  0.00    -0.290 N 
ATOM      9  N   UNL     1       7.333   0.174   0.086  0.00  0.00    -0.244 NA
ATOM     27  C   UNL     1       5.760  -0.322  -1.470  0.00  0.00    +0.114 A 
ATOM     28  C   UNL     1       6.156   0.075   0.662  0.00  0.00    +0.205 A 
ATOM     29  C   UNL     1       7.093  -0.073  -1.243  0.00  0.00    +0.130 A 
ENDBRANCH  26   8
ENDBRANCH  18  21
BRANCH  15  10
ATOM      4  N   UNL     1      -4.138  -0.616  -0.776  0.00  0.00    -0.284 NA
ATOM     10  C   UNL     1      -3.655  -1.555   0.256  0.00  0.00    +0.146 C 
ATOM     11  C   UNL     1      -3.807  -2.948  -0.381  0.00  0.00    +0.030 C 
ATOM     12  C   UNL     1      -4.437  -2.696  -1.743  0.00  0.00    +0.017 C 
ATOM     13  C   UNL     1      -5.115  -1.351  -1.579  0.00  0.00    +0.085 C 
BRANCH   4  14
ATOM     14  C   UNL     1      -4.697   0.611  -0.221  0.00  0.00    +0.159 C 
BRANCH  14  16
ATOM      2  O   UNL     1      -2.775   1.984  -0.808  0.00  0.00    -0.461 OA
ATOM     16  C   UNL     1      -3.621   1.586   0.178  0.00  0.00    +0.119 A 
ATOM     17  C   UNL     1      -3.292   2.188   1.370  0.00  0.00    +0.046 A 
ATOM     19  C   UNL     1      -1.895   2.850  -0.238  0.00  0.00    +0.131 A 
ATOM     20  C   UNL     1      -2.171   3.009   1.099  0.00  0.00    +0.047 A 
BRANCH  19  22
ATOM     22  C   UNL     1      -0.873   3.417  -1.129  0.00  0.00    +0.230 C 
BRANCH  22   3
ATOM      3  O   UNL     1       0.133   2.441  -1.411  0.00  0.00    -0.387 OA
ATOM     30  H   UNL     1       0.782   2.864  -1.999  0.00  0.00    +0.210 HD
ENDBRANCH  22   3
ENDBRANCH  19  22
ENDBRANCH  14  16
ENDBRANCH   4  14
ENDBRANCH  15  10
TORSDOF 7
