REMARK  Name = 38029086
REMARK  13 active torsions:
REMARK  status: ('A' for Active; 'I' for Inactive)
REMARK    1  A    between atoms: S_1  and  N_5
REMARK    2  A    between atoms: S_1  and  C_21
REMARK    3  A    between atoms: N_5  and  C_15
REMARK    4  A    between atoms: N_6  and  C_22
REMARK    5  A    between atoms: N_6  and  C_23
REMARK    6  A    between atoms: C_8  and  C_12
REMARK    7  A    between atoms: C_9  and  C_15
REMARK    8  A    between atoms: C_11  and  C_16
REMARK    9  A    between atoms: C_12  and  C_17
REMARK   10  A    between atoms: C_12  and  C_18
REMARK   11  A    between atoms: C_13  and  C_19
REMARK   12  A    between atoms: C_16  and  C_20
REMARK   13  A    between atoms: C_22  and  C_24
REMARK                            x       y       z     vdW  Elec       q    Type
REMARK                         _______ _______ _______ _____ _____    ______ ____
ROOT
ATOM      8  C   UNL     1      -0.416  -1.191  -1.355  0.00  0.00    +0.000 C 
ATOM      9  C   UNL     1      -1.741  -1.875  -0.937  0.00  0.00    +0.030 C 
ATOM     10  C   UNL     1       0.770  -2.143  -1.139  0.00  0.00    +0.012 C 
ATOM     11  C   UNL     1       0.895  -2.595   0.329  0.00  0.00    +0.023 C 
ATOM     13  C   UNL     1      -0.438  -3.035   0.898  0.00  0.00    -0.073 C 
ATOM     14  C   UNL     1      -1.605  -2.715   0.311  0.00  0.00    -0.023 C 
ATOM     19  C   UNL     1      -0.398  -3.891   2.133  0.00  0.00    +0.039 C 
ENDROOT
BRANCH   8  12
ATOM     12  C   UNL     1      -0.450  -0.728  -2.814  0.00  0.00    -0.013 C 
ATOM     17  C   UNL     1       0.535   0.416  -3.033  0.00  0.00    +0.007 C 
ATOM     18  C   UNL     1      -0.142  -1.893  -3.749  0.00  0.00    +0.007 C 
ENDBRANCH   8  12
BRANCH   9  15
ATOM     15  C   UNL     1      -2.858  -0.844  -0.739  0.00  0.00    +0.113 C 
BRANCH  15   5
ATOM      5  N   UNL     1      -2.519   0.018   0.404  0.00  0.00    -0.189 NA
ATOM     34  H   UNL     1      -2.382  -0.456   1.305  0.00  0.00    +0.148 HD
BRANCH   5   1
ATOM      1  S   UNL     1      -3.056   1.635   0.448  0.00  0.00    +0.058 S 
ATOM      3  O   UNL     1      -2.644   2.308  -0.769  0.00  0.00    -0.153 OA
ATOM      4  O   UNL     1      -2.737   2.207   1.742  0.00  0.00    -0.153 OA
BRANCH   1  21
ATOM     21  C   UNL     1      -4.811   1.432   0.391  0.00  0.00    +0.105 A 
ATOM     25  C   UNL     1      -5.537   1.309   1.575  0.00  0.00    +0.028 A 
ATOM     26  C   UNL     1      -5.469   1.393  -0.838  0.00  0.00    +0.028 A 
ATOM     27  C   UNL     1      -6.922   1.146   1.531  0.00  0.00    +0.002 A 
ATOM     28  C   UNL     1      -6.854   1.229  -0.883  0.00  0.00    +0.002 A 
ATOM     31  C   UNL     1      -7.580   1.106   0.302  0.00  0.00    +0.000 A 
ENDBRANCH   1  21
ENDBRANCH   5   1
ENDBRANCH  15   5
ENDBRANCH   9  15
BRANCH  11  16
ATOM     16  C   UNL     1       1.525  -1.497   1.193  0.00  0.00    +0.103 C 
BRANCH  16  20
ATOM      2  O   UNL     1       3.596  -2.085   0.137  0.00  0.00    -0.276 OA
ATOM      6  N   UNL     1       3.667  -0.378   1.705  0.00  0.00    -0.300 N 
ATOM     20  C   UNL     1       3.018  -1.361   0.952  0.00  0.00    +0.216 C 
ATOM     23  C   UNL     1       2.963   0.466   2.663  0.00  0.00    +0.132 C 
BRANCH   6  22
ATOM     22  C   UNL     1       5.101  -0.122   1.589  0.00  0.00    +0.144 C 
BRANCH  22  24
ATOM      7  N   UNL     1       6.040   3.228   0.108  0.00  0.00    -0.263 NA
ATOM     24  C   UNL     1       5.402   0.943   0.576  0.00  0.00    -0.012 A 
ATOM     29  C   UNL     1       5.330   0.677  -0.787  0.00  0.00    +0.008 A 
ATOM     30  C   UNL     1       5.759   2.223   0.968  0.00  0.00    +0.115 A 
ATOM     32  C   UNL     1       5.613   1.685  -1.703  0.00  0.00    +0.020 A 
ATOM     33  C   UNL     1       5.960   2.931  -1.208  0.00  0.00    +0.111 A 
ENDBRANCH  22  24
ENDBRANCH   6  22
ENDBRANCH  16  20
ENDBRANCH  11  16
TORSDOF 9
