REMARK  Name = 25314288
REMARK  6 active torsions:
REMARK  status: ('A' for Active; 'I' for Inactive)
REMARK    1  A    between atoms: O_6  and  C_14
REMARK    2  A    between atoms: N_9  and  C_13
REMARK    3  A    between atoms: N_10  and  C_15
REMARK    4  A    between atoms: N_12  and  C_26
REMARK    5  A    between atoms: C_24  and  C_25
REMARK    6  A    between atoms: C_29  and  C_32
REMARK                            x       y       z     vdW  Elec       q    Type
REMARK                         _______ _______ _______ _____ _____    ______ ____
ROOT
ATOM      4  O   UNL     1       2.897  -1.695   1.816  0.00  0.00    -0.342 OA
ATOM      5  O   UNL     1       4.503  -2.880   0.634  0.00  0.00    -0.347 OA
ATOM     13  C   UNL     1       3.440  -0.982  -0.423  0.00  0.00    +0.144 C 
ATOM     14  C   UNL     1       2.337  -1.896  -1.003  0.00  0.00    +0.159 C 
ATOM     15  C   UNL     1       1.489  -2.599   0.080  0.00  0.00    +0.136 C 
ATOM     16  C   UNL     1       2.281  -2.906   1.367  0.00  0.00    +0.170 C 
ATOM     17  C   UNL     1       3.987  -1.564   0.893  0.00  0.00    +0.270 C 
ATOM     18  C   UNL     1       3.506  -3.775   1.149  0.00  0.00    +0.196 C 
ENDROOT
BRANCH  13   9
ATOM      8  O   UNL     1       3.600   5.061  -1.448  0.00  0.00    -0.276 OA
ATOM      9  N   UNL     1       2.909   0.362  -0.188  0.00  0.00    -0.290 NA
ATOM     11  N   UNL     1       2.993   3.226  -0.161  0.00  0.00    -0.299 N 
ATOM     19  C   UNL     1       2.851   1.122  -1.445  0.00  0.00    +0.104 C 
ATOM     20  C   UNL     1       3.727   1.073   0.805  0.00  0.00    +0.104 C 
ATOM     21  C   UNL     1       2.265   2.513  -1.210  0.00  0.00    +0.123 C 
ATOM     22  C   UNL     1       3.163   2.468   1.082  0.00  0.00    +0.123 C 
ATOM     24  C   UNL     1       3.354   4.559  -0.349  0.00  0.00    +0.213 C 
ATOM     25  C   UNL     1       3.446   5.414   0.890  0.00  0.00    +0.109 C 
ENDBRANCH  13   9
BRANCH  15  10
ATOM      7  O   UNL     1      -1.059  -2.683  -1.226  0.00  0.00    -0.252 OA
ATOM     10  N   UNL     1       0.326  -1.799   0.400  0.00  0.00    -0.291 N 
ATOM     12  N   UNL     1      -1.821  -1.012   0.236  0.00  0.00    -0.269 N 
ATOM     23  C   UNL     1      -0.883  -1.905  -0.292  0.00  0.00    +0.304 C 
ATOM     33  H   UNL     1       0.419  -1.077   1.107  0.00  0.00    +0.151 HD
ATOM     35  H   UNL     1      -1.513  -0.435   1.014  0.00  0.00    +0.156 HD
BRANCH  12  26
ATOM     26  C   UNL     1      -3.157  -0.810  -0.180  0.00  0.00    +0.035 A 
ATOM     27  C   UNL     1      -3.954   0.133   0.468  0.00  0.00    +0.035 A 
ATOM     28  C   UNL     1      -3.678  -1.554  -1.239  0.00  0.00    +0.023 A 
ATOM     29  C   UNL     1      -5.272   0.333   0.058  0.00  0.00    +0.057 A 
ATOM     30  C   UNL     1      -4.996  -1.354  -1.650  0.00  0.00    +0.002 A 
ATOM     31  C   UNL     1      -5.793  -0.411  -1.002  0.00  0.00    +0.012 A 
BRANCH  29  32
ATOM      1  F   UNL     1      -7.384   1.411   0.228  0.00  0.00    -0.166 F 
ATOM      2  F   UNL     1      -6.296   1.091   2.082  0.00  0.00    -0.166 F 
ATOM      3  F   UNL     1      -5.631   2.612   0.687  0.00  0.00    -0.166 F 
ATOM     32  C   UNL     1      -6.126   1.341   0.750  0.00  0.00    +0.417 C 
ENDBRANCH  29  32
ENDBRANCH  12  26
ENDBRANCH  15  10
BRANCH  14   6
ATOM      6  O   UNL     1       2.975  -2.895  -1.809  0.00  0.00    -0.388 OA
ATOM     34  H   UNL     1       2.276  -3.430  -2.222  0.00  0.00    +0.210 HD
ENDBRANCH  14   6
TORSDOF 5
