REMARK  Name = 7155412
REMARK  4 active torsions:
REMARK  status: ('A' for Active; 'I' for Inactive)
REMARK    1  A    between atoms: O_3  and  C_29
REMARK    2  A    between atoms: O_3  and  C_30
REMARK    3  A    between atoms: C_13  and  C_18
REMARK    4  A    between atoms: C_15  and  C_19
REMARK                            x       y       z     vdW  Elec       q    Type
REMARK                         _______ _______ _______ _____ _____    ______ ____
ROOT
ATOM      1  O   UNL     1      -3.075   0.833  -3.043  0.00  0.00    -0.268 OA
ATOM      2  O   UNL     1      -0.706   3.760   0.358  0.00  0.00    -0.270 OA
ATOM      4  N   UNL     1      -1.162   1.736   1.436  0.00  0.00    -0.297 N 
ATOM      5  N   UNL     1      -2.432   0.068  -0.925  0.00  0.00    -0.311 N 
ATOM      6  C   UNL     1      -3.515   0.978   1.215  0.00  0.00    +0.027 C 
ATOM      7  C   UNL     1      -1.710  -0.688   1.361  0.00  0.00    +0.054 C 
ATOM      8  C   UNL     1      -3.138  -0.372   1.806  0.00  0.00    +0.018 C 
ATOM      9  C   UNL     1      -2.556   2.074   1.713  0.00  0.00    +0.113 C 
ATOM     10  C   UNL     1      -3.507   0.860  -0.310  0.00  0.00    +0.130 C 
ATOM     11  C   UNL     1      -0.751   0.400   1.893  0.00  0.00    +0.117 C 
ATOM     12  C   UNL     1      -1.603  -0.779  -0.164  0.00  0.00    +0.034 A 
ATOM     13  C   UNL     1      -0.727  -1.610  -0.788  0.00  0.00    +0.002 A 
ATOM     14  C   UNL     1      -2.368   0.122  -2.329  0.00  0.00    +0.252 A 
ATOM     15  C   UNL     1      -0.360   2.642   0.738  0.00  0.00    +0.247 C 
ATOM     16  C   UNL     1      -0.630  -1.579  -2.234  0.00  0.00    +0.015 A 
ATOM     17  C   UNL     1      -1.377  -0.765  -2.980  0.00  0.00    +0.071 A 
ENDROOT
BRANCH  13  18
ATOM     18  C   UNL     1       0.145  -2.534  -0.030  0.00  0.00    -0.016 A 
ATOM     20  C   UNL     1       1.397  -2.107   0.400  0.00  0.00    +0.008 A 
ATOM     21  C   UNL     1      -0.294  -3.825   0.249  0.00  0.00    +0.008 A 
ATOM     24  C   UNL     1       2.219  -2.978   1.115  0.00  0.00    +0.001 A 
ATOM     25  C   UNL     1       0.528  -4.696   0.965  0.00  0.00    +0.001 A 
ATOM     28  C   UNL     1       1.785  -4.273   1.397  0.00  0.00    +0.000 A 
ENDBRANCH  13  18
BRANCH  15  19
ATOM     19  C   UNL     1       1.012   2.241   0.403  0.00  0.00    +0.037 A 
ATOM     22  C   UNL     1       1.268   1.592  -0.802  0.00  0.00    +0.016 A 
ATOM     23  C   UNL     1       2.050   2.513   1.290  0.00  0.00    +0.016 A 
ATOM     26  C   UNL     1       2.571   1.211  -1.122  0.00  0.00    +0.046 A 
ATOM     27  C   UNL     1       3.353   2.132   0.970  0.00  0.00    +0.046 A 
ATOM     29  C   UNL     1       3.614   1.481  -0.236  0.00  0.00    +0.120 A 
BRANCH  29   3
ATOM      3  O   UNL     1       4.886   1.112  -0.548  0.00  0.00    -0.495 OA
ATOM     30  C   UNL     1       5.082   0.452  -1.798  0.00  0.00    +0.277 C 
ENDBRANCH  29   3
ENDBRANCH  15  19
TORSDOF 3
