REMARK  Name = 56775476
REMARK  8 active torsions:
REMARK  status: ('A' for Active; 'I' for Inactive)
REMARK    1  A    between atoms: O_7  and  C_24
REMARK    2  A    between atoms: O_7  and  C_30
REMARK    3  A    between atoms: N_8  and  C_10
REMARK    4  A    between atoms: N_8  and  C_14
REMARK    5  A    between atoms: C_10  and  C_13
REMARK    6  A    between atoms: C_13  and  C_15
REMARK    7  A    between atoms: C_14  and  C_16
REMARK    8  A    between atoms: C_18  and  C_21
REMARK                            x       y       z     vdW  Elec       q    Type
REMARK                         _______ _______ _______ _____ _____    ______ ____
ROOT
ATOM      5  O   UNL     1      -0.302  -4.691   1.487  0.00  0.00    -0.376 OA
ATOM     10  C   UNL     1       0.233  -3.133   0.130  0.00  0.00    +0.072 C 
ATOM     11  C   UNL     1       0.652  -3.605   1.517  0.00  0.00    +0.184 C 
ATOM     12  C   UNL     1      -0.679  -4.354   0.133  0.00  0.00    +0.184 C 
ENDROOT
BRANCH  10   8
ATOM      8  N   UNL     1      -0.585  -1.936   0.268  0.00  0.00    -0.302 NA
ATOM     31  H   UNL     1      -0.098  -1.119   0.633  0.00  0.00    +0.123 HD
BRANCH   8  14
ATOM     14  C   UNL     1      -1.205  -1.610  -1.014  0.00  0.00    +0.117 C 
BRANCH  14  16
ATOM     16  C   UNL     1      -2.469  -0.812  -0.838  0.00  0.00    -0.033 A 
ATOM     19  C   UNL     1      -3.642  -1.444  -0.426  0.00  0.00    +0.008 A 
ATOM     20  C   UNL     1      -2.467   0.561  -1.087  0.00  0.00    +0.008 A 
ATOM     22  C   UNL     1      -4.813  -0.704  -0.263  0.00  0.00    +0.046 A 
ATOM     23  C   UNL     1      -3.638   1.301  -0.924  0.00  0.00    +0.046 A 
ATOM     24  C   UNL     1      -4.811   0.669  -0.512  0.00  0.00    +0.130 A 
BRANCH  24   7
ATOM      7  O   UNL     1      -5.953   1.391  -0.352  0.00  0.00    -0.406 OA
BRANCH   7  30
ATOM      2  F   UNL     1      -5.098   2.204   1.607  0.00  0.00    -0.133 F 
ATOM      3  F   UNL     1      -7.193   2.581   1.112  0.00  0.00    -0.133 F 
ATOM      4  F   UNL     1      -5.628   3.628   0.002  0.00  0.00    -0.133 F 
ATOM     30  C   UNL     1      -5.950   2.457   0.592  0.00  0.00    +0.575 C 
ENDBRANCH   7  30
ENDBRANCH  24   7
ENDBRANCH  14  16
ENDBRANCH   8  14
ENDBRANCH  10   8
BRANCH  10  13
ATOM     13  C   UNL     1       1.299  -3.005  -0.967  0.00  0.00    +0.085 C 
BRANCH  13  15
ATOM      6  O   UNL     1       4.222  -1.393   0.303  0.00  0.00    -0.354 OA
ATOM      9  N   UNL     1       3.436  -2.518   0.086  0.00  0.00    -0.083 NA
ATOM     15  C   UNL     1       2.362  -2.068  -0.568  0.00  0.00    +0.086 A 
ATOM     17  C   UNL     1       2.414  -0.682  -0.790  0.00  0.00    +0.076 A 
ATOM     18  C   UNL     1       3.603  -0.305  -0.223  0.00  0.00    +0.167 A 
BRANCH  18  21
ATOM      1  F   UNL     1       6.314   4.529   0.340  0.00  0.00    -0.205 F 
ATOM     21  C   UNL     1       4.304   0.946  -0.077  0.00  0.00    +0.020 A 
ATOM     25  C   UNL     1       3.750   2.120  -0.587  0.00  0.00    +0.014 A 
ATOM     26  C   UNL     1       5.537   0.983   0.575  0.00  0.00    +0.014 A 
ATOM     27  C   UNL     1       4.429   3.331  -0.446  0.00  0.00    +0.039 A 
ATOM     28  C   UNL     1       6.216   2.193   0.716  0.00  0.00    +0.039 A 
ATOM     29  C   UNL     1       5.662   3.367   0.205  0.00  0.00    +0.123 A 
ENDBRANCH  18  21
ENDBRANCH  13  15
ENDBRANCH  10  13
TORSDOF 8
