REMARK  Name = 45783804
REMARK  7 active torsions:
REMARK  status: ('A' for Active; 'I' for Inactive)
REMARK    1  A    between atoms: N_3  and  C_12
REMARK    2  A    between atoms: N_7  and  C_25
REMARK    3  A    between atoms: N_7  and  C_26
REMARK    4  A    between atoms: N_7  and  C_27
REMARK    5  A    between atoms: C_8  and  C_13
REMARK    6  A    between atoms: C_12  and  C_14
REMARK    7  A    between atoms: C_17  and  C_18
REMARK                            x       y       z     vdW  Elec       q    Type
REMARK                         _______ _______ _______ _____ _____    ______ ____
ROOT
ATOM      2  O   UNL     1       0.259  -3.111   1.133  0.00  0.00    -0.336 OA
ATOM      4  N   UNL     1       0.292  -1.274  -0.148  0.00  0.00    -0.190 NA
ATOM      5  N   UNL     1       1.563  -2.607   1.209  0.00  0.00    -0.056 NA
ATOM     13  C   UNL     1      -0.424  -2.268   0.314  0.00  0.00    +0.245 A 
ATOM     17  C   UNL     1       1.503  -1.524   0.428  0.00  0.00    +0.204 A 
ENDROOT
BRANCH  17  18
ATOM      6  N   UNL     1       4.964  -0.177   0.621  0.00  0.00    -0.240 NA
ATOM     18  C   UNL     1       2.635  -0.672   0.201  0.00  0.00    +0.041 A 
ATOM     22  C   UNL     1       2.538   0.446  -0.619  0.00  0.00    +0.016 A 
ATOM     23  C   UNL     1       3.859  -0.938   0.793  0.00  0.00    +0.124 A 
ATOM     24  C   UNL     1       3.652   1.253  -0.820  0.00  0.00    +0.044 A 
ATOM     25  C   UNL     1       4.831   0.902  -0.183  0.00  0.00    +0.121 A 
BRANCH  25   7
ATOM      7  N   UNL     1       5.957   1.733  -0.398  0.00  0.00    -0.321 N 
ATOM     26  C   UNL     1       7.218   1.430   0.242  0.00  0.00    +0.130 C 
ATOM     27  C   UNL     1       5.852   2.895  -1.253  0.00  0.00    +0.130 C 
ENDBRANCH  25   7
ENDBRANCH  17  18
BRANCH  13   8
ATOM      3  N   UNL     1      -2.689  -1.404  -0.247  0.00  0.00    -0.287 NA
ATOM      8  C   UNL     1      -1.881  -2.599   0.067  0.00  0.00    +0.146 C 
ATOM      9  C   UNL     1      -2.081  -3.535  -1.139  0.00  0.00    +0.030 C 
ATOM     10  C   UNL     1      -3.063  -2.809  -2.047  0.00  0.00    +0.017 C 
ATOM     11  C   UNL     1      -3.780  -1.859  -1.110  0.00  0.00    +0.085 C 
BRANCH   3  12
ATOM     12  C   UNL     1      -3.179  -0.714   0.939  0.00  0.00    +0.120 C 
BRANCH  12  14
ATOM      1  F   UNL     1      -4.591   4.626  -0.175  0.00  0.00    -0.205 F 
ATOM     14  C   UNL     1      -3.557   0.713   0.641  0.00  0.00    -0.033 A 
ATOM     15  C   UNL     1      -2.605   1.726   0.764  0.00  0.00    +0.008 A 
ATOM     16  C   UNL     1      -4.857   1.022   0.243  0.00  0.00    +0.008 A 
ATOM     19  C   UNL     1      -2.955   3.047   0.488  0.00  0.00    +0.038 A 
ATOM     20  C   UNL     1      -5.207   2.344  -0.032  0.00  0.00    +0.038 A 
ATOM     21  C   UNL     1      -4.255   3.357   0.090  0.00  0.00    +0.123 A 
ENDBRANCH  12  14
ENDBRANCH   3  12
ENDBRANCH  13   8
TORSDOF 5
