REMARK  Name = 25389825
REMARK  5 active torsions:
REMARK  status: ('A' for Active; 'I' for Inactive)
REMARK    1  A    between atoms: O_2  and  C_20
REMARK    2  A    between atoms: O_2  and  C_33
REMARK    3  A    between atoms: N_5  and  C_8
REMARK    4  A    between atoms: C_9  and  C_16
REMARK    5  A    between atoms: C_12  and  C_20
REMARK                            x       y       z     vdW  Elec       q    Type
REMARK                         _______ _______ _______ _____ _____    ______ ____
ROOT
ATOM      4  N   UNL     1       0.122   0.733  -0.146  0.00  0.00    -0.274 NA
ATOM      6  N   UNL     1      -2.381  -2.047   0.196  0.00  0.00    -0.356 N 
ATOM      7  C   UNL     1      -0.304  -0.571   0.449  0.00  0.00    +0.106 C 
ATOM      8  C   UNL     1       2.072  -1.403   0.395  0.00  0.00    +0.060 C 
ATOM      9  C   UNL     1       1.520   1.079   0.215  0.00  0.00    +0.090 C 
ATOM     10  C   UNL     1       0.629  -1.705  -0.005  0.00  0.00    +0.044 C 
ATOM     11  C   UNL     1       2.494  -0.055  -0.186  0.00  0.00    +0.042 C 
ATOM     12  C   UNL     1      -0.868   1.823   0.078  0.00  0.00    +0.172 C 
ATOM     13  C   UNL     1      -1.732  -0.849   0.084  0.00  0.00    +0.038 A 
ATOM     14  C   UNL     1      -2.247   1.512  -0.558  0.00  0.00    +0.068 C 
ATOM     15  C   UNL     1      -2.638   0.090  -0.359  0.00  0.00    -0.016 A 
ATOM     17  C   UNL     1      -3.882  -0.567  -0.559  0.00  0.00    +0.003 A 
ATOM     21  C   UNL     1      -3.693  -1.907  -0.205  0.00  0.00    +0.047 A 
ATOM     26  C   UNL     1      -5.155  -0.157  -1.003  0.00  0.00    +0.010 A 
ATOM     27  C   UNL     1      -4.718  -2.857  -0.275  0.00  0.00    +0.026 A 
ATOM     30  C   UNL     1      -6.188  -1.098  -1.080  0.00  0.00    +0.001 A 
ATOM     31  C   UNL     1      -5.971  -2.426  -0.721  0.00  0.00    +0.002 A 
ATOM     34  H   UNL     1      -1.970  -2.911   0.520  0.00  0.00    +0.166 HD
ENDROOT
BRANCH   8   5
ATOM      1  O   UNL     1       4.839  -4.559   0.373  0.00  0.00    -0.377 OA
ATOM      5  N   UNL     1       2.956  -2.470  -0.069  0.00  0.00    -0.295 NA
ATOM     18  C   UNL     1       2.549  -3.766   0.492  0.00  0.00    +0.113 C 
ATOM     19  C   UNL     1       4.352  -2.184   0.289  0.00  0.00    +0.113 C 
ATOM     22  C   UNL     1       3.493  -4.862   0.004  0.00  0.00    +0.175 C 
ATOM     23  C   UNL     1       5.253  -3.316  -0.195  0.00  0.00    +0.175 C 
ENDBRANCH   8   5
BRANCH   9  16
ATOM     16  C   UNL     1       2.027   2.371  -0.419  0.00  0.00    -0.030 A 
ATOM     24  C   UNL     1       2.924   3.183   0.275  0.00  0.00    +0.005 A 
ATOM     25  C   UNL     1       1.595   2.739  -1.693  0.00  0.00    +0.005 A 
ATOM     28  C   UNL     1       3.388   4.364  -0.305  0.00  0.00    +0.000 A 
ATOM     29  C   UNL     1       2.058   3.920  -2.273  0.00  0.00    +0.000 A 
ATOM     32  C   UNL     1       2.955   4.732  -1.579  0.00  0.00    +0.000 A 
ENDBRANCH   9  16
BRANCH  12  20
ATOM      3  O   UNL     1      -0.392   1.522   2.423  0.00  0.00    -0.249 OA
ATOM     20  C   UNL     1      -1.007   2.113   1.546  0.00  0.00    +0.325 C 
BRANCH  20   2
ATOM      2  O   UNL     1      -1.910   3.119   1.728  0.00  0.00    -0.467 OA
ATOM     33  C   UNL     1      -2.140   3.500   3.088  0.00  0.00    +0.280 C 
ENDBRANCH  20   2
ENDBRANCH  12  20
TORSDOF 4
