REMARK  Name = 7143796
REMARK  5 active torsions:
REMARK  status: ('A' for Active; 'I' for Inactive)
REMARK    1  A    between atoms: S_1  and  N_7
REMARK    2  A    between atoms: S_1  and  C_20
REMARK    3  A    between atoms: O_6  and  C_27
REMARK    4  A    between atoms: O_6  and  C_30
REMARK    5  A    between atoms: C_18  and  C_21
REMARK                            x       y       z     vdW  Elec       q    Type
REMARK                         _______ _______ _______ _____ _____    ______ ____
ROOT
ATOM      5  O   UNL     1      -3.769   0.851  -1.664  0.00  0.00    -0.267 OA
ATOM      7  N   UNL     1       1.012   0.020  -0.524  0.00  0.00    -0.176 NA
ATOM      8  N   UNL     1      -1.913   1.194  -0.296  0.00  0.00    -0.311 N 
ATOM      9  C   UNL     1       0.233   2.312  -1.136  0.00  0.00    +0.025 C 
ATOM     10  C   UNL     1       0.084   1.558   1.196  0.00  0.00    +0.052 C 
ATOM     11  C   UNL     1       0.399   2.760   0.310  0.00  0.00    +0.017 C 
ATOM     12  C   UNL     1       1.202   1.164  -1.461  0.00  0.00    +0.114 C 
ATOM     13  C   UNL     1       1.092   0.429   0.910  0.00  0.00    +0.119 C 
ATOM     14  C   UNL     1      -1.232   1.926  -1.373  0.00  0.00    +0.130 C 
ATOM     15  C   UNL     1      -1.334   1.068   0.969  0.00  0.00    +0.026 A 
ATOM     16  C   UNL     1      -2.022   0.498   1.971  0.00  0.00    +0.022 A 
ATOM     17  C   UNL     1      -3.212   0.726  -0.572  0.00  0.00    +0.260 A 
ATOM     18  C   UNL     1      -3.945   0.059   0.560  0.00  0.00    +0.053 A 
ATOM     19  C   UNL     1      -3.345  -0.018   1.758  0.00  0.00    +0.016 A 
ENDROOT
BRANCH  18  21
ATOM      2  S   UNL     1      -5.460  -2.143  -0.129  0.00  0.00    -0.096 S 
ATOM     21  C   UNL     1      -5.291  -0.509   0.370  0.00  0.00    +0.024 A 
ATOM     26  C   UNL     1      -6.521   0.099   0.538  0.00  0.00    +0.016 A 
ATOM     28  C   UNL     1      -7.604  -0.782   0.255  0.00  0.00    +0.008 A 
ATOM     29  C   UNL     1      -7.168  -2.034  -0.119  0.00  0.00    +0.046 A 
ENDBRANCH  18  21
BRANCH   7   1
ATOM      1  S   UNL     1       1.846  -1.417  -0.931  0.00  0.00    +0.061 S 
ATOM      3  O   UNL     1       1.817  -1.592  -2.368  0.00  0.00    -0.153 OA
ATOM      4  O   UNL     1       1.417  -2.478  -0.043  0.00  0.00    -0.153 OA
BRANCH   1  20
ATOM     20  C   UNL     1       3.490  -0.961  -0.477  0.00  0.00    +0.106 A 
ATOM     22  C   UNL     1       3.931  -1.211   0.812  0.00  0.00    +0.032 A 
ATOM     23  C   UNL     1       4.310  -0.360  -1.417  0.00  0.00    +0.032 A 
ATOM     24  C   UNL     1       5.230  -0.850   1.171  0.00  0.00    +0.047 A 
ATOM     25  C   UNL     1       5.609   0.001  -1.058  0.00  0.00    +0.047 A 
ATOM     27  C   UNL     1       6.069  -0.244   0.236  0.00  0.00    +0.120 A 
BRANCH  27   6
ATOM      6  O   UNL     1       7.336   0.108   0.586  0.00  0.00    -0.495 OA
ATOM     30  C   UNL     1       7.741  -0.172   1.925  0.00  0.00    +0.277 C 
ENDBRANCH  27   6
ENDBRANCH   1  20
ENDBRANCH   7   1
TORSDOF 4
