REMARK  Name = 51137192
REMARK  6 active torsions:
REMARK  status: ('A' for Active; 'I' for Inactive)
REMARK    1  A    between atoms: O_5  and  C_22
REMARK    2  A    between atoms: O_5  and  C_28
REMARK    3  A    between atoms: N_6  and  C_13
REMARK    4  A    between atoms: C_9  and  C_14
REMARK    5  A    between atoms: C_13  and  C_15
REMARK    6  A    between atoms: C_18  and  C_21
REMARK                            x       y       z     vdW  Elec       q    Type
REMARK                         _______ _______ _______ _____ _____    ______ ____
ROOT
ATOM      6  N   UNL     1      -0.521  -0.875  -0.496  0.00  0.00    -0.297 NA
ATOM      9  C   UNL     1       1.440  -1.865   0.324  0.00  0.00    +0.092 C 
ATOM     10  C   UNL     1       0.732  -1.109   1.461  0.00  0.00    +0.029 C 
ATOM     11  C   UNL     1       0.790  -1.334  -0.961  0.00  0.00    +0.097 C 
ATOM     12  C   UNL     1      -0.253  -0.179   0.762  0.00  0.00    +0.085 C 
ENDROOT
BRANCH   9  14
ATOM      4  O   UNL     1       3.456  -0.479   0.200  0.00  0.00    -0.420 OA
ATOM      7  N   UNL     1       3.865  -2.668   0.411  0.00  0.00    -0.112 NA
ATOM      8  N   UNL     1       5.080  -2.010   0.353  0.00  0.00    -0.107 NA
ATOM     14  C   UNL     1       2.946  -1.736   0.318  0.00  0.00    +0.222 A 
ATOM     18  C   UNL     1       4.792  -0.736   0.230  0.00  0.00    +0.248 A 
BRANCH  18  21
ATOM     21  C   UNL     1       5.653   0.407   0.125  0.00  0.00    +0.038 A 
ATOM     23  C   UNL     1       7.037   0.241   0.147  0.00  0.00    +0.013 A 
ATOM     24  C   UNL     1       5.105   1.683   0.000  0.00  0.00    +0.013 A 
ATOM     25  C   UNL     1       7.875   1.353   0.044  0.00  0.00    +0.001 A 
ATOM     26  C   UNL     1       5.941   2.795  -0.102  0.00  0.00    +0.001 A 
ATOM     27  C   UNL     1       7.326   2.629  -0.080  0.00  0.00    +0.000 A 
ENDBRANCH  18  21
ENDBRANCH   9  14
BRANCH   6  13
ATOM     13  C   UNL     1      -1.188  -0.023  -1.469  0.00  0.00    +0.119 C 
BRANCH  13  15
ATOM     15  C   UNL     1      -2.666   0.085  -1.201  0.00  0.00    -0.033 A 
ATOM     16  C   UNL     1      -3.514  -0.970  -1.536  0.00  0.00    +0.008 A 
ATOM     17  C   UNL     1      -3.186   1.239  -0.615  0.00  0.00    +0.008 A 
ATOM     19  C   UNL     1      -4.883  -0.871  -1.285  0.00  0.00    +0.046 A 
ATOM     20  C   UNL     1      -4.554   1.338  -0.364  0.00  0.00    +0.046 A 
ATOM     22  C   UNL     1      -5.403   0.283  -0.699  0.00  0.00    +0.130 A 
BRANCH  22   5
ATOM      5  O   UNL     1      -6.738   0.379  -0.453  0.00  0.00    -0.406 OA
BRANCH   5  28
ATOM      1  F   UNL     1      -8.368  -0.025   1.055  0.00  0.00    -0.133 F 
ATOM      2  F   UNL     1      -6.299  -0.001   1.760  0.00  0.00    -0.133 F 
ATOM      3  F   UNL     1      -7.303   1.880   1.178  0.00  0.00    -0.133 F 
ATOM     28  C   UNL     1      -7.163   0.568   0.892  0.00  0.00    +0.575 C 
ENDBRANCH   5  28
ENDBRANCH  22   5
ENDBRANCH  13  15
ENDBRANCH   6  13
TORSDOF 6
