REMARK  Name = 56775278
REMARK  5 active torsions:
REMARK  status: ('A' for Active; 'I' for Inactive)
REMARK    1  A    between atoms: O_5  and  C_17
REMARK    2  A    between atoms: O_5  and  C_23
REMARK    3  A    between atoms: N_7  and  C_14
REMARK    4  A    between atoms: C_14  and  C_16
REMARK    5  A    between atoms: C_15  and  C_17
REMARK                            x       y       z     vdW  Elec       q    Type
REMARK                         _______ _______ _______ _____ _____    ______ ____
ROOT
ATOM      2  O   UNL     1       0.801   2.980  -0.596  0.00  0.00    -0.364 OA
ATOM      3  O   UNL     1       2.961   1.227  -2.815  0.00  0.00    -0.273 OA
ATOM      4  O   UNL     1      -3.030   1.859   1.985  0.00  0.00    -0.272 OA
ATOM      6  N   UNL     1      -1.064   1.222   0.952  0.00  0.00    -0.294 N 
ATOM      7  N   UNL     1       2.046   0.503  -0.802  0.00  0.00    -0.288 N 
ATOM      8  C   UNL     1       1.176   0.791   0.331  0.00  0.00    +0.124 C 
ATOM      9  C   UNL     1       1.017   2.281   0.627  0.00  0.00    +0.158 C 
ATOM     10  C   UNL     1      -0.269   0.336   0.107  0.00  0.00    +0.133 C 
ATOM     11  C   UNL     1      -0.265   2.337   1.448  0.00  0.00    +0.141 C 
ATOM     12  C   UNL     1       2.343   1.455  -1.774  0.00  0.00    +0.242 C 
ATOM     13  C   UNL     1       1.928   2.877  -1.437  0.00  0.00    +0.256 C 
ATOM     15  C   UNL     1      -2.404   1.080   1.265  0.00  0.00    +0.253 C 
ENDROOT
BRANCH   7  14
ATOM     14  C   UNL     1       2.470  -0.879  -0.974  0.00  0.00    +0.143 C 
BRANCH  14  16
ATOM      1  F   UNL     1       7.499  -1.846   1.367  0.00  0.00    -0.205 F 
ATOM     16  C   UNL     1       3.811  -1.138  -0.349  0.00  0.00    -0.030 A 
ATOM     18  C   UNL     1       3.893  -1.552   0.980  0.00  0.00    +0.008 A 
ATOM     19  C   UNL     1       4.974  -0.962  -1.099  0.00  0.00    +0.008 A 
ATOM     20  C   UNL     1       5.139  -1.792   1.560  0.00  0.00    +0.038 A 
ATOM     21  C   UNL     1       6.220  -1.202  -0.519  0.00  0.00    +0.038 A 
ATOM     22  C   UNL     1       6.303  -1.617   0.810  0.00  0.00    +0.123 A 
ENDBRANCH  14  16
ENDBRANCH   7  14
BRANCH  15  17
ATOM     17  C   UNL     1      -3.088  -0.123   0.665  0.00  0.00    +0.324 C 
BRANCH  17   5
ATOM      5  O   UNL     1      -4.417  -0.103   1.128  0.00  0.00    -0.483 OA
BRANCH   5  23
ATOM     23  C   UNL     1      -5.372  -0.692   0.331  0.00  0.00    +0.121 A 
ATOM     24  C   UNL     1      -5.030  -1.765  -0.492  0.00  0.00    +0.045 A 
ATOM     25  C   UNL     1      -6.683  -0.216   0.346  0.00  0.00    +0.045 A 
ATOM     26  C   UNL     1      -5.998  -2.362  -1.300  0.00  0.00    +0.004 A 
ATOM     27  C   UNL     1      -7.652  -0.812  -0.462  0.00  0.00    +0.004 A 
ATOM     28  C   UNL     1      -7.309  -1.885  -1.285  0.00  0.00    +0.000 A 
ENDBRANCH   5  23
ENDBRANCH  17   5
ENDBRANCH  15  17
TORSDOF 5
