REMARK  Name = 56775407
REMARK  8 active torsions:
REMARK  status: ('A' for Active; 'I' for Inactive)
REMARK    1  A    between atoms: O_4  and  C_19
REMARK    2  A    between atoms: N_5  and  C_7
REMARK    3  A    between atoms: N_5  and  C_12
REMARK    4  A    between atoms: C_7  and  C_10
REMARK    5  A    between atoms: C_10  and  C_11
REMARK    6  A    between atoms: C_12  and  C_14
REMARK    7  A    between atoms: C_15  and  C_16
REMARK    8  A    between atoms: C_16  and  C_19
REMARK                            x       y       z     vdW  Elec       q    Type
REMARK                         _______ _______ _______ _____ _____    ______ ____
ROOT
ATOM      2  O   UNL     1       0.107  -3.626   0.782  0.00  0.00    -0.376 OA
ATOM      7  C   UNL     1       0.132  -1.775  -0.280  0.00  0.00    +0.072 C 
ATOM      8  C   UNL     1       0.910  -2.426   0.858  0.00  0.00    +0.184 C 
ATOM      9  C   UNL     1      -0.608  -3.106  -0.362  0.00  0.00    +0.184 C 
ENDROOT
BRANCH   7   5
ATOM      5  N   UNL     1      -0.771  -0.768   0.283  0.00  0.00    -0.302 NA
ATOM     23  H   UNL     1      -0.307   0.037   0.704  0.00  0.00    +0.123 HD
BRANCH   5  12
ATOM     12  C   UNL     1      -1.691  -0.312  -0.761  0.00  0.00    +0.120 C 
BRANCH  12  14
ATOM      1  F   UNL     1      -2.233   2.457  -0.618  0.00  0.00    -0.205 F 
ATOM     14  C   UNL     1      -2.960   0.237  -0.199  0.00  0.00    +0.002 A 
ATOM     17  C   UNL     1      -3.168   1.615  -0.156  0.00  0.00    +0.128 A 
ATOM     18  C   UNL     1      -3.939  -0.632   0.284  0.00  0.00    +0.008 A 
ATOM     20  C   UNL     1      -4.355   2.125   0.369  0.00  0.00    +0.038 A 
ATOM     21  C   UNL     1      -5.126  -0.122   0.810  0.00  0.00    +0.000 A 
ATOM     22  C   UNL     1      -5.334   1.257   0.852  0.00  0.00    +0.003 A 
ENDBRANCH  12  14
ENDBRANCH   5  12
ENDBRANCH   7   5
BRANCH   7  10
ATOM     10  C   UNL     1       0.877  -1.284  -1.483  0.00  0.00    +0.085 C 
BRANCH  10  11
ATOM      3  O   UNL     1       2.744   1.699  -0.664  0.00  0.00    -0.359 OA
ATOM      6  N   UNL     1       1.585   1.043  -1.059  0.00  0.00    -0.083 NA
ATOM     11  C   UNL     1       1.913  -0.252  -1.089  0.00  0.00    +0.086 A 
ATOM     13  C   UNL     1       3.254  -0.471  -0.728  0.00  0.00    +0.071 A 
ATOM     15  C   UNL     1       3.731   0.787  -0.470  0.00  0.00    +0.140 A 
BRANCH  15  16
ATOM     16  C   UNL     1       5.035   1.312  -0.047  0.00  0.00    +0.105 C 
BRANCH  16  19
ATOM     19  C   UNL     1       5.097   1.692   1.445  0.00  0.00    +0.163 C 
BRANCH  19   4
ATOM      4  O   UNL     1       4.800   0.547   2.234  0.00  0.00    -0.395 OA
ATOM     24  H   UNL     1       4.851   0.821   3.165  0.00  0.00    +0.209 HD
ENDBRANCH  19   4
ENDBRANCH  16  19
ENDBRANCH  15  16
ENDBRANCH  10  11
ENDBRANCH   7  10
TORSDOF 8
