REMARK  Name = 75536858
REMARK  7 active torsions:
REMARK  status: ('A' for Active; 'I' for Inactive)
REMARK    1  A    between atoms: S_1  and  N_10
REMARK    2  A    between atoms: S_1  and  C_18
REMARK    3  A    between atoms: O_6  and  C_14
REMARK    4  A    between atoms: O_6  and  C_21
REMARK    5  A    between atoms: C_19  and  C_22
REMARK    6  A    between atoms: C_20  and  C_23
REMARK    7  A    between atoms: C_26  and  C_28
REMARK                            x       y       z     vdW  Elec       q    Type
REMARK                         _______ _______ _______ _____ _____    ______ ____
ROOT
ATOM      5  O   UNL     1       1.815   3.743  -0.913  0.00  0.00    -0.375 OA
ATOM     10  N   UNL     1       1.770   0.959   0.367  0.00  0.00    -0.171 NA
ATOM     13  C   UNL     1       0.667   1.814   0.899  0.00  0.00    +0.156 C 
ATOM     14  C   UNL     1      -0.163   2.357  -0.261  0.00  0.00    +0.216 C 
ATOM     15  C   UNL     1       2.919   1.727  -0.199  0.00  0.00    +0.137 C 
ATOM     16  C   UNL     1       0.398   3.643  -0.873  0.00  0.00    +0.205 C 
ATOM     17  C   UNL     1       2.487   2.581  -1.384  0.00  0.00    +0.177 C 
ENDROOT
BRANCH  10   1
ATOM      1  S   UNL     1       2.212  -0.370   1.361  0.00  0.00    +0.066 S 
ATOM      7  O   UNL     1       1.021  -1.116   1.700  0.00  0.00    -0.153 OA
ATOM      8  O   UNL     1       3.122   0.095   2.383  0.00  0.00    -0.153 OA
BRANCH   1  18
ATOM      9  O   UNL     1       4.785  -2.428  -0.818  0.00  0.00    -0.358 OA
ATOM     11  N   UNL     1       3.677  -2.539  -1.649  0.00  0.00    -0.081 NA
ATOM     18  C   UNL     1       3.137  -1.323   0.199  0.00  0.00    +0.170 A 
ATOM     19  C   UNL     1       4.451  -1.702   0.279  0.00  0.00    +0.161 A 
ATOM     20  C   UNL     1       2.705  -1.872  -1.021  0.00  0.00    +0.107 A 
ATOM     22  C   UNL     1       5.517  -1.488   1.267  0.00  0.00    +0.091 C 
ATOM     23  C   UNL     1       1.369  -1.787  -1.634  0.00  0.00    +0.071 C 
ENDBRANCH   1  18
ENDBRANCH  10   1
BRANCH  14   6
ATOM      6  O   UNL     1      -1.489   2.612   0.201  0.00  0.00    -0.469 OA
BRANCH   6  21
ATOM     12  N   UNL     1      -1.898   0.396  -0.346  0.00  0.00    -0.221 NA
ATOM     21  C   UNL     1      -2.369   1.566   0.142  0.00  0.00    +0.215 A 
ATOM     24  C   UNL     1      -3.670   1.757   0.578  0.00  0.00    +0.068 A 
ATOM     25  C   UNL     1      -4.545   0.678   0.508  0.00  0.00    +0.019 A 
ATOM     26  C   UNL     1      -4.098  -0.541   0.011  0.00  0.00    +0.073 A 
ATOM     27  C   UNL     1      -2.778  -0.629  -0.399  0.00  0.00    +0.127 A 
BRANCH  26  28
ATOM      2  F   UNL     1      -6.270  -1.438   0.373  0.00  0.00    -0.166 F 
ATOM      3  F   UNL     1      -5.174  -2.190  -1.348  0.00  0.00    -0.166 F 
ATOM      4  F   UNL     1      -4.592  -2.792   0.653  0.00  0.00    -0.166 F 
ATOM     28  C   UNL     1      -5.009  -1.713  -0.076  0.00  0.00    +0.419 C 
ENDBRANCH  26  28
ENDBRANCH   6  21
ENDBRANCH  14   6
TORSDOF 5
