REMARK  Name = 56775199
REMARK  3 active torsions:
REMARK  status: ('A' for Active; 'I' for Inactive)
REMARK    1  A    between atoms: N_5  and  C_13
REMARK    2  A    between atoms: N_6  and  C_17
REMARK    3  A    between atoms: C_17  and  C_21
REMARK                            x       y       z     vdW  Elec       q    Type
REMARK                         _______ _______ _______ _____ _____    ______ ____
ROOT
ATOM      1  O   UNL     1      -0.461  -2.605  -0.110  0.00  0.00    -0.364 OA
ATOM      2  O   UNL     1       2.711  -2.134   1.305  0.00  0.00    -0.273 OA
ATOM      3  O   UNL     1      -3.176   1.351   1.353  0.00  0.00    -0.253 OA
ATOM      4  N   UNL     1      -2.069  -0.091  -0.066  0.00  0.00    -0.281 N 
ATOM      5  N   UNL     1       1.559  -0.634  -0.101  0.00  0.00    -0.262 N 
ATOM      6  N   UNL     1      -4.401   0.096  -0.144  0.00  0.00    -0.300 N 
ATOM      7  C   UNL     1       0.216  -0.344  -0.620  0.00  0.00    +0.129 C 
ATOM      8  C   UNL     1      -0.553  -1.580  -1.094  0.00  0.00    +0.158 C 
ATOM      9  C   UNL     1      -0.738   0.230   0.436  0.00  0.00    +0.135 C 
ATOM     10  C   UNL     1      -1.999  -1.095  -1.130  0.00  0.00    +0.143 C 
ATOM     11  C   UNL     1       0.877  -2.995   0.072  0.00  0.00    +0.256 C 
ATOM     12  C   UNL     1       1.803  -1.875   0.514  0.00  0.00    +0.246 C 
ATOM     14  C   UNL     1      -3.214   0.513   0.448  0.00  0.00    +0.302 C 
ATOM     22  H   UNL     1      -4.380  -0.563  -0.914  0.00  0.00    +0.150 HD
ENDROOT
BRANCH   5  13
ATOM     13  C   UNL     1       2.556   0.418  -0.113  0.00  0.00    +0.037 A 
ATOM     15  C   UNL     1       3.912   0.093  -0.107  0.00  0.00    +0.023 A 
ATOM     16  C   UNL     1       2.159   1.755  -0.131  0.00  0.00    +0.023 A 
ATOM     18  C   UNL     1       4.872   1.105  -0.119  0.00  0.00    +0.002 A 
ATOM     19  C   UNL     1       3.119   2.767  -0.142  0.00  0.00    +0.002 A 
ATOM     20  C   UNL     1       4.475   2.442  -0.136  0.00  0.00    +0.000 A 
ENDBRANCH   5  13
BRANCH   6  17
ATOM     17  C   UNL     1      -5.689   0.614   0.254  0.00  0.00    +0.102 C 
ATOM     21  C   UNL     1      -5.960   1.968  -0.369  0.00  0.00    +0.024 C 
ENDBRANCH   6  17
TORSDOF 2
