REMARK  Name = 38030976
REMARK  12 active torsions:
REMARK  status: ('A' for Active; 'I' for Inactive)
REMARK    1  A    between atoms: N_4  and  C_15
REMARK    2  A    between atoms: N_4  and  C_21
REMARK    3  A    between atoms: N_5  and  C_22
REMARK    4  A    between atoms: C_8  and  C_12
REMARK    5  A    between atoms: C_9  and  C_15
REMARK    6  A    between atoms: C_11  and  C_16
REMARK    7  A    between atoms: C_12  and  C_17
REMARK    8  A    between atoms: C_12  and  C_18
REMARK    9  A    between atoms: C_13  and  C_19
REMARK   10  A    between atoms: C_16  and  C_20
REMARK   11  A    between atoms: C_21  and  C_22
REMARK   12  A    between atoms: C_27  and  C_28
REMARK                            x       y       z     vdW  Elec       q    Type
REMARK                         _______ _______ _______ _____ _____    ______ ____
ROOT
ATOM      8  C   UNL     1      -0.034   1.854  -1.297  0.00  0.00    +0.000 C 
ATOM      9  C   UNL     1       1.205   2.783  -1.236  0.00  0.00    +0.029 C 
ATOM     10  C   UNL     1      -1.238   2.520  -0.616  0.00  0.00    +0.012 C 
ATOM     11  C   UNL     1      -0.958   2.863   0.859  0.00  0.00    +0.024 C 
ATOM     13  C   UNL     1       0.382   3.548   1.033  0.00  0.00    -0.073 C 
ATOM     14  C   UNL     1       1.331   3.513   0.081  0.00  0.00    -0.023 C 
ATOM     19  C   UNL     1       0.591   4.314   2.310  0.00  0.00    +0.039 C 
ENDROOT
BRANCH   8  12
ATOM     12  C   UNL     1      -0.394   1.481  -2.739  0.00  0.00    -0.013 C 
ATOM     17  C   UNL     1      -1.201   2.598  -3.392  0.00  0.00    +0.007 C 
ATOM     18  C   UNL     1      -1.165   0.165  -2.771  0.00  0.00    +0.007 C 
ENDBRANCH   8  12
BRANCH   9  15
ATOM     15  C   UNL     1       2.495   2.004  -1.514  0.00  0.00    +0.088 C 
BRANCH  15   4
ATOM      4  N   UNL     1       2.734   1.018  -0.474  0.00  0.00    -0.314 NA
ATOM     34  H   UNL     1       2.804   1.467   0.438  0.00  0.00    +0.122 HD
BRANCH   4  21
ATOM     21  C   UNL     1       3.954   0.265  -0.735  0.00  0.00    +0.096 C 
BRANCH  21  22
ATOM     22  C   UNL     1       4.164  -0.789   0.348  0.00  0.00    +0.099 C 
BRANCH  22   5
ATOM      3  O   UNL     1       7.793  -2.828   0.884  0.00  0.00    -0.377 OA
ATOM      5  N   UNL     1       5.378  -1.556   0.077  0.00  0.00    -0.297 NA
ATOM     23  C   UNL     1       5.367  -2.828   0.814  0.00  0.00    +0.112 C 
ATOM     24  C   UNL     1       6.575  -0.780   0.428  0.00  0.00    +0.112 C 
ATOM     25  C   UNL     1       6.649  -3.604   0.526  0.00  0.00    +0.175 C 
ATOM     26  C   UNL     1       7.827  -1.605   0.148  0.00  0.00    +0.175 C 
ENDBRANCH  22   5
ENDBRANCH  21  22
ENDBRANCH   4  21
ENDBRANCH  15   4
ENDBRANCH   9  15
BRANCH  11  16
ATOM     16  C   UNL     1      -1.055   1.615   1.744  0.00  0.00    +0.105 C 
BRANCH  16  20
ATOM      2  O   UNL     1      -2.440  -0.186   0.853  0.00  0.00    -0.420 OA
ATOM      6  N   UNL     1      -3.555   1.292   2.108  0.00  0.00    -0.112 NA
ATOM      7  N   UNL     1      -4.455   0.337   1.674  0.00  0.00    -0.107 NA
ATOM     20  C   UNL     1      -2.393   0.947   1.606  0.00  0.00    +0.218 A 
ATOM     27  C   UNL     1      -3.760  -0.506   0.945  0.00  0.00    +0.251 A 
BRANCH  27  28
ATOM      1  F   UNL     1      -6.418  -1.397   0.964  0.00  0.00    -0.205 F 
ATOM     28  C   UNL     1      -4.170  -1.688   0.244  0.00  0.00    +0.074 A 
ATOM     29  C   UNL     1      -5.502  -2.098   0.279  0.00  0.00    +0.136 A 
ATOM     30  C   UNL     1      -3.231  -2.428  -0.474  0.00  0.00    +0.016 A 
ATOM     31  C   UNL     1      -5.896  -3.249  -0.403  0.00  0.00    +0.039 A 
ATOM     32  C   UNL     1      -3.624  -3.580  -1.156  0.00  0.00    +0.001 A 
ATOM     33  C   UNL     1      -4.956  -3.990  -1.121  0.00  0.00    +0.003 A 
ENDBRANCH  27  28
ENDBRANCH  16  20
ENDBRANCH  11  16
TORSDOF 9
