REMARK  Name = 45783300
REMARK  5 active torsions:
REMARK  status: ('A' for Active; 'I' for Inactive)
REMARK    1  A    between atoms: N_6  and  C_15
REMARK    2  A    between atoms: C_11  and  C_16
REMARK    3  A    between atoms: C_15  and  C_17
REMARK    4  A    between atoms: C_18  and  C_23
REMARK    5  A    between atoms: C_30  and  C_33
REMARK                            x       y       z     vdW  Elec       q    Type
REMARK                         _______ _______ _______ _____ _____    ______ ____
ROOT
ATOM      4  O   UNL     1      -2.782  -1.057   2.217  0.00  0.00    -0.336 OA
ATOM      7  N   UNL     1      -1.357  -1.223   0.497  0.00  0.00    -0.190 NA
ATOM      9  N   UNL     1      -1.498  -0.933   2.762  0.00  0.00    -0.056 NA
ATOM     16  C   UNL     1      -2.609  -1.225   0.880  0.00  0.00    +0.245 A 
ATOM     18  C   UNL     1      -0.713  -1.041   1.686  0.00  0.00    +0.202 A 
ENDROOT
BRANCH  18  23
ATOM      5  O   UNL     1       5.328  -1.201  -2.661  0.00  0.00    -0.377 OA
ATOM      8  N   UNL     1       3.625  -1.141  -0.426  0.00  0.00    -0.311 N 
ATOM     10  N   UNL     1       3.506  -0.839   1.918  0.00  0.00    -0.240 NA
ATOM     21  C   UNL     1       4.969  -1.726  -0.321  0.00  0.00    +0.134 C 
ATOM     22  C   UNL     1       3.446  -0.180  -1.520  0.00  0.00    +0.134 C 
ATOM     23  C   UNL     1       0.718  -0.974   1.765  0.00  0.00    +0.027 A 
ATOM     24  C   UNL     1       2.865  -1.019   0.742  0.00  0.00    +0.122 A 
ATOM     27  C   UNL     1       5.416  -2.239  -1.685  0.00  0.00    +0.178 C 
ATOM     28  C   UNL     1       3.975  -0.774  -2.820  0.00  0.00    +0.178 C 
ATOM     29  C   UNL     1       1.487  -1.092   0.612  0.00  0.00    +0.055 A 
ATOM     31  C   UNL     1       1.341  -0.788   2.994  0.00  0.00    +0.031 A 
ATOM     32  C   UNL     1       2.726  -0.728   3.016  0.00  0.00    +0.113 A 
ENDBRANCH  18  23
BRANCH  16  11
ATOM      6  N   UNL     1      -3.690  -0.925  -1.342  0.00  0.00    -0.287 NA
ATOM     11  C   UNL     1      -3.866  -1.383   0.051  0.00  0.00    +0.146 C 
ATOM     12  C   UNL     1      -4.315  -2.851  -0.073  0.00  0.00    +0.030 C 
ATOM     13  C   UNL     1      -4.421  -3.109  -1.570  0.00  0.00    +0.017 C 
ATOM     14  C   UNL     1      -4.604  -1.724  -2.158  0.00  0.00    +0.085 C 
BRANCH   6  15
ATOM     15  C   UNL     1      -3.913   0.505  -1.509  0.00  0.00    +0.120 C 
BRANCH  15  17
ATOM     17  C   UNL     1      -2.717   1.313  -1.081  0.00  0.00    -0.033 A 
ATOM     19  C   UNL     1      -2.846   2.269  -0.073  0.00  0.00    +0.005 A 
ATOM     20  C   UNL     1      -1.480   1.105  -1.690  0.00  0.00    +0.005 A 
ATOM     25  C   UNL     1      -1.738   3.018   0.324  0.00  0.00    +0.012 A 
ATOM     26  C   UNL     1      -0.372   1.853  -1.292  0.00  0.00    +0.012 A 
ATOM     30  C   UNL     1      -0.501   2.809  -0.285  0.00  0.00    +0.055 A 
BRANCH  30  33
ATOM      1  F   UNL     1       1.712   2.847   0.624  0.00  0.00    -0.166 F 
ATOM      2  F   UNL     1       0.389   4.494   1.137  0.00  0.00    -0.166 F 
ATOM      3  F   UNL     1       1.233   4.353  -0.862  0.00  0.00    -0.166 F 
ATOM     33  C   UNL     1       0.684   3.607   0.143  0.00  0.00    +0.417 C 
ENDBRANCH  30  33
ENDBRANCH  15  17
ENDBRANCH   6  15
ENDBRANCH  16  11
TORSDOF 5
