REMARK  Name = 26761888
REMARK  5 active torsions:
REMARK  status: ('A' for Active; 'I' for Inactive)
REMARK    1  A    between atoms: O_2  and  C_22
REMARK    2  A    between atoms: O_2  and  C_23
REMARK    3  A    between atoms: N_3  and  C_14
REMARK    4  A    between atoms: C_8  and  C_13
REMARK    5  A    between atoms: C_16  and  C_17
REMARK                            x       y       z     vdW  Elec       q    Type
REMARK                         _______ _______ _______ _____ _____    ______ ____
ROOT
ATOM      1  O   UNL     1       0.308   2.113  -0.934  0.00  0.00    -0.336 OA
ATOM      6  N   UNL     1      -0.282   0.176   0.021  0.00  0.00    -0.190 NA
ATOM      7  N   UNL     1      -1.090   2.059  -0.996  0.00  0.00    -0.056 NA
ATOM     13  C   UNL     1       0.703   0.967  -0.322  0.00  0.00    +0.245 A 
ATOM     16  C   UNL     1      -1.362   0.888  -0.412  0.00  0.00    +0.202 A 
ENDROOT
BRANCH  13   8
ATOM      3  N   UNL     1       2.626   0.666   1.309  0.00  0.00    -0.288 NA
ATOM      4  N   UNL     1       5.881  -1.006   0.486  0.00  0.00    -0.347 N 
ATOM      5  N   UNL     1       4.813  -1.734  -1.338  0.00  0.00    -0.240 NA
ATOM      8  C   UNL     1       2.204   0.781  -0.130  0.00  0.00    +0.152 C 
ATOM      9  C   UNL     1       2.649  -0.459  -0.985  0.00  0.00    +0.085 C 
ATOM     10  C   UNL     1       4.106   0.561   1.458  0.00  0.00    +0.140 C 
ATOM     11  C   UNL     1       4.026  -0.863  -0.639  0.00  0.00    +0.065 A 
ATOM     12  C   UNL     1       4.657  -0.408   0.489  0.00  0.00    +0.053 A 
ATOM     14  C   UNL     1       2.164   1.802   2.118  0.00  0.00    +0.106 C 
ATOM     15  C   UNL     1       5.927  -1.796  -0.635  0.00  0.00    +0.197 A 
ATOM     24  H   UNL     1       6.617  -0.890   1.171  0.00  0.00    +0.167 HD
ENDBRANCH  13   8
BRANCH  16  17
ATOM     17  C   UNL     1      -2.701   0.400  -0.249  0.00  0.00    +0.023 A 
ATOM     18  C   UNL     1      -2.925  -0.831   0.366  0.00  0.00    +0.015 A 
ATOM     19  C   UNL     1      -3.780   1.156  -0.709  0.00  0.00    +0.015 A 
ATOM     20  C   UNL     1      -4.227  -1.307   0.522  0.00  0.00    +0.046 A 
ATOM     21  C   UNL     1      -5.082   0.681  -0.553  0.00  0.00    +0.046 A 
ATOM     22  C   UNL     1      -5.306  -0.551   0.062  0.00  0.00    +0.120 A 
BRANCH  22   2
ATOM      2  O   UNL     1      -6.576  -1.014   0.215  0.00  0.00    -0.495 OA
ATOM     23  C   UNL     1      -6.733  -2.281   0.853  0.00  0.00    +0.277 C 
ENDBRANCH  22   2
ENDBRANCH  16  17
TORSDOF 3
