REMARK  Name = 11913341
REMARK  9 active torsions:
REMARK  status: ('A' for Active; 'I' for Inactive)
REMARK    1  A    between atoms: O_4  and  C_25
REMARK    2  A    between atoms: N_6  and  C_12
REMARK    3  A    between atoms: N_7  and  C_13
REMARK    4  A    between atoms: C_16  and  C_18
REMARK    5  A    between atoms: C_18  and  C_19
REMARK    6  A    between atoms: C_19  and  C_21
REMARK    7  A    between atoms: C_20  and  C_24
REMARK    8  A    between atoms: C_21  and  C_25
REMARK    9  A    between atoms: C_30  and  C_31
REMARK                            x       y       z     vdW  Elec       q    Type
REMARK                         _______ _______ _______ _____ _____    ______ ____
ROOT
ATOM      7  N   UNL     1       0.075  -3.814  -0.062  0.00  0.00    -0.306 N 
ATOM      8  N   UNL     1      -1.708  -2.388  -0.489  0.00  0.00    -0.214 NA
ATOM      9  N   UNL     1      -1.212  -4.242  -1.947  0.00  0.00    -0.223 NA
ATOM     17  C   UNL     1      -0.994  -3.466  -0.868  0.00  0.00    +0.216 A 
ATOM     20  C   UNL     1      -2.743  -2.078  -1.297  0.00  0.00    +0.076 A 
ATOM     22  C   UNL     1      -2.262  -3.875  -2.710  0.00  0.00    +0.116 A 
ATOM     23  C   UNL     1      -3.071  -2.792  -2.432  0.00  0.00    +0.048 A 
ATOM     38  H   UNL     1       0.647  -4.592  -0.370  0.00  0.00    +0.149 HD
ENDROOT
BRANCH   7  13
ATOM      1  O   UNL     1       1.294  -0.922   1.804  0.00  0.00    -0.370 OA
ATOM      2  O   UNL     1       2.699  -3.699   1.575  0.00  0.00    -0.370 OA
ATOM     10  C   UNL     1       2.735  -2.508   0.771  0.00  0.00    +0.171 C 
ATOM     11  C   UNL     1       1.337  -1.921   0.771  0.00  0.00    +0.171 C 
ATOM     12  C   UNL     1       3.579  -1.448   1.440  0.00  0.00    +0.130 C 
ATOM     13  C   UNL     1       0.447  -3.087   1.132  0.00  0.00    +0.130 C 
ATOM     14  C   UNL     1       2.594  -0.806   2.401  0.00  0.00    +0.185 C 
ATOM     15  C   UNL     1       1.351  -3.938   2.005  0.00  0.00    +0.185 C 
BRANCH  12   6
ATOM      3  O   UNL     1       5.936   0.172   1.695  0.00  0.00    -0.276 OA
ATOM      6  N   UNL     1       4.073  -0.490   0.480  0.00  0.00    -0.308 N 
ATOM     16  C   UNL     1       5.229   0.249   0.695  0.00  0.00    +0.213 C 
ATOM     37  H   UNL     1       3.522  -0.313  -0.355  0.00  0.00    +0.149 HD
BRANCH  16  18
ATOM     18  C   UNL     1       5.508   1.202  -0.455  0.00  0.00    +0.096 C 
BRANCH  18  19
ATOM     19  C   UNL     1       6.771   2.040  -0.266  0.00  0.00    +0.020 C 
BRANCH  19  21
ATOM     21  C   UNL     1       7.029   2.980  -1.445  0.00  0.00    +0.121 C 
BRANCH  21  25
ATOM      5  O   UNL     1       9.040   3.721  -0.289  0.00  0.00    -0.251 OA
ATOM     25  C   UNL     1       8.285   3.798  -1.248  0.00  0.00    +0.305 C 
BRANCH  25   4
ATOM      4  O   UNL     1       8.489   4.651  -2.286  0.00  0.00    -0.481 OA
ATOM     39  H   UNL     1       9.304   5.184  -2.166  0.00  0.00    +0.295 HD
ENDBRANCH  25   4
ENDBRANCH  21  25
ENDBRANCH  19  21
ENDBRANCH  18  19
ENDBRANCH  16  18
ENDBRANCH  12   6
ENDBRANCH   7  13
BRANCH  20  24
ATOM     24  C   UNL     1      -3.509  -0.923  -0.895  0.00  0.00    +0.001 A 
ATOM     26  C   UNL     1      -4.869  -1.052  -0.611  0.00  0.00    +0.010 A 
ATOM     27  C   UNL     1      -2.890   0.323  -0.789  0.00  0.00    +0.010 A 
ATOM     28  C   UNL     1      -5.609   0.064  -0.222  0.00  0.00    +0.009 A 
ATOM     29  C   UNL     1      -3.630   1.439  -0.400  0.00  0.00    +0.009 A 
ATOM     30  C   UNL     1      -4.990   1.310  -0.117  0.00  0.00    -0.018 A 
BRANCH  30  31
ATOM     31  C   UNL     1      -5.757   2.467   0.287  0.00  0.00    -0.018 A 
ATOM     32  C   UNL     1      -6.391   3.254  -0.674  0.00  0.00    +0.008 A 
ATOM     33  C   UNL     1      -5.864   2.797   1.639  0.00  0.00    +0.008 A 
ATOM     34  C   UNL     1      -7.132   4.370  -0.285  0.00  0.00    +0.001 A 
ATOM     35  C   UNL     1      -6.605   3.913   2.028  0.00  0.00    +0.001 A 
ATOM     36  C   UNL     1      -7.239   4.700   1.066  0.00  0.00    +0.000 A 
ENDBRANCH  30  31
ENDBRANCH  20  24
TORSDOF 9
