REMARK  Name = 7682180
REMARK  6 active torsions:
REMARK  status: ('A' for Active; 'I' for Inactive)
REMARK    1  A    between atoms: N_9  and  C_16
REMARK    2  A    between atoms: N_11  and  C_26
REMARK    3  A    between atoms: C_12  and  C_17
REMARK    4  A    between atoms: C_21  and  C_24
REMARK    5  A    between atoms: C_33  and  C_34
REMARK    6  A    between atoms: C_34  and  C_35
REMARK                            x       y       z     vdW  Elec       q    Type
REMARK                         _______ _______ _______ _____ _____    ______ ____
ROOT
ATOM      3  O   UNL     1      -4.742  -0.733  -0.492  0.00  0.00    -0.269 OA
ATOM      5  O   UNL     1       1.963   0.435  -1.841  0.00  0.00    -0.252 OA
ATOM      7  N   UNL     1      -2.541  -1.454  -0.548  0.00  0.00    -0.283 N 
ATOM      8  N   UNL     1       0.298  -0.887  -0.929  0.00  0.00    -0.282 N 
ATOM     11  N   UNL     1       2.518  -1.079  -0.161  0.00  0.00    -0.269 N 
ATOM     12  C   UNL     1      -2.084  -0.186  -1.119  0.00  0.00    +0.179 C 
ATOM     13  C   UNL     1      -0.722  -0.298  -1.802  0.00  0.00    +0.141 C 
ATOM     14  C   UNL     1      -1.524  -2.498  -0.355  0.00  0.00    +0.128 C 
ATOM     15  C   UNL     1      -0.155  -1.929   0.002  0.00  0.00    +0.128 C 
ATOM     21  C   UNL     1      -3.922  -1.636  -0.318  0.00  0.00    +0.254 C 
ATOM     23  C   UNL     1       1.637  -0.445  -1.040  0.00  0.00    +0.307 C 
ATOM     38  H   UNL     1       2.147  -1.759   0.493  0.00  0.00    +0.156 HD
ENDROOT
BRANCH  11  26
ATOM     26  C   UNL     1       3.912  -0.863  -0.025  0.00  0.00    +0.035 A 
ATOM     29  C   UNL     1       4.643  -1.592   0.913  0.00  0.00    +0.024 A 
ATOM     30  C   UNL     1       4.553   0.079  -0.830  0.00  0.00    +0.024 A 
ATOM     31  C   UNL     1       6.014  -1.379   1.048  0.00  0.00    +0.013 A 
ATOM     32  C   UNL     1       5.925   0.292  -0.695  0.00  0.00    +0.013 A 
ATOM     33  C   UNL     1       6.656  -0.437   0.243  0.00  0.00    +0.017 A 
BRANCH  33  34
ATOM      6  O   UNL     1       8.787   0.145  -0.584  0.00  0.00    -0.292 OA
ATOM     34  C   UNL     1       8.086  -0.216   0.383  0.00  0.00    +0.160 C 
ATOM     35  C   UNL     1       8.768  -0.423   1.732  0.00  0.00    +0.091 C 
ENDBRANCH  33  34
ENDBRANCH  11  26
BRANCH  21  24
ATOM      1  S   UNL     1      -5.164  -3.064   1.661  0.00  0.00    -0.092 S 
ATOM     24  C   UNL     1      -4.359  -2.947   0.154  0.00  0.00    +0.074 A 
ATOM     25  C   UNL     1      -4.219  -4.175  -0.455  0.00  0.00    +0.021 A 
ATOM     27  C   UNL     1      -4.781  -5.226   0.326  0.00  0.00    +0.008 A 
ATOM     28  C   UNL     1      -5.328  -4.761   1.502  0.00  0.00    +0.046 A 
ENDBRANCH  21  24
BRANCH  12  17
ATOM      2  O   UNL     1      -1.751   0.500   1.147  0.00  0.00    -0.274 OA
ATOM      9  N   UNL     1      -2.346   2.098  -0.438  0.00  0.00    -0.302 N 
ATOM     17  C   UNL     1      -2.030   0.822  -0.006  0.00  0.00    +0.236 C 
ATOM     36  H   UNL     1      -2.531   2.253  -1.425  0.00  0.00    +0.150 HD
BRANCH   9  16
ATOM      4  O   UNL     1      -4.558   3.702  -0.512  0.00  0.00    -0.274 OA
ATOM     10  N   UNL     1      -3.354   5.499   0.221  0.00  0.00    -0.314 N 
ATOM     16  C   UNL     1      -2.389   3.239   0.439  0.00  0.00    +0.159 C 
ATOM     18  C   UNL     1      -1.026   3.915   0.516  0.00  0.00    +0.033 C 
ATOM     19  C   UNL     1      -1.143   5.210   1.304  0.00  0.00    +0.021 C 
ATOM     20  C   UNL     1      -2.105   6.140   0.589  0.00  0.00    +0.104 C 
ATOM     22  C   UNL     1      -3.516   4.152  -0.031  0.00  0.00    +0.233 C 
ATOM     37  H   UNL     1      -4.123   6.109  -0.035  0.00  0.00    +0.149 HD
ENDBRANCH   9  16
ENDBRANCH  12  17
TORSDOF 5
