REMARK  Name = 11885117
REMARK  4 active torsions:
REMARK  status: ('A' for Active; 'I' for Inactive)
REMARK    1  A    between atoms: O_4  and  C_28
REMARK    2  A    between atoms: O_4  and  C_29
REMARK    3  A    between atoms: C_16  and  C_19
REMARK    4  A    between atoms: C_17  and  C_20
REMARK                            x       y       z     vdW  Elec       q    Type
REMARK                         _______ _______ _______ _____ _____    ______ ____
ROOT
ATOM      2  O   UNL     1       1.055   1.850   1.490  0.00  0.00    -0.267 OA
ATOM      3  O   UNL     1      -2.959  -1.167   2.412  0.00  0.00    -0.269 OA
ATOM      5  N   UNL     1      -3.505   0.118   0.534  0.00  0.00    -0.296 N 
ATOM      6  N   UNL     1      -0.816   1.718   0.104  0.00  0.00    -0.311 N 
ATOM      7  C   UNL     1      -3.127   2.558   0.825  0.00  0.00    +0.027 C 
ATOM      8  C   UNL     1      -2.832   1.531  -1.394  0.00  0.00    +0.054 C 
ATOM      9  C   UNL     1      -3.362   2.767  -0.668  0.00  0.00    +0.018 C 
ATOM     10  C   UNL     1      -3.869   1.300   1.313  0.00  0.00    +0.113 C 
ATOM     11  C   UNL     1      -1.617   2.473   1.079  0.00  0.00    +0.130 C 
ATOM     12  C   UNL     1      -3.610   0.283  -0.925  0.00  0.00    +0.117 C 
ATOM     13  C   UNL     1      -1.352   1.334  -1.128  0.00  0.00    +0.027 A 
ATOM     14  C   UNL     1      -0.570   0.755  -2.053  0.00  0.00    +0.022 A 
ATOM     15  C   UNL     1       0.536   1.497   0.429  0.00  0.00    +0.259 A 
ATOM     16  C   UNL     1      -3.048  -1.026   1.193  0.00  0.00    +0.253 C 
ATOM     17  C   UNL     1       1.376   0.803  -0.609  0.00  0.00    +0.047 A 
ATOM     18  C   UNL     1       0.813   0.482  -1.784  0.00  0.00    +0.015 A 
ENDROOT
BRANCH  17  20
ATOM     20  C   UNL     1       2.784   0.462  -0.347  0.00  0.00    -0.012 A 
ATOM     22  C   UNL     1       3.795   1.365  -0.678  0.00  0.00    +0.012 A 
ATOM     23  C   UNL     1       3.108  -0.766   0.232  0.00  0.00    +0.012 A 
ATOM     26  C   UNL     1       5.129   1.041  -0.430  0.00  0.00    +0.046 A 
ATOM     27  C   UNL     1       4.442  -1.090   0.479  0.00  0.00    +0.046 A 
ATOM     28  C   UNL     1       5.452  -0.186   0.148  0.00  0.00    +0.120 A 
BRANCH  28   4
ATOM      4  O   UNL     1       6.754  -0.502   0.390  0.00  0.00    -0.495 OA
ATOM     29  C   UNL     1       7.014  -1.773   0.983  0.00  0.00    +0.277 C 
ENDBRANCH  28   4
ENDBRANCH  17  20
BRANCH  16  19
ATOM      1  S   UNL     1      -3.750  -3.351  -0.071  0.00  0.00    -0.092 S 
ATOM     19  C   UNL     1      -2.607  -2.162   0.377  0.00  0.00    +0.074 A 
ATOM     21  C   UNL     1      -1.351  -2.433  -0.109  0.00  0.00    +0.021 A 
ATOM     24  C   UNL     1      -1.324  -3.640  -0.865  0.00  0.00    +0.008 A 
ATOM     25  C   UNL     1      -2.562  -4.241  -0.924  0.00  0.00    +0.046 A 
ENDBRANCH  16  19
TORSDOF 3
