REMARK  Name = 11883045
REMARK  11 active torsions:
REMARK  status: ('A' for Active; 'I' for Inactive)
REMARK    1  A    between atoms: O_4  and  C_18
REMARK    2  A    between atoms: O_5  and  C_23
REMARK    3  A    between atoms: N_10  and  C_29
REMARK    4  A    between atoms: N_12  and  C_31
REMARK    5  A    between atoms: C_13  and  C_21
REMARK    6  A    between atoms: C_15  and  C_23
REMARK    7  A    between atoms: C_15  and  C_24
REMARK    8  A    between atoms: C_16  and  C_26
REMARK    9  A    between atoms: C_26  and  C_27
REMARK   10  A    between atoms: C_29  and  C_31
REMARK   11  A    between atoms: C_30  and  C_32
REMARK                            x       y       z     vdW  Elec       q    Type
REMARK                         _______ _______ _______ _____ _____    ______ ____
ROOT
ATOM      1  S   UNL     1      -0.836   2.678  -0.834  0.00  0.00    -0.057 S 
ATOM      7  O   UNL     1       2.752   0.345   0.999  0.00  0.00    -0.270 OA
ATOM      9  N   UNL     1      -0.146   0.532   0.437  0.00  0.00    -0.229 NA
ATOM     11  N   UNL     1       1.615   2.082  -0.119  0.00  0.00    -0.261 N 
ATOM     13  C   UNL     1      -3.892  -0.323   0.763  0.00  0.00    -0.019 C 
ATOM     14  C   UNL     1      -4.256   0.395  -0.610  0.00  0.00    +0.011 C 
ATOM     15  C   UNL     1      -5.785   0.481  -0.989  0.00  0.00    +0.021 C 
ATOM     16  C   UNL     1      -2.335  -0.685   0.733  0.00  0.00    +0.054 C 
ATOM     17  C   UNL     1      -4.698  -1.643   0.886  0.00  0.00    +0.010 C 
ATOM     18  C   UNL     1      -6.447  -0.908  -0.766  0.00  0.00    +0.123 C 
ATOM     19  C   UNL     1      -3.494   1.743  -0.767  0.00  0.00    +0.049 C 
ATOM     20  C   UNL     1      -6.188  -1.481   0.623  0.00  0.00    +0.032 C 
ATOM     21  C   UNL     1      -4.191   0.558   2.001  0.00  0.00    +0.012 C 
ATOM     22  C   UNL     1      -1.516   0.486   0.255  0.00  0.00    +0.058 A 
ATOM     24  C   UNL     1      -5.914   0.818  -2.502  0.00  0.00    +0.016 C 
ATOM     25  C   UNL     1      -2.053   1.556  -0.431  0.00  0.00    +0.015 A 
ATOM     28  C   UNL     1       0.317   1.645  -0.090  0.00  0.00    +0.165 A 
ATOM     30  C   UNL     1       2.735   1.423   0.414  0.00  0.00    +0.255 C 
ATOM     45  H   UNL     1       1.745   2.966  -0.602  0.00  0.00    +0.157 HD
ENDROOT
BRANCH  30  32
ATOM      2  F   UNL     1       2.929   4.216   0.240  0.00  0.00    -0.205 F 
ATOM      3  F   UNL     1       5.151   0.018   0.182  0.00  0.00    -0.205 F 
ATOM     32  C   UNL     1       4.036   2.115   0.212  0.00  0.00    +0.107 A 
ATOM     37  C   UNL     1       4.053   3.491   0.136  0.00  0.00    +0.138 A 
ATOM     38  C   UNL     1       5.183   1.356   0.106  0.00  0.00    +0.138 A 
ATOM     39  C   UNL     1       5.273   4.140  -0.054  0.00  0.00    +0.039 A 
ATOM     40  C   UNL     1       6.403   2.005  -0.084  0.00  0.00    +0.039 A 
ATOM     41  C   UNL     1       6.448   3.397  -0.164  0.00  0.00    +0.006 A 
ENDBRANCH  30  32
BRANCH  18   4
ATOM      4  O   UNL     1      -7.857  -0.832  -0.976  0.00  0.00    -0.391 OA
ATOM     42  H   UNL     1      -8.016  -0.788  -1.933  0.00  0.00    +0.210 HD
ENDBRANCH  18   4
BRANCH  15  23
ATOM     23  C   UNL     1      -6.567   1.589  -0.249  0.00  0.00    +0.165 C 
BRANCH  23   5
ATOM      5  O   UNL     1      -7.902   1.548  -0.698  0.00  0.00    -0.394 OA
ATOM     43  H   UNL     1      -7.971   2.105  -1.492  0.00  0.00    +0.209 HD
ENDBRANCH  23   5
ENDBRANCH  15  23
BRANCH  16  26
ATOM     26  C   UNL     1      -1.787  -1.256   2.048  0.00  0.00    +0.106 C 
BRANCH  26  27
ATOM      6  O   UNL     1       0.578  -1.259   2.561  0.00  0.00    -0.276 OA
ATOM     10  N   UNL     1      -0.250  -2.724   0.958  0.00  0.00    -0.314 N 
ATOM     27  C   UNL     1      -0.356  -1.721   1.910  0.00  0.00    +0.214 C 
ATOM     44  H   UNL     1      -1.086  -3.083   0.507  0.00  0.00    +0.149 HD
BRANCH  10  29
ATOM     29  C   UNL     1       1.003  -3.357   0.614  0.00  0.00    +0.119 C 
BRANCH  29  31
ATOM     31  C   UNL     1       1.698  -2.622  -0.522  0.00  0.00    +0.103 C 
BRANCH  31  12
ATOM      8  O   UNL     1       5.781  -3.308  -1.208  0.00  0.00    -0.377 OA
ATOM     12  N   UNL     1       2.957  -3.284  -0.860  0.00  0.00    -0.297 NA
ATOM     33  C   UNL     1       3.872  -3.282   0.289  0.00  0.00    +0.112 C 
ATOM     34  C   UNL     1       3.594  -2.634  -2.013  0.00  0.00    +0.112 C 
ATOM     35  C   UNL     1       5.182  -3.966  -0.091  0.00  0.00    +0.175 C 
ATOM     36  C   UNL     1       4.910  -3.334  -2.340  0.00  0.00    +0.175 C 
ENDBRANCH  31  12
ENDBRANCH  29  31
ENDBRANCH  10  29
ENDBRANCH  26  27
ENDBRANCH  16  26
TORSDOF 9
