REMARK  Name = 45783286
REMARK  4 active torsions:
REMARK  status: ('A' for Active; 'I' for Inactive)
REMARK    1  A    between atoms: N_3  and  C_13
REMARK    2  A    between atoms: C_9  and  C_14
REMARK    3  A    between atoms: C_13  and  C_15
REMARK    4  A    between atoms: C_17  and  C_19
REMARK                            x       y       z     vdW  Elec       q    Type
REMARK                         _______ _______ _______ _____ _____    ______ ____
ROOT
ATOM      1  O   UNL     1      -2.865  -1.474   1.964  0.00  0.00    -0.336 OA
ATOM      4  N   UNL     1      -1.396  -1.201   0.295  0.00  0.00    -0.190 NA
ATOM      6  N   UNL     1      -1.595  -1.511   2.553  0.00  0.00    -0.056 NA
ATOM     14  C   UNL     1      -2.658  -1.289   0.634  0.00  0.00    +0.245 A 
ATOM     17  C   UNL     1      -0.782  -1.343   1.506  0.00  0.00    +0.202 A 
ENDROOT
BRANCH  17  19
ATOM      2  O   UNL     1       5.331  -0.812  -2.670  0.00  0.00    -0.377 OA
ATOM      5  N   UNL     1       3.609  -0.936  -0.452  0.00  0.00    -0.311 N 
ATOM      8  N   UNL     1       3.429  -1.255   1.886  0.00  0.00    -0.240 NA
ATOM     19  C   UNL     1       0.646  -1.315   1.635  0.00  0.00    +0.027 A 
ATOM     21  C   UNL     1       3.504  -1.929  -1.531  0.00  0.00    +0.134 C 
ATOM     22  C   UNL     1       4.910  -0.268  -0.343  0.00  0.00    +0.134 C 
ATOM     23  C   UNL     1       2.819  -1.115   0.688  0.00  0.00    +0.122 A 
ATOM     24  C   UNL     1       4.010  -1.325  -2.836  0.00  0.00    +0.178 C 
ATOM     25  C   UNL     1       5.341   0.246  -1.712  0.00  0.00    +0.178 C 
ATOM     27  C   UNL     1       1.445  -1.137   0.510  0.00  0.00    +0.055 A 
ATOM     28  C   UNL     1       1.237  -1.463   2.884  0.00  0.00    +0.031 A 
ATOM     31  C   UNL     1       2.620  -1.426   2.956  0.00  0.00    +0.113 A 
ENDBRANCH  17  19
BRANCH  14   9
ATOM      3  N   UNL     1      -3.677  -0.410  -1.459  0.00  0.00    -0.287 NA
ATOM      9  C   UNL     1      -3.893  -1.212  -0.238  0.00  0.00    +0.146 C 
ATOM     10  C   UNL     1      -4.346  -2.591  -0.751  0.00  0.00    +0.030 C 
ATOM     11  C   UNL     1      -4.413  -2.450  -2.265  0.00  0.00    +0.017 C 
ATOM     12  C   UNL     1      -4.573  -0.958  -2.477  0.00  0.00    +0.085 C 
BRANCH   3  13
ATOM     13  C   UNL     1      -3.889   1.017  -1.254  0.00  0.00    +0.121 C 
BRANCH  13  15
ATOM      7  N   UNL     1      -1.835   2.969   1.227  0.00  0.00    -0.255 NA
ATOM     15  C   UNL     1      -2.724   1.679  -0.610  0.00  0.00    -0.015 A 
ATOM     16  C   UNL     1      -1.466   1.649  -1.194  0.00  0.00    +0.016 A 
ATOM     18  C   UNL     1      -2.854   2.347   0.591  0.00  0.00    +0.116 A 
ATOM     20  C   UNL     1      -0.383   2.281  -0.568  0.00  0.00    +0.001 A 
ATOM     26  C   UNL     1      -0.616   2.938   0.658  0.00  0.00    +0.071 A 
ATOM     29  C   UNL     1       0.903   2.269  -1.134  0.00  0.00    +0.010 A 
ATOM     30  C   UNL     1       0.461   3.566   1.279  0.00  0.00    +0.028 A 
ATOM     32  C   UNL     1       1.962   2.904  -0.491  0.00  0.00    +0.001 A 
ATOM     33  C   UNL     1       1.740   3.554   0.717  0.00  0.00    +0.002 A 
ENDBRANCH  13  15
ENDBRANCH   3  13
ENDBRANCH  14   9
TORSDOF 4
