REMARK  Name = 11884081
REMARK  10 active torsions:
REMARK  status: ('A' for Active; 'I' for Inactive)
REMARK    1  A    between atoms: S_1  and  N_9
REMARK    2  A    between atoms: S_1  and  C_17
REMARK    3  A    between atoms: O_4  and  C_14
REMARK    4  A    between atoms: O_4  and  C_18
REMARK    5  A    between atoms: O_8  and  C_26
REMARK    6  A    between atoms: O_8  and  C_27
REMARK    7  A    between atoms: N_9  and  C_13
REMARK    8  A    between atoms: N_10  and  C_21
REMARK    9  A    between atoms: C_17  and  C_19
REMARK   10  A    between atoms: C_19  and  C_20
REMARK                            x       y       z     vdW  Elec       q    Type
REMARK                         _______ _______ _______ _____ _____    ______ ____
ROOT
ATOM      2  O   UNL     1       1.281   0.158  -1.162  0.00  0.00    -0.369 OA
ATOM      3  O   UNL     1       2.373   2.414   0.622  0.00  0.00    -0.368 OA
ATOM     11  C   UNL     1       2.488   0.978   0.709  0.00  0.00    +0.171 C 
ATOM     12  C   UNL     1       1.163   0.402   0.249  0.00  0.00    +0.191 C 
ATOM     13  C   UNL     1       3.478   0.478  -0.314  0.00  0.00    +0.133 C 
ATOM     14  C   UNL     1       0.197   1.524   0.545  0.00  0.00    +0.235 C 
ATOM     15  C   UNL     1       2.639   0.379  -1.573  0.00  0.00    +0.183 C 
ATOM     16  C   UNL     1       1.030   2.749   0.244  0.00  0.00    +0.207 C 
ENDROOT
BRANCH  13   9
ATOM      9  N   UNL     1       3.967  -0.868   0.070  0.00  0.00    -0.187 NA
ATOM     28  H   UNL     1       3.596  -1.271   0.939  0.00  0.00    +0.148 HD
BRANCH   9   1
ATOM      1  S   UNL     1       5.484  -1.386  -0.502  0.00  0.00    +0.030 S 
ATOM      5  O   UNL     1       5.758  -0.787  -1.794  0.00  0.00    -0.158 OA
ATOM      6  O   UNL     1       5.573  -2.821  -0.316  0.00  0.00    -0.158 OA
BRANCH   1  17
ATOM     17  C   UNL     1       6.562  -0.628   0.692  0.00  0.00    +0.185 C 
BRANCH  17  19
ATOM     19  C   UNL     1       8.020  -0.944   0.401  0.00  0.00    +0.021 C 
ATOM     20  C   UNL     1       8.942  -0.315   1.431  0.00  0.00    +0.005 C 
ENDBRANCH  17  19
ENDBRANCH   1  17
ENDBRANCH   9   1
ENDBRANCH  13   9
BRANCH  14   4
ATOM      4  O   UNL     1      -0.977   1.475  -0.234  0.00  0.00    -0.442 OA
BRANCH   4  18
ATOM      7  O   UNL     1      -2.026   0.284   1.413  0.00  0.00    -0.226 OA
ATOM     10  N   UNL     1      -3.119   0.859  -0.576  0.00  0.00    -0.251 N 
ATOM     18  C   UNL     1      -2.059   0.813   0.308  0.00  0.00    +0.405 C 
ATOM     29  H   UNL     1      -2.954   1.349  -1.451  0.00  0.00    +0.158 HD
BRANCH  10  21
ATOM     21  C   UNL     1      -4.411   0.307  -0.415  0.00  0.00    +0.037 A 
ATOM     22  C   UNL     1      -5.363   0.454  -1.424  0.00  0.00    +0.027 A 
ATOM     23  C   UNL     1      -4.733  -0.386   0.752  0.00  0.00    +0.027 A 
ATOM     24  C   UNL     1      -6.637  -0.092  -1.266  0.00  0.00    +0.047 A 
ATOM     25  C   UNL     1      -6.007  -0.931   0.910  0.00  0.00    +0.047 A 
ATOM     26  C   UNL     1      -6.959  -0.784  -0.099  0.00  0.00    +0.120 A 
BRANCH  26   8
ATOM      8  O   UNL     1      -8.201  -1.318   0.054  0.00  0.00    -0.495 OA
ATOM     27  C   UNL     1      -8.463  -2.014   1.272  0.00  0.00    +0.277 C 
ENDBRANCH  26   8
ENDBRANCH  10  21
ENDBRANCH   4  18
ENDBRANCH  14   4
TORSDOF 8
