REMARK  Name = 44716321
REMARK  8 active torsions:
REMARK  status: ('A' for Active; 'I' for Inactive)
REMARK    1  A    between atoms: N_2  and  C_17
REMARK    2  A    between atoms: N_3  and  C_14
REMARK    3  A    between atoms: N_5  and  C_23
REMARK    4  A    between atoms: N_5  and  C_24
REMARK    5  A    between atoms: N_5  and  C_25
REMARK    6  A    between atoms: C_7  and  C_13
REMARK    7  A    between atoms: C_8  and  C_14
REMARK    8  A    between atoms: C_16  and  C_18
REMARK                            x       y       z     vdW  Elec       q    Type
REMARK                         _______ _______ _______ _____ _____    ______ ____
ROOT
ATOM      2  N   UNL     1      -0.726  -2.266   0.474  0.00  0.00    -0.270 N 
ATOM      4  N   UNL     1       0.611  -2.187   0.578  0.00  0.00    -0.171 NA
ATOM     13  C   UNL     1      -1.305  -1.149  -0.054  0.00  0.00    +0.044 A 
ATOM     15  C   UNL     1      -0.274  -0.279  -0.312  0.00  0.00    +0.053 A 
ATOM     16  C   UNL     1       0.882  -0.971   0.097  0.00  0.00    +0.093 A 
ATOM     17  C   UNL     1      -1.398  -3.468   0.910  0.00  0.00    +0.172 C 
ENDROOT
BRANCH  13   7
ATOM      1  N   UNL     1      -4.696   0.349   0.705  0.00  0.00    -0.298 NA
ATOM      6  C   UNL     1      -3.304  -0.132  -1.444  0.00  0.00    +0.002 C 
ATOM      7  C   UNL     1      -2.806  -1.013  -0.264  0.00  0.00    +0.055 C 
ATOM      8  C   UNL     1      -4.220   1.626   0.112  0.00  0.00    +0.070 C 
ATOM      9  C   UNL     1      -3.226   1.355  -1.038  0.00  0.00    +0.024 C 
ATOM     10  C   UNL     1      -4.797  -0.467  -1.650  0.00  0.00    +0.019 C 
ATOM     11  C   UNL     1      -3.540  -0.528   1.018  0.00  0.00    +0.094 C 
ATOM     12  C   UNL     1      -5.536  -0.337  -0.306  0.00  0.00    +0.085 C 
BRANCH   8  14
ATOM     14  C   UNL     1      -3.634   2.573   1.161  0.00  0.00    +0.096 C 
BRANCH  14   3
ATOM      3  N   UNL     1      -3.315   3.863   0.571  0.00  0.00    -0.329 NA
ATOM     26  H   UNL     1      -2.942   4.481   1.290  0.00  0.00    +0.118 HD
ATOM     27  H   UNL     1      -2.576   3.762  -0.123  0.00  0.00    +0.118 HD
ENDBRANCH  14   3
ENDBRANCH   8  14
ENDBRANCH  13   7
BRANCH  16  18
ATOM     18  C   UNL     1       2.238  -0.492   0.038  0.00  0.00    +0.002 A 
ATOM     19  C   UNL     1       2.502   0.873   0.153  0.00  0.00    +0.012 A 
ATOM     20  C   UNL     1       3.289  -1.393  -0.134  0.00  0.00    +0.012 A 
ATOM     21  C   UNL     1       3.816   1.337   0.097  0.00  0.00    +0.024 A 
ATOM     22  C   UNL     1       4.603  -0.930  -0.191  0.00  0.00    +0.024 A 
ATOM     23  C   UNL     1       4.867   0.435  -0.075  0.00  0.00    +0.029 A 
BRANCH  23   5
ATOM      5  N   UNL     1       6.196   0.904  -0.132  0.00  0.00    -0.336 N 
ATOM     24  C   UNL     1       6.480   2.320  -0.012  0.00  0.00    +0.129 C 
ATOM     25  C   UNL     1       7.295  -0.025  -0.303  0.00  0.00    +0.129 C 
ENDBRANCH  23   5
ENDBRANCH  16  18
TORSDOF 5
