REMARK  Name = 38031254
REMARK  12 active torsions:
REMARK  status: ('A' for Active; 'I' for Inactive)
REMARK    1  A    between atoms: O_4  and  C_34
REMARK    2  A    between atoms: O_4  and  C_35
REMARK    3  A    between atoms: N_5  and  C_15
REMARK    4  A    between atoms: C_8  and  C_12
REMARK    5  A    between atoms: C_9  and  C_15
REMARK    6  A    between atoms: C_11  and  C_16
REMARK    7  A    between atoms: C_12  and  C_17
REMARK    8  A    between atoms: C_12  and  C_18
REMARK    9  A    between atoms: C_13  and  C_19
REMARK   10  A    between atoms: C_16  and  C_20
REMARK   11  A    between atoms: C_21  and  C_23
REMARK   12  A    between atoms: C_22  and  C_24
REMARK                            x       y       z     vdW  Elec       q    Type
REMARK                         _______ _______ _______ _____ _____    ______ ____
ROOT
ATOM      8  C   UNL     1       1.246   1.993  -1.272  0.00  0.00    +0.000 C 
ATOM      9  C   UNL     1       2.755   2.319  -1.406  0.00  0.00    +0.032 C 
ATOM     10  C   UNL     1       0.577   2.954  -0.277  0.00  0.00    +0.012 C 
ATOM     11  C   UNL     1       1.217   2.884   1.122  0.00  0.00    +0.024 C 
ATOM     13  C   UNL     1       2.730   2.929   1.051  0.00  0.00    -0.073 C 
ATOM     14  C   UNL     1       3.400   2.688  -0.090  0.00  0.00    -0.022 C 
ATOM     19  C   UNL     1       3.456   3.305   2.313  0.00  0.00    +0.039 C 
ENDROOT
BRANCH   8  12
ATOM     12  C   UNL     1       0.528   2.062  -2.623  0.00  0.00    -0.013 C 
ATOM     17  C   UNL     1       0.184   3.506  -2.970  0.00  0.00    +0.007 C 
ATOM     18  C   UNL     1      -0.729   1.196  -2.602  0.00  0.00    +0.007 C 
ENDBRANCH   8  12
BRANCH   9  15
ATOM     15  C   UNL     1       3.519   1.151  -2.039  0.00  0.00    +0.112 C 
BRANCH  15   5
ATOM      3  O   UNL     1       2.437  -1.439  -2.646  0.00  0.00    -0.270 OA
ATOM      5  N   UNL     1       3.504   0.009  -1.179  0.00  0.00    -0.311 N 
ATOM     21  C   UNL     1       2.956  -1.217  -1.555  0.00  0.00    +0.244 C 
ATOM     36  H   UNL     1       3.909   0.122  -0.257  0.00  0.00    +0.149 HD
BRANCH  21  23
ATOM      1  F   UNL     1       3.105  -5.303   2.293  0.00  0.00    -0.205 F 
ATOM     23  C   UNL     1       2.995  -2.298  -0.537  0.00  0.00    +0.037 A 
ATOM     25  C   UNL     1       2.039  -3.312  -0.559  0.00  0.00    +0.016 A 
ATOM     26  C   UNL     1       3.990  -2.298   0.442  0.00  0.00    +0.016 A 
ATOM     29  C   UNL     1       2.076  -4.328   0.396  0.00  0.00    +0.039 A 
ATOM     30  C   UNL     1       4.027  -3.313   1.398  0.00  0.00    +0.039 A 
ATOM     31  C   UNL     1       3.070  -4.328   1.375  0.00  0.00    +0.123 A 
ENDBRANCH  21  23
ENDBRANCH  15   5
ENDBRANCH   9  15
BRANCH  11  16
ATOM     16  C   UNL     1       0.741   1.644   1.886  0.00  0.00    +0.105 C 
BRANCH  16  20
ATOM      2  O   UNL     1      -1.411   0.743   1.168  0.00  0.00    -0.420 OA
ATOM      6  N   UNL     1      -1.557   2.294   2.774  0.00  0.00    -0.112 NA
ATOM      7  N   UNL     1      -2.838   1.875   2.468  0.00  0.00    -0.107 NA
ATOM     20  C   UNL     1      -0.757   1.607   1.992  0.00  0.00    +0.218 A 
ATOM     22  C   UNL     1      -2.704   0.971   1.526  0.00  0.00    +0.248 A 
BRANCH  22  24
ATOM     24  C   UNL     1      -3.693   0.199   0.829  0.00  0.00    +0.039 A 
ATOM     27  C   UNL     1      -5.045   0.364   1.129  0.00  0.00    +0.017 A 
ATOM     28  C   UNL     1      -3.301  -0.716  -0.148  0.00  0.00    +0.017 A 
ATOM     32  C   UNL     1      -6.006  -0.387   0.451  0.00  0.00    +0.046 A 
ATOM     33  C   UNL     1      -4.262  -1.467  -0.825  0.00  0.00    +0.046 A 
ATOM     34  C   UNL     1      -5.615  -1.302  -0.526  0.00  0.00    +0.120 A 
BRANCH  34   4
ATOM      4  O   UNL     1      -6.552  -2.035  -1.187  0.00  0.00    -0.495 OA
ATOM     35  C   UNL     1      -6.082  -2.952  -2.173  0.00  0.00    +0.277 C 
ENDBRANCH  34   4
ENDBRANCH  22  24
ENDBRANCH  16  20
ENDBRANCH  11  16
TORSDOF 8
