REMARK  Name = 7164894
REMARK  12 active torsions:
REMARK  status: ('A' for Active; 'I' for Inactive)
REMARK    1  A    between atoms: S_1  and  N_9
REMARK    2  A    between atoms: S_1  and  C_19
REMARK    3  A    between atoms: O_6  and  C_24
REMARK    4  A    between atoms: O_6  and  C_39
REMARK    5  A    between atoms: O_8  and  C_36
REMARK    6  A    between atoms: O_8  and  C_41
REMARK    7  A    between atoms: N_11  and  C_20
REMARK    8  A    between atoms: N_12  and  C_28
REMARK    9  A    between atoms: C_13  and  C_17
REMARK   10  A    between atoms: C_20  and  C_21
REMARK   11  A    between atoms: C_20  and  C_24
REMARK   12  A    between atoms: C_21  and  C_25
REMARK                            x       y       z     vdW  Elec       q    Type
REMARK                         _______ _______ _______ _____ _____    ______ ____
ROOT
ATOM      5  O   UNL     1      -2.374  -1.365   0.864  0.00  0.00    -0.252 OA
ATOM      9  N   UNL     1       2.310  -1.559  -0.831  0.00  0.00    -0.162 NA
ATOM     10  N   UNL     1      -0.340  -2.160   0.098  0.00  0.00    -0.282 N 
ATOM     12  N   UNL     1      -2.327  -3.339  -0.371  0.00  0.00    -0.269 N 
ATOM     13  C   UNL     1       1.509  -0.504  -0.151  0.00  0.00    +0.183 C 
ATOM     14  C   UNL     1       0.401  -1.068   0.736  0.00  0.00    +0.139 C 
ATOM     15  C   UNL     1       1.961  -2.949  -0.442  0.00  0.00    +0.129 C 
ATOM     16  C   UNL     1       0.463  -3.155  -0.624  0.00  0.00    +0.126 C 
ATOM     18  C   UNL     1      -1.746  -2.228   0.247  0.00  0.00    +0.307 C 
ATOM     43  H   UNL     1      -1.726  -3.980  -0.876  0.00  0.00    +0.156 HD
ENDROOT
BRANCH  12  28
ATOM     28  C   UNL     1      -3.699  -3.694  -0.406  0.00  0.00    +0.035 A 
ATOM     32  C   UNL     1      -4.104  -4.848  -1.076  0.00  0.00    +0.023 A 
ATOM     33  C   UNL     1      -4.644  -2.888   0.229  0.00  0.00    +0.023 A 
ATOM     37  C   UNL     1      -5.454  -5.198  -1.110  0.00  0.00    +0.002 A 
ATOM     38  C   UNL     1      -5.994  -3.237   0.195  0.00  0.00    +0.002 A 
ATOM     40  C   UNL     1      -6.399  -4.392  -0.475  0.00  0.00    +0.000 A 
ENDBRANCH  12  28
BRANCH  13  17
ATOM      4  O   UNL     1       0.631  -0.192  -2.345  0.00  0.00    -0.274 OA
ATOM     11  N   UNL     1       0.850   1.654  -0.944  0.00  0.00    -0.301 N 
ATOM     17  C   UNL     1       0.944   0.312  -1.270  0.00  0.00    +0.234 C 
ATOM     42  H   UNL     1       1.119   1.960  -0.014  0.00  0.00    +0.150 HD
BRANCH  11  20
ATOM     20  C   UNL     1       0.356   2.657  -1.861  0.00  0.00    +0.186 C 
BRANCH  20  24
ATOM      7  O   UNL     1       1.894   4.198  -0.812  0.00  0.00    -0.249 OA
ATOM     24  C   UNL     1       1.070   3.993  -1.697  0.00  0.00    +0.328 C 
BRANCH  24   6
ATOM      6  O   UNL     1       0.669   4.906  -2.625  0.00  0.00    -0.467 OA
ATOM     39  C   UNL     1       1.279   6.197  -2.530  0.00  0.00    +0.280 C 
ENDBRANCH  24   6
ENDBRANCH  20  24
BRANCH  20  21
ATOM     21  C   UNL     1      -1.169   2.803  -1.760  0.00  0.00    +0.069 C 
BRANCH  21  25
ATOM     25  C   UNL     1      -1.669   3.301  -0.422  0.00  0.00    -0.045 A 
ATOM     30  C   UNL     1      -1.983   2.393   0.588  0.00  0.00    +0.007 A 
ATOM     31  C   UNL     1      -1.816   4.670  -0.200  0.00  0.00    +0.007 A 
ATOM     34  C   UNL     1      -2.444   2.853   1.821  0.00  0.00    +0.046 A 
ATOM     35  C   UNL     1      -2.277   5.131   1.034  0.00  0.00    +0.046 A 
ATOM     36  C   UNL     1      -2.591   4.222   2.044  0.00  0.00    +0.120 A 
BRANCH  36   8
ATOM      8  O   UNL     1      -3.040   4.671   3.248  0.00  0.00    -0.495 OA
ATOM     41  C   UNL     1      -3.342   3.687   4.236  0.00  0.00    +0.277 C 
ENDBRANCH  36   8
ENDBRANCH  21  25
ENDBRANCH  20  21
ENDBRANCH  11  20
ENDBRANCH  13  17
BRANCH   9   1
ATOM      1  S   UNL     1       3.974  -1.235  -1.059  0.00  0.00    +0.062 S 
ATOM      2  O   UNL     1       4.156   0.186  -1.267  0.00  0.00    -0.153 OA
ATOM      3  O   UNL     1       4.519  -2.200  -1.990  0.00  0.00    -0.153 OA
BRANCH   1  19
ATOM     19  C   UNL     1       4.588  -1.627   0.550  0.00  0.00    +0.106 A 
ATOM     22  C   UNL     1       4.653  -0.638   1.532  0.00  0.00    +0.028 A 
ATOM     23  C   UNL     1       5.006  -2.926   0.840  0.00  0.00    +0.028 A 
ATOM     26  C   UNL     1       5.137  -0.948   2.803  0.00  0.00    +0.002 A 
ATOM     27  C   UNL     1       5.489  -3.236   2.111  0.00  0.00    +0.002 A 
ATOM     29  C   UNL     1       5.555  -2.247   3.092  0.00  0.00    +0.000 A 
ENDBRANCH   1  19
ENDBRANCH   9   1
TORSDOF 10
