REMARK  Name = 75536560
REMARK  7 active torsions:
REMARK  status: ('A' for Active; 'I' for Inactive)
REMARK    1  A    between atoms: O_3  and  C_8
REMARK    2  A    between atoms: N_5  and  C_16
REMARK    3  A    between atoms: N_6  and  C_10
REMARK    4  A    between atoms: N_6  and  C_18
REMARK    5  A    between atoms: C_7  and  C_16
REMARK    6  A    between atoms: C_9  and  C_17
REMARK    7  A    between atoms: C_18  and  C_19
REMARK                            x       y       z     vdW  Elec       q    Type
REMARK                         _______ _______ _______ _____ _____    ______ ____
ROOT
ATOM      2  O   UNL     1       0.964  -1.219  -0.287  0.00  0.00    -0.371 OA
ATOM      7  C   UNL     1       1.292   0.117   0.130  0.00  0.00    +0.165 C 
ATOM      8  C   UNL     1      -0.017   0.748   0.586  0.00  0.00    +0.164 C 
ATOM     10  C   UNL     1      -1.000   0.113  -0.380  0.00  0.00    +0.111 C 
ATOM     15  C   UNL     1      -0.460  -1.304  -0.470  0.00  0.00    +0.181 C 
ENDROOT
BRANCH   8   3
ATOM      3  O   UNL     1       0.015   2.159   0.485  0.00  0.00    -0.388 OA
ATOM     27  H   UNL     1       0.219   2.395  -0.436  0.00  0.00    +0.210 HD
ENDBRANCH   8   3
BRANCH  10   6
ATOM      6  N   UNL     1      -2.380   0.166   0.073  0.00  0.00    -0.305 NA
ATOM     26  H   UNL     1      -2.580   1.103   0.422  0.00  0.00    +0.123 HD
BRANCH   6  18
ATOM     18  C   UNL     1      -3.302  -0.141  -1.014  0.00  0.00    +0.116 C 
BRANCH  18  19
ATOM      1  F   UNL     1      -8.671  -0.018   0.692  0.00  0.00    -0.205 F 
ATOM     19  C   UNL     1      -4.737  -0.108  -0.558  0.00  0.00    -0.033 A 
ATOM     20  C   UNL     1      -5.339  -1.267  -0.068  0.00  0.00    +0.008 A 
ATOM     21  C   UNL     1      -5.463   1.081  -0.626  0.00  0.00    +0.008 A 
ATOM     22  C   UNL     1      -6.668  -1.237   0.354  0.00  0.00    +0.038 A 
ATOM     23  C   UNL     1      -6.792   1.111  -0.204  0.00  0.00    +0.038 A 
ATOM     24  C   UNL     1      -7.395  -0.048   0.286  0.00  0.00    +0.123 A 
ENDBRANCH  18  19
ENDBRANCH   6  18
ENDBRANCH  10   6
BRANCH   7  16
ATOM     16  C   UNL     1       2.348   0.071   1.220  0.00  0.00    +0.138 C 
BRANCH  16   5
ATOM      4  O   UNL     1       4.612   1.396  -0.024  0.00  0.00    -0.276 OA
ATOM      5  N   UNL     1       3.560  -0.534   0.747  0.00  0.00    -0.313 N 
ATOM     17  C   UNL     1       4.597   0.182   0.161  0.00  0.00    +0.216 C 
ATOM     25  H   UNL     1       3.653  -1.540   0.854  0.00  0.00    +0.149 HD
BRANCH  17   9
ATOM      9  C   UNL     1       5.755  -0.690  -0.220  0.00  0.00    +0.075 C 
ATOM     11  C   UNL     1       6.758  -0.776   0.936  0.00  0.00    +0.013 C 
ATOM     12  C   UNL     1       6.516  -0.090  -1.403  0.00  0.00    +0.013 C 
ATOM     13  C   UNL     1       8.095  -0.320   0.362  0.00  0.00    +0.001 C 
ATOM     14  C   UNL     1       7.713   0.611  -0.775  0.00  0.00    +0.001 C 
ENDBRANCH  17   9
ENDBRANCH  16   5
ENDBRANCH   7  16
TORSDOF 7
