REMARK  Name = 75367185
REMARK  6 active torsions:
REMARK  status: ('A' for Active; 'I' for Inactive)
REMARK    1  A    between atoms: O_3  and  C_21
REMARK    2  A    between atoms: O_3  and  C_27
REMARK    3  A    between atoms: N_4  and  C_10
REMARK    4  A    between atoms: C_7  and  C_12
REMARK    5  A    between atoms: C_10  and  C_13
REMARK    6  A    between atoms: C_14  and  C_18
REMARK                            x       y       z     vdW  Elec       q    Type
REMARK                         _______ _______ _______ _____ _____    ______ ____
ROOT
ATOM      2  O   UNL     1       1.075  -4.251   1.733  0.00  0.00    -0.377 OA
ATOM      4  N   UNL     1       1.480  -1.887   0.170  0.00  0.00    -0.285 NA
ATOM      7  C   UNL     1       0.344  -2.806  -0.098  0.00  0.00    +0.149 C 
ATOM      8  C   UNL     1       2.591  -2.620   0.802  0.00  0.00    +0.113 C 
ATOM      9  C   UNL     1      -0.046  -3.554   1.191  0.00  0.00    +0.186 C 
ATOM     11  C   UNL     1       2.119  -3.337   2.060  0.00  0.00    +0.175 C 
ENDROOT
BRANCH   7  12
ATOM      5  N   UNL     1      -1.520  -1.115   0.042  0.00  0.00    -0.341 N 
ATOM      6  N   UNL     1      -1.474  -2.343  -1.807  0.00  0.00    -0.238 NA
ATOM     12  C   UNL     1      -0.887  -2.106  -0.655  0.00  0.00    +0.127 A 
ATOM     14  C   UNL     1      -2.578  -0.693  -0.713  0.00  0.00    +0.066 A 
ATOM     15  C   UNL     1      -2.529  -1.466  -1.849  0.00  0.00    +0.139 A 
ATOM     28  H   UNL     1      -1.250  -0.768   0.954  0.00  0.00    +0.167 HD
BRANCH  14  18
ATOM      1 CL   UNL     1      -3.352   3.654   1.949  0.00  0.00    -0.084 Cl
ATOM     18  C   UNL     1      -3.482   0.347  -0.298  0.00  0.00    +0.001 A 
ATOM     22  C   UNL     1      -3.030   1.376   0.528  0.00  0.00    +0.030 A 
ATOM     23  C   UNL     1      -4.811   0.325  -0.723  0.00  0.00    +0.010 A 
ATOM     24  C   UNL     1      -3.907   2.384   0.929  0.00  0.00    +0.042 A 
ATOM     25  C   UNL     1      -5.688   1.333  -0.321  0.00  0.00    +0.002 A 
ATOM     26  C   UNL     1      -5.236   2.362   0.505  0.00  0.00    +0.020 A 
ENDBRANCH  14  18
ENDBRANCH   7  12
BRANCH   4  10
ATOM     10  C   UNL     1       1.967  -1.238  -1.053  0.00  0.00    +0.120 C 
BRANCH  10  13
ATOM     13  C   UNL     1       2.702   0.041  -0.755  0.00  0.00    -0.033 A 
ATOM     16  C   UNL     1       1.990   1.194  -0.421  0.00  0.00    +0.008 A 
ATOM     17  C   UNL     1       4.095   0.075  -0.811  0.00  0.00    +0.008 A 
ATOM     19  C   UNL     1       2.671   2.379  -0.144  0.00  0.00    +0.046 A 
ATOM     20  C   UNL     1       4.776   1.260  -0.535  0.00  0.00    +0.046 A 
ATOM     21  C   UNL     1       4.064   2.412  -0.201  0.00  0.00    +0.120 A 
BRANCH  21   3
ATOM      3  O   UNL     1       4.729   3.569   0.070  0.00  0.00    -0.495 OA
ATOM     27  C   UNL     1       3.938   4.708   0.405  0.00  0.00    +0.277 C 
ENDBRANCH  21   3
ENDBRANCH  10  13
ENDBRANCH   4  10
TORSDOF 5
