REMARK  Name = 7143899
REMARK  5 active torsions:
REMARK  status: ('A' for Active; 'I' for Inactive)
REMARK    1  A    between atoms: N_5  and  C_20
REMARK    2  A    between atoms: N_5  and  C_22
REMARK    3  A    between atoms: N_5  and  C_23
REMARK    4  A    between atoms: C_17  and  C_20
REMARK    5  A    between atoms: C_18  and  C_21
REMARK                            x       y       z     vdW  Elec       q    Type
REMARK                         _______ _______ _______ _____ _____    ______ ____
ROOT
ATOM      1  O   UNL     1      -1.278  -0.916   1.905  0.00  0.00    -0.267 OA
ATOM      2  O   UNL     1       3.587   2.157   1.018  0.00  0.00    -0.274 OA
ATOM      3  N   UNL     1       3.227   0.127  -0.052  0.00  0.00    -0.299 N 
ATOM      4  N   UNL     1       0.444  -1.373   0.400  0.00  0.00    -0.311 N 
ATOM      8  C   UNL     1       2.803  -2.015   1.161  0.00  0.00    +0.027 C 
ATOM      9  C   UNL     1       2.296  -1.851  -1.240  0.00  0.00    +0.054 C 
ATOM     10  C   UNL     1       2.876  -2.766  -0.163  0.00  0.00    +0.018 C 
ATOM     11  C   UNL     1       3.614  -0.709   1.085  0.00  0.00    +0.113 C 
ATOM     12  C   UNL     1       1.331  -1.760   1.506  0.00  0.00    +0.130 C 
ATOM     13  C   UNL     1       3.149  -0.572  -1.344  0.00  0.00    +0.117 C 
ATOM     14  C   UNL     1       0.856  -1.486  -0.930  0.00  0.00    +0.027 A 
ATOM     15  C   UNL     1      -0.010  -1.243  -1.926  0.00  0.00    +0.022 A 
ATOM     16  C   UNL     1      -0.868  -0.993   0.746  0.00  0.00    +0.259 A 
ATOM     17  C   UNL     1       3.040   1.497   0.132  0.00  0.00    +0.230 C 
ATOM     18  C   UNL     1      -1.805  -0.691  -0.393  0.00  0.00    +0.050 A 
ATOM     19  C   UNL     1      -1.358  -0.835  -1.649  0.00  0.00    +0.015 A 
ENDROOT
BRANCH  18  21
ATOM      6  N   UNL     1      -5.508  -0.748   0.201  0.00  0.00    -0.243 NA
ATOM      7  N   UNL     1      -4.758   1.542   0.206  0.00  0.00    -0.243 NA
ATOM     21  C   UNL     1      -3.186  -0.240  -0.145  0.00  0.00    +0.024 A 
ATOM     24  C   UNL     1      -4.233  -1.126  -0.025  0.00  0.00    +0.122 A 
ATOM     25  C   UNL     1      -3.506   1.094  -0.020  0.00  0.00    +0.122 A 
ATOM     26  C   UNL     1      -5.697   0.582   0.305  0.00  0.00    +0.221 A 
ENDBRANCH  18  21
BRANCH  17  20
ATOM     20  C   UNL     1       2.098   2.185  -0.824  0.00  0.00    +0.180 C 
BRANCH  20   5
ATOM      5  N   UNL     1       1.505   3.281  -0.090  0.00  0.00    -0.300 NA
ATOM     22  C   UNL     1       0.773   2.794   1.085  0.00  0.00    +0.105 C 
ATOM     23  C   UNL     1       0.607   4.065  -0.947  0.00  0.00    +0.105 C 
ENDBRANCH  20   5
ENDBRANCH  17  20
TORSDOF 3
