REMARK  Name = 28959726
REMARK  9 active torsions:
REMARK  status: ('A' for Active; 'I' for Inactive)
REMARK    1  A    between atoms: O_2  and  C_21
REMARK    2  A    between atoms: O_4  and  C_27
REMARK    3  A    between atoms: O_4  and  C_28
REMARK    4  A    between atoms: N_6  and  C_13
REMARK    5  A    between atoms: C_7  and  C_10
REMARK    6  A    between atoms: C_8  and  C_14
REMARK    7  A    between atoms: C_10  and  C_13
REMARK    8  A    between atoms: C_14  and  C_21
REMARK    9  A    between atoms: C_20  and  C_22
REMARK                            x       y       z     vdW  Elec       q    Type
REMARK                         _______ _______ _______ _____ _____    ______ ____
ROOT
ATOM      1  O   UNL     1      -0.125   3.276   2.008  0.00  0.00    -0.270 OA
ATOM      5  N   UNL     1       0.966   2.265   0.202  0.00  0.00    -0.297 N 
ATOM      7  C   UNL     1       1.771   0.214  -0.948  0.00  0.00    +0.011 C 
ATOM      8  C   UNL     1       3.205   0.557  -0.470  0.00  0.00    +0.006 C 
ATOM      9  C   UNL     1       0.932   1.501  -1.053  0.00  0.00    +0.112 C 
ATOM     11  C   UNL     1       3.187   1.396   0.819  0.00  0.00    +0.023 C 
ATOM     12  C   UNL     1       2.304   2.631   0.662  0.00  0.00    +0.108 C 
ATOM     20  C   UNL     1      -0.149   2.642   0.955  0.00  0.00    +0.247 C 
ENDROOT
BRANCH  20  22
ATOM     22  C   UNL     1      -1.476   2.257   0.462  0.00  0.00    +0.037 A 
ATOM     23  C   UNL     1      -2.037   1.040   0.849  0.00  0.00    +0.016 A 
ATOM     24  C   UNL     1      -2.176   3.107  -0.395  0.00  0.00    +0.016 A 
ATOM     25  C   UNL     1      -3.298   0.673   0.379  0.00  0.00    +0.046 A 
ATOM     26  C   UNL     1      -3.436   2.740  -0.865  0.00  0.00    +0.046 A 
ATOM     27  C   UNL     1      -3.998   1.522  -0.478  0.00  0.00    +0.120 A 
BRANCH  27   4
ATOM      4  O   UNL     1      -5.228   1.165  -0.937  0.00  0.00    -0.495 OA
ATOM     28  C   UNL     1      -5.743  -0.093  -0.501  0.00  0.00    +0.277 C 
ENDBRANCH  27   4
ENDBRANCH  20  22
BRANCH   7  10
ATOM     10  C   UNL     1       1.053  -0.819  -0.071  0.00  0.00    +0.020 C 
BRANCH  10  13
ATOM     13  C   UNL     1      -0.004  -1.568  -0.869  0.00  0.00    +0.085 C 
BRANCH  13   6
ATOM      6  N   UNL     1      -0.686  -2.534  -0.008  0.00  0.00    -0.302 NA
ATOM     15  C   UNL     1      -1.997  -2.889  -0.570  0.00  0.00    +0.084 C 
ATOM     16  C   UNL     1       0.149  -3.727   0.186  0.00  0.00    +0.084 C 
ATOM     17  C   UNL     1      -2.744  -3.861   0.344  0.00  0.00    +0.015 C 
ATOM     18  C   UNL     1      -0.528  -4.728   1.125  0.00  0.00    +0.015 C 
ATOM     19  C   UNL     1      -1.914  -5.110   0.621  0.00  0.00    +0.002 C 
ENDBRANCH  13   6
ENDBRANCH  10  13
ENDBRANCH   7  10
BRANCH   8  14
ATOM     14  C   UNL     1       4.092  -0.676  -0.298  0.00  0.00    +0.124 C 
BRANCH  14  21
ATOM      3  O   UNL     1       6.024   0.789  -0.547  0.00  0.00    -0.251 OA
ATOM     21  C   UNL     1       5.552  -0.325  -0.375  0.00  0.00    +0.305 C 
BRANCH  21   2
ATOM      2  O   UNL     1       6.301  -1.447  -0.223  0.00  0.00    -0.481 OA
ATOM     29  H   UNL     1       7.262  -1.254  -0.268  0.00  0.00    +0.295 HD
ENDBRANCH  21   2
ENDBRANCH  14  21
ENDBRANCH   8  14
TORSDOF 8
