REMARK  Name = 75368689
REMARK  5 active torsions:
REMARK  status: ('A' for Active; 'I' for Inactive)
REMARK    1  A    between atoms: N_4  and  C_12
REMARK    2  A    between atoms: N_5  and  C_13
REMARK    3  A    between atoms: C_12  and  C_14
REMARK    4  A    between atoms: C_13  and  C_15
REMARK    5  A    between atoms: C_24  and  C_26
REMARK                            x       y       z     vdW  Elec       q    Type
REMARK                         _______ _______ _______ _____ _____    ______ ____
ROOT
ATOM      2  O   UNL     1       2.249   3.049   0.087  0.00  0.00    -0.252 OA
ATOM      3  N   UNL     1       0.191   1.931  -0.099  0.00  0.00    -0.278 N 
ATOM      4  N   UNL     1      -2.249   0.775   0.688  0.00  0.00    -0.295 NA
ATOM      5  N   UNL     1       1.956   1.104  -1.214  0.00  0.00    -0.279 N 
ATOM      6  C   UNL     1      -0.352   0.838  -0.878  0.00  0.00    +0.109 C 
ATOM      7  C   UNL     1      -1.238  -0.049  -0.004  0.00  0.00    +0.109 C 
ATOM      8  C   UNL     1       0.887   0.147  -1.445  0.00  0.00    +0.133 C 
ATOM      9  C   UNL     1      -0.696   2.715   0.736  0.00  0.00    +0.125 C 
ATOM     10  C   UNL     1      -1.604   1.788   1.548  0.00  0.00    +0.104 C 
ATOM     11  C   UNL     1       1.552   2.146  -0.355  0.00  0.00    +0.305 C 
ENDROOT
BRANCH   4  12
ATOM     12  C   UNL     1      -3.141  -0.072   1.480  0.00  0.00    +0.121 C 
BRANCH  12  14
ATOM      1 CL   UNL     1      -5.514   1.579   0.402  0.00  0.00    -0.083 Cl
ATOM     14  C   UNL     1      -4.156  -0.773   0.625  0.00  0.00    -0.015 A 
ATOM     16  C   UNL     1      -5.259  -0.100   0.098  0.00  0.00    +0.045 A 
ATOM     17  C   UNL     1      -3.976  -2.131   0.362  0.00  0.00    +0.006 A 
ATOM     22  C   UNL     1      -6.181  -0.786  -0.692  0.00  0.00    +0.020 A 
ATOM     23  C   UNL     1      -4.899  -2.816  -0.428  0.00  0.00    +0.000 A 
ATOM     25  C   UNL     1      -6.001  -2.144  -0.955  0.00  0.00    +0.001 A 
ENDBRANCH  12  14
ENDBRANCH   4  12
BRANCH   5  13
ATOM     13  C   UNL     1       3.299   0.886  -1.705  0.00  0.00    +0.144 C 
BRANCH  13  15
ATOM     15  C   UNL     1       4.078  -0.041  -0.817  0.00  0.00    -0.030 A 
ATOM     18  C   UNL     1       4.576   0.416   0.403  0.00  0.00    +0.005 A 
ATOM     19  C   UNL     1       4.306  -1.359  -1.214  0.00  0.00    +0.005 A 
ATOM     20  C   UNL     1       5.302  -0.444   1.226  0.00  0.00    +0.003 A 
ATOM     21  C   UNL     1       5.033  -2.219  -0.390  0.00  0.00    +0.003 A 
ATOM     24  C   UNL     1       5.531  -1.761   0.830  0.00  0.00    -0.050 A 
ATOM     26  C   UNL     1       6.308  -2.681   1.710  0.00  0.00    +0.044 C 
ENDBRANCH  13  15
ENDBRANCH   5  13
TORSDOF 4
