REMARK  Name = 40777141
REMARK  6 active torsions:
REMARK  status: ('A' for Active; 'I' for Inactive)
REMARK    1  A    between atoms: N_4  and  C_15
REMARK    2  A    between atoms: N_6  and  C_18
REMARK    3  A    between atoms: C_9  and  C_16
REMARK    4  A    between atoms: C_10  and  C_15
REMARK    5  A    between atoms: C_20  and  C_27
REMARK    6  A    between atoms: C_23  and  C_28
REMARK                            x       y       z     vdW  Elec       q    Type
REMARK                         _______ _______ _______ _____ _____    ______ ____
ROOT
ATOM      3  N   UNL     1      -0.456   2.730  -1.154  0.00  0.00    -0.297 NA
ATOM      8  C   UNL     1      -0.017   2.323   1.381  0.00  0.00    +0.002 C 
ATOM      9  C   UNL     1       1.285   2.106   0.561  0.00  0.00    +0.055 C 
ATOM     10  C   UNL     1      -1.482   1.806  -0.603  0.00  0.00    +0.074 C 
ATOM     11  C   UNL     1      -1.121   1.390   0.840  0.00  0.00    +0.024 C 
ATOM     12  C   UNL     1      -0.476   3.772   1.111  0.00  0.00    +0.019 C 
ATOM     13  C   UNL     1       0.901   2.166  -0.945  0.00  0.00    +0.094 C 
ATOM     14  C   UNL     1      -0.547   4.008  -0.408  0.00  0.00    +0.085 C 
ENDROOT
BRANCH   9  16
ATOM      5  N   UNL     1       1.703   0.083   1.872  0.00  0.00    -0.237 NA
ATOM      7  N   UNL     1       3.651  -1.292   1.524  0.00  0.00    -0.232 NA
ATOM     16  C   UNL     1       2.147   0.895   0.890  0.00  0.00    +0.050 A 
ATOM     17  C   UNL     1       3.317   0.682   0.189  0.00  0.00    +0.052 A 
ATOM     20  C   UNL     1       4.035  -0.438   0.553  0.00  0.00    +0.076 A 
ATOM     23  C   UNL     1       2.493  -0.976   2.134  0.00  0.00    +0.127 A 
ATOM     28  C   UNL     1       2.036  -1.895   3.215  0.00  0.00    +0.088 C 
BRANCH  20  27
ATOM      1 BR   UNL     1       3.753  -2.319  -2.019  0.00  0.00    -0.050 Br
ATOM     27  C   UNL     1       5.278  -0.772  -0.102  0.00  0.00    +0.014 A 
ATOM     29  C   UNL     1       5.322  -1.583  -1.236  0.00  0.00    +0.027 A 
ATOM     30  C   UNL     1       6.458  -0.257   0.433  0.00  0.00    +0.011 A 
ATOM     31  C   UNL     1       6.546  -1.878  -1.835  0.00  0.00    +0.016 A 
ATOM     32  C   UNL     1       7.683  -0.552  -0.166  0.00  0.00    +0.001 A 
ATOM     33  C   UNL     1       7.727  -1.363  -1.300  0.00  0.00    +0.001 A 
ENDBRANCH  20  27
ENDBRANCH   9  16
BRANCH  10  15
ATOM     15  C   UNL     1      -1.718   0.592  -1.504  0.00  0.00    +0.124 C 
BRANCH  15   4
ATOM      2  O   UNL     1      -4.507   0.844  -2.155  0.00  0.00    -0.253 OA
ATOM      4  N   UNL     1      -2.789  -0.214  -1.005  0.00  0.00    -0.298 N 
ATOM      6  N   UNL     1      -4.966  -0.943  -0.745  0.00  0.00    -0.297 N 
ATOM     19  C   UNL     1      -4.127  -0.027  -1.372  0.00  0.00    +0.300 C 
ATOM     34  H   UNL     1      -2.570  -0.957  -0.348  0.00  0.00    +0.150 HD
ATOM     35  H   UNL     1      -4.557  -1.571  -0.060  0.00  0.00    +0.151 HD
BRANCH   6  18
ATOM     18  C   UNL     1      -6.398  -0.972  -0.947  0.00  0.00    +0.074 C 
ATOM     21  C   UNL     1      -6.940  -2.402  -0.844  0.00  0.00    +0.022 C 
ATOM     22  C   UNL     1      -7.112  -0.035   0.032  0.00  0.00    +0.022 C 
ATOM     24  C   UNL     1      -6.927  -2.929   0.591  0.00  0.00    +0.002 C 
ATOM     25  C   UNL     1      -7.099  -0.567   1.466  0.00  0.00    +0.002 C 
ATOM     26  C   UNL     1      -7.653  -1.986   1.545  0.00  0.00    +0.000 C 
ENDBRANCH   6  18
ENDBRANCH  15   4
ENDBRANCH  10  15
TORSDOF 5
