REMARK  Name = 38030342
REMARK  11 active torsions:
REMARK  status: ('A' for Active; 'I' for Inactive)
REMARK    1  A    between atoms: N_2  and  C_12
REMARK    2  A    between atoms: N_2  and  C_18
REMARK    3  A    between atoms: C_5  and  C_9
REMARK    4  A    between atoms: C_6  and  C_12
REMARK    5  A    between atoms: C_8  and  C_13
REMARK    6  A    between atoms: C_9  and  C_14
REMARK    7  A    between atoms: C_9  and  C_15
REMARK    8  A    between atoms: C_10  and  C_16
REMARK    9  A    between atoms: C_13  and  C_17
REMARK   10  A    between atoms: C_18  and  C_20
REMARK   11  A    between atoms: C_19  and  C_21
REMARK                            x       y       z     vdW  Elec       q    Type
REMARK                         _______ _______ _______ _____ _____    ______ ____
ROOT
ATOM      5  C   UNL     1       1.610   0.212  -1.318  0.00  0.00    +0.000 C 
ATOM      6  C   UNL     1       3.145   0.415  -1.290  0.00  0.00    +0.029 C 
ATOM      7  C   UNL     1       0.888   1.553  -1.113  0.00  0.00    +0.012 C 
ATOM      8  C   UNL     1       1.268   2.221   0.222  0.00  0.00    +0.024 C 
ATOM     10  C   UNL     1       2.766   2.218   0.446  0.00  0.00    -0.073 C 
ATOM     11  C   UNL     1       3.591   1.414  -0.248  0.00  0.00    -0.023 C 
ATOM     16  C   UNL     1       3.301   3.194   1.457  0.00  0.00    +0.039 C 
ENDROOT
BRANCH   5   9
ATOM      9  C   UNL     1       1.145  -0.432  -2.628  0.00  0.00    -0.013 C 
ATOM     14  C   UNL     1      -0.183  -1.155  -2.424  0.00  0.00    +0.007 C 
ATOM     15  C   UNL     1       1.024   0.620  -3.725  0.00  0.00    +0.007 C 
ENDBRANCH   5   9
BRANCH   6  12
ATOM     12  C   UNL     1       3.875  -0.914  -1.069  0.00  0.00    +0.089 C 
BRANCH  12   2
ATOM      2  N   UNL     1       3.561  -1.460   0.240  0.00  0.00    -0.305 NA
ATOM     28  H   UNL     1       3.838  -0.804   0.970  0.00  0.00    +0.123 HD
BRANCH   2  18
ATOM     18  C   UNL     1       4.242  -2.731   0.457  0.00  0.00    +0.170 C 
BRANCH  18  20
ATOM     20  C   UNL     1       3.910  -3.285   1.773  0.00  0.00    -0.090 C 
ATOM     24  C   UNL     1       3.641  -3.745   2.849  0.00  0.00    +0.005 C 
ENDBRANCH  18  20
ENDBRANCH   2  18
ENDBRANCH  12   2
ENDBRANCH   6  12
BRANCH   8  13
ATOM     13  C   UNL     1       0.535   1.563   1.396  0.00  0.00    +0.105 C 
BRANCH  13  17
ATOM      1  O   UNL     1      -1.546   0.427   0.820  0.00  0.00    -0.420 OA
ATOM      3  N   UNL     1      -1.796   2.588   1.341  0.00  0.00    -0.112 NA
ATOM      4  N   UNL     1      -3.044   2.075   1.038  0.00  0.00    -0.107 NA
ATOM     17  C   UNL     1      -0.954   1.592   1.200  0.00  0.00    +0.218 A 
ATOM     19  C   UNL     1      -2.850   0.812   0.740  0.00  0.00    +0.248 A 
BRANCH  19  21
ATOM     21  C   UNL     1      -3.782  -0.207   0.351  0.00  0.00    +0.038 A 
ATOM     22  C   UNL     1      -5.139   0.095   0.243  0.00  0.00    +0.013 A 
ATOM     23  C   UNL     1      -3.330  -1.498   0.080  0.00  0.00    +0.013 A 
ATOM     25  C   UNL     1      -6.046  -0.895  -0.135  0.00  0.00    +0.001 A 
ATOM     26  C   UNL     1      -4.237  -2.489  -0.298  0.00  0.00    +0.001 A 
ATOM     27  C   UNL     1      -5.595  -2.187  -0.406  0.00  0.00    +0.000 A 
ENDBRANCH  19  21
ENDBRANCH  13  17
ENDBRANCH   8  13
TORSDOF 8
