REMARK  Name = 26743242
REMARK  9 active torsions:
REMARK  status: ('A' for Active; 'I' for Inactive)
REMARK    1  A    between atoms: N_5  and  C_24
REMARK    2  A    between atoms: N_5  and  C_25
REMARK    3  A    between atoms: C_6  and  C_10
REMARK    4  A    between atoms: C_7  and  C_13
REMARK    5  A    between atoms: C_10  and  C_20
REMARK    6  A    between atoms: C_11  and  C_16
REMARK    7  A    between atoms: C_13  and  C_22
REMARK    8  A    between atoms: C_16  and  C_21
REMARK    9  A    between atoms: C_24  and  C_26
REMARK                            x       y       z     vdW  Elec       q    Type
REMARK                         _______ _______ _______ _____ _____    ______ ____
ROOT
ATOM      3  N   UNL     1       5.730   0.047  -0.928  0.00  0.00    -0.316 NA
ATOM      6  C   UNL     1       3.727   0.817   0.321  0.00  0.00    +0.012 C 
ATOM      7  C   UNL     1       2.794   0.032  -0.632  0.00  0.00    +0.004 C 
ATOM      8  C   UNL     1       3.505  -0.165  -1.981  0.00  0.00    +0.019 C 
ATOM      9  C   UNL     1       5.126   0.182   0.397  0.00  0.00    +0.085 C 
ATOM     12  C   UNL     1       4.903  -0.761  -1.823  0.00  0.00    +0.081 C 
ATOM     32  H   UNL     1       6.650  -0.384  -0.838  0.00  0.00    +0.122 HD
ENDROOT
BRANCH   6  10
ATOM     10  C   UNL     1       3.141   0.995   1.722  0.00  0.00    +0.064 C 
BRANCH  10  20
ATOM      1  O   UNL     1       0.419   3.350   1.677  0.00  0.00    -0.359 OA
ATOM      4  N   UNL     1       1.770   3.033   1.751  0.00  0.00    -0.083 NA
ATOM     20  C   UNL     1       1.816   1.700   1.675  0.00  0.00    +0.084 A 
ATOM     21  C   UNL     1      -0.304   2.207   1.560  0.00  0.00    +0.138 A 
ATOM     23  C   UNL     1       0.538   1.127   1.554  0.00  0.00    +0.071 A 
BRANCH  21  16
ATOM     16  C   UNL     1      -1.761   2.360   1.469  0.00  0.00    +0.080 C 
BRANCH  16  11
ATOM     11  C   UNL     1      -2.296   2.189   0.048  0.00  0.00    -0.004 C 
ATOM     14  C   UNL     1      -3.825   2.319   0.025  0.00  0.00    +0.004 C 
ATOM     15  C   UNL     1      -1.647   3.206  -0.901  0.00  0.00    +0.004 C 
ATOM     17  C   UNL     1      -4.379   2.205  -1.393  0.00  0.00    +0.000 C 
ATOM     18  C   UNL     1      -2.205   3.091  -2.317  0.00  0.00    +0.000 C 
ATOM     19  C   UNL     1      -3.726   3.211  -2.335  0.00  0.00    +0.000 C 
ENDBRANCH  16  11
ENDBRANCH  21  16
ENDBRANCH  10  20
ENDBRANCH   6  10
BRANCH   7  13
ATOM     13  C   UNL     1       2.314  -1.311  -0.068  0.00  0.00    +0.100 C 
BRANCH  13  22
ATOM      2  O   UNL     1       0.522  -1.151  -1.652  0.00  0.00    -0.276 OA
ATOM      5  N   UNL     1       0.551  -3.033  -0.296  0.00  0.00    -0.300 N 
ATOM     22  C   UNL     1       1.052  -1.808  -0.752  0.00  0.00    +0.216 C 
ATOM     25  C   UNL     1       1.194  -3.792   0.769  0.00  0.00    +0.132 C 
BRANCH   5  24
ATOM     24  C   UNL     1      -0.653  -3.643  -0.853  0.00  0.00    +0.142 C 
BRANCH  24  26
ATOM     26  C   UNL     1      -1.896  -3.172  -0.155  0.00  0.00    -0.030 A 
ATOM     27  C   UNL     1      -2.376  -3.864   0.957  0.00  0.00    +0.005 A 
ATOM     28  C   UNL     1      -2.571  -2.042  -0.618  0.00  0.00    +0.005 A 
ATOM     29  C   UNL     1      -3.531  -3.427   1.606  0.00  0.00    +0.000 A 
ATOM     30  C   UNL     1      -3.726  -1.605   0.031  0.00  0.00    +0.000 A 
ATOM     31  C   UNL     1      -4.206  -2.297   1.143  0.00  0.00    +0.000 A 
ENDBRANCH  24  26
ENDBRANCH   5  24
ENDBRANCH  13  22
ENDBRANCH   7  13
TORSDOF 8
