REMARK  Name = 45783818
REMARK  8 active torsions:
REMARK  status: ('A' for Active; 'I' for Inactive)
REMARK    1  A    between atoms: N_5  and  C_14
REMARK    2  A    between atoms: N_9  and  C_28
REMARK    3  A    between atoms: N_9  and  C_29
REMARK    4  A    between atoms: N_9  and  C_30
REMARK    5  A    between atoms: C_10  and  C_15
REMARK    6  A    between atoms: C_14  and  C_16
REMARK    7  A    between atoms: C_19  and  C_23
REMARK    8  A    between atoms: C_22  and  C_24
REMARK                            x       y       z     vdW  Elec       q    Type
REMARK                         _______ _______ _______ _____ _____    ______ ____
ROOT
ATOM      5  N   UNL     1      -3.860  -0.506  -0.800  0.00  0.00    -0.287 NA
ATOM     10  C   UNL     1      -3.602  -1.343   0.389  0.00  0.00    +0.146 C 
ATOM     11  C   UNL     1      -4.214  -2.713   0.043  0.00  0.00    +0.030 C 
ATOM     12  C   UNL     1      -4.845  -2.531  -1.331  0.00  0.00    +0.017 C 
ATOM     13  C   UNL     1      -5.072  -1.036  -1.424  0.00  0.00    +0.085 C 
ENDROOT
BRANCH  10  15
ATOM      4  O   UNL     1      -1.824  -1.653   2.037  0.00  0.00    -0.336 OA
ATOM      6  N   UNL     1      -1.087  -1.321  -0.052  0.00  0.00    -0.190 NA
ATOM      7  N   UNL     1      -0.425  -1.693   2.106  0.00  0.00    -0.056 NA
ATOM     15  C   UNL     1      -2.130  -1.431   0.732  0.00  0.00    +0.245 A 
ATOM     19  C   UNL     1      -0.064  -1.489   0.836  0.00  0.00    +0.204 A 
BRANCH  19  23
ATOM      8  N   UNL     1       3.649  -1.595   1.008  0.00  0.00    -0.240 NA
ATOM     23  C   UNL     1       1.308  -1.449   0.420  0.00  0.00    +0.041 A 
ATOM     25  C   UNL     1       1.648  -1.237  -0.911  0.00  0.00    +0.016 A 
ATOM     26  C   UNL     1       2.336  -1.621   1.333  0.00  0.00    +0.124 A 
ATOM     27  C   UNL     1       2.987  -1.203  -1.284  0.00  0.00    +0.044 A 
ATOM     28  C   UNL     1       3.941  -1.386  -0.295  0.00  0.00    +0.121 A 
BRANCH  28   9
ATOM      9  N   UNL     1       5.300  -1.350  -0.691  0.00  0.00    -0.321 N 
ATOM     29  C   UNL     1       6.348  -1.525   0.290  0.00  0.00    +0.130 C 
ATOM     30  C   UNL     1       5.649  -1.129  -2.077  0.00  0.00    +0.130 C 
ENDBRANCH  28   9
ENDBRANCH  19  23
ENDBRANCH  10  15
BRANCH   5  14
ATOM     14  C   UNL     1      -3.978   0.913  -0.488  0.00  0.00    +0.120 C 
BRANCH  14  16
ATOM     16  C   UNL     1      -2.632   1.562  -0.309  0.00  0.00    -0.033 A 
ATOM     17  C   UNL     1      -2.315   2.190   0.896  0.00  0.00    +0.005 A 
ATOM     18  C   UNL     1      -1.700   1.535  -1.347  0.00  0.00    +0.005 A 
ATOM     20  C   UNL     1      -1.068   2.791   1.062  0.00  0.00    +0.012 A 
ATOM     21  C   UNL     1      -0.453   2.137  -1.181  0.00  0.00    +0.012 A 
ATOM     22  C   UNL     1      -0.137   2.764   0.024  0.00  0.00    +0.055 A 
BRANCH  22  24
ATOM      1  F   UNL     1       2.244   2.536   0.069  0.00  0.00    -0.166 F 
ATOM      2  F   UNL     1       1.348   3.970   1.437  0.00  0.00    -0.166 F 
ATOM      3  F   UNL     1       1.450   4.406  -0.691  0.00  0.00    -0.166 F 
ATOM     24  C   UNL     1       1.198   3.405   0.203  0.00  0.00    +0.417 C 
ENDBRANCH  22  24
ENDBRANCH  14  16
ENDBRANCH   5  14
TORSDOF 6
