REMARK  Name = 71693294
REMARK  9 active torsions:
REMARK  status: ('A' for Active; 'I' for Inactive)
REMARK    1  A    between atoms: O_2  and  C_10
REMARK    2  A    between atoms: N_6  and  C_12
REMARK    3  A    between atoms: N_7  and  C_20
REMARK    4  A    between atoms: C_8  and  C_10
REMARK    5  A    between atoms: C_9  and  C_11
REMARK    6  A    between atoms: C_12  and  C_15
REMARK    7  A    between atoms: C_26  and  C_27
REMARK    8  A    between atoms: C_28  and  C_31
REMARK    9  A    between atoms: C_30  and  C_32
REMARK                            x       y       z     vdW  Elec       q    Type
REMARK                         _______ _______ _______ _____ _____    ______ ____
ROOT
ATOM      1  O   UNL     1       3.075  -1.738  -1.810  0.00  0.00    -0.361 OA
ATOM      3  O   UNL     1       5.461   0.713  -1.716  0.00  0.00    -0.273 OA
ATOM      6  N   UNL     1       4.217  -0.148   0.060  0.00  0.00    -0.287 N 
ATOM      8  C   UNL     1       3.553  -1.335   0.611  0.00  0.00    +0.135 C 
ATOM      9  C   UNL     1       2.723  -2.082  -0.466  0.00  0.00    +0.171 C 
ATOM     13  C   UNL     1       4.767  -0.171  -1.219  0.00  0.00    +0.242 C 
ATOM     14  C   UNL     1       4.444  -1.435  -1.980  0.00  0.00    +0.256 C 
ENDROOT
BRANCH   9  11
ATOM     11  C   UNL     1       1.240  -1.803  -0.308  0.00  0.00    -0.017 A 
ATOM     16  C   UNL     1       0.656  -0.731  -0.983  0.00  0.00    +0.008 A 
ATOM     17  C   UNL     1       0.460  -2.619   0.512  0.00  0.00    +0.008 A 
ATOM     18  C   UNL     1      -0.708  -0.474  -0.838  0.00  0.00    +0.023 A 
ATOM     19  C   UNL     1      -0.903  -2.362   0.657  0.00  0.00    +0.023 A 
ATOM     20  C   UNL     1      -1.487  -1.290  -0.018  0.00  0.00    +0.034 A 
BRANCH  20   7
ATOM      5  O   UNL     1      -3.195   0.854  -1.232  0.00  0.00    -0.270 OA
ATOM      7  N   UNL     1      -2.851  -1.034   0.127  0.00  0.00    -0.281 N 
ATOM     26  C   UNL     1      -3.604  -0.013  -0.467  0.00  0.00    +0.252 C 
ATOM     34  H   UNL     1      -3.336  -1.682   0.742  0.00  0.00    +0.155 HD
BRANCH  26  27
ATOM      4  O   UNL     1      -7.216   0.600  -0.114  0.00  0.00    -0.464 OA
ATOM     27  C   UNL     1      -5.054  -0.017  -0.138  0.00  0.00    +0.078 A 
ATOM     28  C   UNL     1      -5.981   0.886  -0.605  0.00  0.00    +0.114 A 
ATOM     29  C   UNL     1      -5.764  -0.916   0.693  0.00  0.00    +0.057 A 
ATOM     30  C   UNL     1      -7.075  -0.498   0.675  0.00  0.00    +0.103 A 
ATOM     31  C   UNL     1      -5.898   2.054  -1.495  0.00  0.00    +0.087 C 
ATOM     32  C   UNL     1      -8.298  -0.996   1.319  0.00  0.00    +0.086 C 
ENDBRANCH  26  27
ENDBRANCH  20   7
ENDBRANCH   9  11
BRANCH   8  10
ATOM     10  C   UNL     1       4.574  -2.270   1.271  0.00  0.00    +0.181 C 
BRANCH  10   2
ATOM      2  O   UNL     1       4.964  -1.698   2.502  0.00  0.00    -0.393 OA
ATOM     33  H   UNL     1       5.606  -2.304   2.912  0.00  0.00    +0.209 HD
ENDBRANCH  10   2
ENDBRANCH   8  10
BRANCH   6  12
ATOM     12  C   UNL     1       4.402   1.000   0.935  0.00  0.00    +0.143 C 
BRANCH  12  15
ATOM     15  C   UNL     1       3.286   1.996   0.798  0.00  0.00    -0.030 A 
ATOM     21  C   UNL     1       3.381   3.025  -0.139  0.00  0.00    +0.005 A 
ATOM     22  C   UNL     1       2.155   1.892   1.608  0.00  0.00    +0.005 A 
ATOM     23  C   UNL     1       2.344   3.950  -0.266  0.00  0.00    +0.000 A 
ATOM     24  C   UNL     1       1.119   2.816   1.480  0.00  0.00    +0.000 A 
ATOM     25  C   UNL     1       1.213   3.845   0.543  0.00  0.00    +0.000 A 
ENDBRANCH  12  15
ENDBRANCH   6  12
TORSDOF 7
