REMARK  Name = 25389060
REMARK  8 active torsions:
REMARK  status: ('A' for Active; 'I' for Inactive)
REMARK    1  A    between atoms: O_2  and  C_30
REMARK    2  A    between atoms: O_2  and  C_31
REMARK    3  A    between atoms: N_4  and  C_23
REMARK    4  A    between atoms: N_5  and  C_15
REMARK    5  A    between atoms: C_8  and  C_14
REMARK    6  A    between atoms: C_9  and  C_15
REMARK    7  A    between atoms: C_17  and  C_18
REMARK    8  A    between atoms: C_24  and  C_25
REMARK                            x       y       z     vdW  Elec       q    Type
REMARK                         _______ _______ _______ _____ _____    ______ ____
ROOT
ATOM      3  N   UNL     1      -1.034  -3.344  -0.486  0.00  0.00    -0.297 NA
ATOM      7  C   UNL     1      -1.735  -1.945   1.596  0.00  0.00    +0.002 C 
ATOM      8  C   UNL     1      -2.858  -1.922   0.522  0.00  0.00    +0.055 C 
ATOM      9  C   UNL     1       0.051  -2.396  -0.123  0.00  0.00    +0.074 C 
ATOM     10  C   UNL     1      -0.424  -1.419   0.974  0.00  0.00    +0.024 C 
ATOM     11  C   UNL     1      -2.290  -2.601  -0.757  0.00  0.00    +0.094 C 
ATOM     12  C   UNL     1      -1.500  -3.426   1.963  0.00  0.00    +0.019 C 
ATOM     13  C   UNL     1      -1.266  -4.236   0.675  0.00  0.00    +0.085 C 
ENDROOT
BRANCH   8  14
ATOM      4  N   UNL     1      -4.835  -0.495  -0.183  0.00  0.00    -0.271 N 
ATOM      6  N   UNL     1      -5.242   0.767  -0.400  0.00  0.00    -0.176 NA
ATOM     14  C   UNL     1      -3.535  -0.593   0.219  0.00  0.00    +0.044 A 
ATOM     16  C   UNL     1      -3.059   0.694   0.268  0.00  0.00    +0.048 A 
ATOM     18  C   UNL     1      -4.153   1.489  -0.122  0.00  0.00    +0.066 A 
ATOM     23  C   UNL     1      -5.765  -1.581  -0.387  0.00  0.00    +0.172 C 
BRANCH  18  17
ATOM     17  C   UNL     1      -4.199   2.996  -0.246  0.00  0.00    +0.040 C 
ATOM     19  C   UNL     1      -3.911   3.706   1.088  0.00  0.00    +0.010 C 
ATOM     20  C   UNL     1      -3.194   3.585  -1.258  0.00  0.00    +0.010 C 
ATOM     21  C   UNL     1      -3.140   4.959   0.701  0.00  0.00    +0.001 C 
ATOM     22  C   UNL     1      -2.267   4.483  -0.446  0.00  0.00    +0.001 C 
ENDBRANCH  18  17
ENDBRANCH   8  14
BRANCH   9  15
ATOM     15  C   UNL     1       0.612  -1.657  -1.340  0.00  0.00    +0.123 C 
BRANCH  15   5
ATOM      1  O   UNL     1       3.373  -2.443  -1.314  0.00  0.00    -0.270 OA
ATOM      5  N   UNL     1       1.728  -0.842  -0.973  0.00  0.00    -0.310 N 
ATOM     24  C   UNL     1       3.042  -1.305  -0.989  0.00  0.00    +0.244 C 
ATOM     32  H   UNL     1       1.519   0.091  -0.635  0.00  0.00    +0.149 HD
BRANCH  24  25
ATOM     25  C   UNL     1       4.087  -0.342  -0.555  0.00  0.00    +0.037 A 
ATOM     26  C   UNL     1       5.279  -0.809  -0.001  0.00  0.00    +0.016 A 
ATOM     27  C   UNL     1       3.874   1.029  -0.698  0.00  0.00    +0.016 A 
ATOM     28  C   UNL     1       6.259   0.095   0.409  0.00  0.00    +0.046 A 
ATOM     29  C   UNL     1       4.854   1.933  -0.288  0.00  0.00    +0.046 A 
ATOM     30  C   UNL     1       6.046   1.466   0.265  0.00  0.00    +0.120 A 
BRANCH  30   2
ATOM      2  O   UNL     1       7.002   2.349   0.665  0.00  0.00    -0.495 OA
ATOM     31  C   UNL     1       8.197   1.804   1.222  0.00  0.00    +0.277 C 
ENDBRANCH  30   2
ENDBRANCH  24  25
ENDBRANCH  15   5
ENDBRANCH   9  15
TORSDOF 6
