REMARK  Name = 7156243
REMARK  6 active torsions:
REMARK  status: ('A' for Active; 'I' for Inactive)
REMARK    1  A    between atoms: O_3  and  C_22
REMARK    2  A    between atoms: O_3  and  C_24
REMARK    3  A    between atoms: N_7  and  C_20
REMARK    4  A    between atoms: N_8  and  C_27
REMARK    5  A    between atoms: C_19  and  C_22
REMARK    6  A    between atoms: C_33  and  C_36
REMARK                            x       y       z     vdW  Elec       q    Type
REMARK                         _______ _______ _______ _____ _____    ______ ____
ROOT
ATOM      1  O   UNL     1      -0.095   3.008   1.679  0.00  0.00    -0.266 OA
ATOM      2  O   UNL     1      -4.199  -0.388   2.227  0.00  0.00    -0.272 OA
ATOM      5  N   UNL     1      -4.465   0.928   0.331  0.00  0.00    -0.298 N 
ATOM      6  N   UNL     1      -1.836   2.739   0.144  0.00  0.00    -0.310 N 
ATOM     10  C   UNL     1      -4.255   3.395   0.664  0.00  0.00    +0.027 C 
ATOM     11  C   UNL     1      -3.701   2.407  -1.518  0.00  0.00    +0.054 C 
ATOM     12  C   UNL     1      -4.377   3.597  -0.841  0.00  0.00    +0.018 C 
ATOM     13  C   UNL     1      -4.943   2.086   1.089  0.00  0.00    +0.113 C 
ATOM     14  C   UNL     1      -2.772   3.418   1.050  0.00  0.00    +0.130 C 
ATOM     15  C   UNL     1      -4.431   1.107  -1.128  0.00  0.00    +0.117 C 
ATOM     16  C   UNL     1      -2.238   2.314  -1.126  0.00  0.00    +0.027 A 
ATOM     17  C   UNL     1      -1.339   1.800  -1.983  0.00  0.00    +0.024 A 
ATOM     18  C   UNL     1      -0.499   2.632   0.578  0.00  0.00    +0.273 A 
ATOM     19  C   UNL     1      -4.165  -0.258   1.001  0.00  0.00    +0.253 C 
ATOM     20  C   UNL     1       0.466   2.032  -0.397  0.00  0.00    +0.100 A 
ATOM     21  C   UNL     1       0.039   1.656  -1.607  0.00  0.00    +0.030 A 
ENDROOT
BRANCH  20   7
ATOM      4  O   UNL     1       2.285   0.036  -1.290  0.00  0.00    -0.252 OA
ATOM      7  N   UNL     1       1.767   1.899  -0.010  0.00  0.00    -0.265 N 
ATOM      8  N   UNL     1       3.889   1.032   0.105  0.00  0.00    -0.269 N 
ATOM     23  C   UNL     1       2.625   0.896  -0.480  0.00  0.00    +0.308 C 
ATOM     37  H   UNL     1       2.050   2.394   0.831  0.00  0.00    +0.157 HD
ATOM     38  H   UNL     1       4.009   1.803   0.756  0.00  0.00    +0.156 HD
BRANCH   8  27
ATOM     27  C   UNL     1       5.033   0.225  -0.101  0.00  0.00    +0.036 A 
ATOM     31  C   UNL     1       6.219   0.512   0.574  0.00  0.00    +0.042 A 
ATOM     32  C   UNL     1       4.973  -0.857  -0.979  0.00  0.00    +0.023 A 
ATOM     33  C   UNL     1       7.346  -0.284   0.371  0.00  0.00    +0.054 A 
ATOM     34  C   UNL     1       6.101  -1.652  -1.183  0.00  0.00    +0.003 A 
ATOM     35  C   UNL     1       7.287  -1.366  -0.508  0.00  0.00    +0.019 A 
BRANCH  33  36
ATOM      9  N   UNL     1       9.550   0.247   1.623  0.00  0.00    -0.191 NA
ATOM     36  C   UNL     1       8.562   0.009   1.062  0.00  0.00    +0.099 C 
ENDBRANCH  33  36
ENDBRANCH   8  27
ENDBRANCH  20   7
BRANCH  19  22
ATOM     22  C   UNL     1      -3.769  -1.435   0.146  0.00  0.00    +0.324 C 
BRANCH  22   3
ATOM      3  O   UNL     1      -3.481  -2.494   1.027  0.00  0.00    -0.483 OA
BRANCH   3  24
ATOM     24  C   UNL     1      -3.042  -3.676   0.474  0.00  0.00    +0.121 A 
ATOM     25  C   UNL     1      -2.898  -3.788  -0.909  0.00  0.00    +0.045 A 
ATOM     26  C   UNL     1      -2.741  -4.762   1.296  0.00  0.00    +0.045 A 
ATOM     28  C   UNL     1      -2.453  -4.985  -1.470  0.00  0.00    +0.004 A 
ATOM     29  C   UNL     1      -2.295  -5.959   0.736  0.00  0.00    +0.004 A 
ATOM     30  C   UNL     1      -2.151  -6.070  -0.647  0.00  0.00    +0.000 A 
ENDBRANCH   3  24
ENDBRANCH  22   3
ENDBRANCH  19  22
TORSDOF 6
