REMARK  Name = 11886660
REMARK  5 active torsions:
REMARK  status: ('A' for Active; 'I' for Inactive)
REMARK    1  A    between atoms: O_3  and  C_12
REMARK    2  A    between atoms: O_4  and  C_17
REMARK    3  A    between atoms: O_4  and  C_18
REMARK    4  A    between atoms: N_6  and  C_11
REMARK    5  A    between atoms: C_16  and  C_17
REMARK                            x       y       z     vdW  Elec       q    Type
REMARK                         _______ _______ _______ _____ _____    ______ ____
ROOT
ATOM      1  O   UNL     1       2.577  -0.913   1.107  0.00  0.00    -0.369 OA
ATOM      2  O   UNL     1       2.904   1.593  -0.674  0.00  0.00    -0.369 OA
ATOM      9  C   UNL     1       1.902   0.553  -0.638  0.00  0.00    +0.176 C 
ATOM     10  C   UNL     1       2.625  -0.741  -0.318  0.00  0.00    +0.180 C 
ATOM     11  C   UNL     1       0.982   0.776   0.547  0.00  0.00    +0.166 C 
ATOM     12  C   UNL     1       4.029  -0.464  -0.801  0.00  0.00    +0.171 C 
ATOM     13  C   UNL     1       1.726   0.087   1.686  0.00  0.00    +0.190 C 
ATOM     14  C   UNL     1       4.195   1.001  -0.472  0.00  0.00    +0.194 C 
ENDROOT
BRANCH  11   6
ATOM      6  N   UNL     1      -0.378   0.289   0.300  0.00  0.00    -0.243 N 
ATOM      7  N   UNL     1      -0.592  -0.995  -0.016  0.00  0.00    -0.065 NA
ATOM      8  N   UNL     1      -1.903  -1.142  -0.179  0.00  0.00    -0.123 NA
ATOM     15  C   UNL     1      -1.532   1.002   0.351  0.00  0.00    +0.145 A 
ATOM     16  C   UNL     1      -2.493   0.072   0.042  0.00  0.00    +0.189 A 
BRANCH  16  17
ATOM      5  O   UNL     1      -4.460   1.386   0.151  0.00  0.00    -0.243 OA
ATOM     17  C   UNL     1      -3.902   0.288  -0.047  0.00  0.00    +0.361 C 
BRANCH  17   4
ATOM      4  O   UNL     1      -4.634  -0.838  -0.378  0.00  0.00    -0.463 OA
ATOM     18  C   UNL     1      -6.054  -0.692  -0.484  0.00  0.00    +0.280 C 
ENDBRANCH  17   4
ENDBRANCH  16  17
ENDBRANCH  11   6
BRANCH  12   3
ATOM      3  O   UNL     1       5.008  -1.263  -0.175  0.00  0.00    -0.387 OA
ATOM     19  H   UNL     1       5.878  -0.952  -0.478  0.00  0.00    +0.210 HD
ENDBRANCH  12   3
TORSDOF 4
