REMARK  Name = 45783570
REMARK  9 active torsions:
REMARK  status: ('A' for Active; 'I' for Inactive)
REMARK    1  A    between atoms: O_2  and  C_22
REMARK    2  A    between atoms: O_2  and  C_23
REMARK    3  A    between atoms: O_3  and  C_24
REMARK    4  A    between atoms: O_3  and  C_25
REMARK    5  A    between atoms: N_4  and  C_11
REMARK    6  A    between atoms: C_8  and  C_11
REMARK    7  A    between atoms: C_12  and  C_16
REMARK    8  A    between atoms: C_17  and  C_18
REMARK    9  A    between atoms: C_23  and  C_24
REMARK                            x       y       z     vdW  Elec       q    Type
REMARK                         _______ _______ _______ _____ _____    ______ ____
ROOT
ATOM      1  O   UNL     1      -2.131  -2.163   1.266  0.00  0.00    -0.336 OA
ATOM      5  N   UNL     1      -1.485  -0.540  -0.136  0.00  0.00    -0.190 NA
ATOM      6  N   UNL     1      -0.741  -2.058   1.405  0.00  0.00    -0.056 NA
ATOM     16  C   UNL     1      -2.487  -1.234   0.340  0.00  0.00    +0.245 A 
ATOM     17  C   UNL     1      -0.435  -1.081   0.547  0.00  0.00    +0.204 A 
ENDROOT
BRANCH  17  18
ATOM      7  N   UNL     1       3.255  -0.793   0.908  0.00  0.00    -0.221 NA
ATOM     18  C   UNL     1       0.909  -0.622   0.348  0.00  0.00    +0.041 A 
ATOM     19  C   UNL     1       1.192   0.397  -0.555  0.00  0.00    +0.018 A 
ATOM     20  C   UNL     1       1.967  -1.179   1.049  0.00  0.00    +0.126 A 
ATOM     21  C   UNL     1       2.505   0.822  -0.727  0.00  0.00    +0.068 A 
ATOM     22  C   UNL     1       3.491   0.200   0.022  0.00  0.00    +0.215 A 
BRANCH  22   2
ATOM      2  O   UNL     1       4.793   0.601  -0.130  0.00  0.00    -0.474 OA
BRANCH   2  23
ATOM     23  C   UNL     1       5.765  -0.070   0.663  0.00  0.00    +0.258 C 
BRANCH  23  24
ATOM     24  C   UNL     1       7.137   0.490   0.342  0.00  0.00    +0.200 C 
BRANCH  24   3
ATOM      3  O   UNL     1       7.420   0.265  -1.034  0.00  0.00    -0.380 OA
ATOM     25  C   UNL     1       8.689   0.791  -1.397  0.00  0.00    +0.194 C 
ENDBRANCH  24   3
ENDBRANCH  23  24
ENDBRANCH   2  23
ENDBRANCH  22   2
ENDBRANCH  17  18
BRANCH  16  12
ATOM      4  N   UNL     1      -4.360   0.201  -0.452  0.00  0.00    -0.291 NA
ATOM     12  C   UNL     1      -3.962  -1.145   0.007  0.00  0.00    +0.146 C 
ATOM     13  C   UNL     1      -5.490   0.010  -1.361  0.00  0.00    +0.085 C 
ATOM     14  C   UNL     1      -4.370  -2.087  -1.142  0.00  0.00    +0.030 C 
ATOM     15  C   UNL     1      -5.042  -1.190  -2.171  0.00  0.00    +0.017 C 
BRANCH   4  11
ATOM     11  C   UNL     1      -4.683   1.108   0.641  0.00  0.00    +0.088 C 
BRANCH  11   8
ATOM      8  C   UNL     1      -4.567   2.536   0.214  0.00  0.00    +0.003 C 
ATOM      9  C   UNL     1      -3.209   3.169   0.133  0.00  0.00    +0.005 C 
ATOM     10  C   UNL     1      -4.160   3.571   1.222  0.00  0.00    +0.005 C 
ENDBRANCH  11   8
ENDBRANCH   4  11
ENDBRANCH  16  12
TORSDOF 8
