REMARK  Name = 11886192
REMARK  6 active torsions:
REMARK  status: ('A' for Active; 'I' for Inactive)
REMARK    1  A    between atoms: O_3  and  C_17
REMARK    2  A    between atoms: O_3  and  C_20
REMARK    3  A    between atoms: N_5  and  C_13
REMARK    4  A    between atoms: N_6  and  C_14
REMARK    5  A    between atoms: N_9  and  C_19
REMARK    6  A    between atoms: C_19  and  C_21
REMARK                            x       y       z     vdW  Elec       q    Type
REMARK                         _______ _______ _______ _____ _____    ______ ____
ROOT
ATOM      1  O   UNL     1      -0.129  -2.259   1.760  0.00  0.00    -0.370 OA
ATOM      2  O   UNL     1       0.349  -2.487  -1.340  0.00  0.00    -0.370 OA
ATOM     11  C   UNL     1       0.395  -1.398  -0.401  0.00  0.00    +0.176 C 
ATOM     12  C   UNL     1      -0.713  -1.630   0.608  0.00  0.00    +0.171 C 
ATOM     13  C   UNL     1       1.675  -1.468   0.410  0.00  0.00    +0.171 C 
ATOM     14  C   UNL     1      -1.658  -2.584  -0.087  0.00  0.00    +0.131 C 
ATOM     15  C   UNL     1       1.290  -2.365   1.581  0.00  0.00    +0.190 C 
ATOM     16  C   UNL     1      -0.720  -3.373  -0.982  0.00  0.00    +0.185 C 
ENDROOT
BRANCH  14   6
ATOM      4  O   UNL     1      -4.319  -1.839   0.746  0.00  0.00    -0.253 OA
ATOM      6  N   UNL     1      -2.644  -1.871  -0.862  0.00  0.00    -0.292 N 
ATOM      9  N   UNL     1      -4.659  -0.864  -1.332  0.00  0.00    -0.295 N 
ATOM     18  C   UNL     1      -3.912  -1.552  -0.379  0.00  0.00    +0.300 C 
ATOM     32  H   UNL     1      -2.381  -1.529  -1.782  0.00  0.00    +0.151 HD
ATOM     33  H   UNL     1      -4.231  -0.650  -2.228  0.00  0.00    +0.151 HD
BRANCH   9  19
ATOM     19  C   UNL     1      -6.009  -0.413  -1.091  0.00  0.00    +0.141 C 
BRANCH  19  21
ATOM     21  C   UNL     1      -6.044   0.971  -0.510  0.00  0.00    -0.030 A 
ATOM     24  C   UNL     1      -6.017   1.138   0.870  0.00  0.00    +0.005 A 
ATOM     25  C   UNL     1      -6.103   2.072  -1.357  0.00  0.00    +0.005 A 
ATOM     28  C   UNL     1      -6.049   2.424   1.410  0.00  0.00    +0.000 A 
ATOM     29  C   UNL     1      -6.135   3.357  -0.817  0.00  0.00    +0.000 A 
ATOM     31  C   UNL     1      -6.108   3.533   0.567  0.00  0.00    +0.000 A 
ENDBRANCH  19  21
ENDBRANCH   9  19
ENDBRANCH  14   6
BRANCH  13   5
ATOM      5  N   UNL     1       2.178  -0.143   0.782  0.00  0.00    -0.187 N 
ATOM      7  N   UNL     1       1.423   0.704   1.487  0.00  0.00    -0.041 NA
ATOM      8  N   UNL     1       3.406   1.617   1.032  0.00  0.00    -0.071 NA
ATOM     10  N   UNL     1       2.181   1.783   1.639  0.00  0.00    -0.020 NA
ATOM     17  C   UNL     1       3.381   0.414   0.508  0.00  0.00    +0.342 A 
BRANCH  17   3
ATOM      3  O   UNL     1       4.349  -0.169  -0.174  0.00  0.00    -0.423 OA
BRANCH   3  20
ATOM     20  C   UNL     1       5.564   0.452  -0.428  0.00  0.00    +0.132 A 
ATOM     22  C   UNL     1       6.598   0.296   0.475  0.00  0.00    +0.046 A 
ATOM     23  C   UNL     1       5.703   1.209  -1.575  0.00  0.00    +0.046 A 
ATOM     26  C   UNL     1       7.819   0.921   0.221  0.00  0.00    +0.004 A 
ATOM     27  C   UNL     1       6.924   1.834  -1.829  0.00  0.00    +0.004 A 
ATOM     30  C   UNL     1       7.982   1.690  -0.932  0.00  0.00    +0.000 A 
ENDBRANCH   3  20
ENDBRANCH  17   3
ENDBRANCH  13   5
TORSDOF 6
