REMARK  Name = 28961828
REMARK  12 active torsions:
REMARK  status: ('A' for Active; 'I' for Inactive)
REMARK    1  A    between atoms: O_5  and  C_16
REMARK    2  A    between atoms: O_6  and  C_22
REMARK    3  A    between atoms: O_6  and  C_25
REMARK    4  A    between atoms: O_7  and  C_23
REMARK    5  A    between atoms: O_9  and  C_31
REMARK    6  A    between atoms: O_9  and  C_32
REMARK    7  A    between atoms: N_10  and  C_13
REMARK    8  A    between atoms: N_11  and  C_21
REMARK    9  A    between atoms: N_12  and  C_26
REMARK   10  A    between atoms: C_14  and  C_22
REMARK   11  A    between atoms: C_15  and  C_21
REMARK   12  A    between atoms: C_18  and  C_23
REMARK                            x       y       z     vdW  Elec       q    Type
REMARK                         _______ _______ _______ _____ _____    ______ ____
ROOT
ATOM      4  O   UNL     1       2.519  -2.090   0.916  0.00  0.00    -0.365 OA
ATOM     13  C   UNL     1       3.885  -0.209   0.402  0.00  0.00    +0.118 C 
ATOM     15  C   UNL     1       2.459  -0.772   0.327  0.00  0.00    +0.155 C 
ATOM     16  C   UNL     1       4.747  -1.462   0.422  0.00  0.00    +0.165 C 
ATOM     18  C   UNL     1       3.884  -2.384   1.274  0.00  0.00    +0.174 C 
ENDROOT
BRANCH  13  10
ATOM     10  N   UNL     1       4.241   0.772  -0.608  0.00  0.00    -0.289 NA
ATOM     14  C   UNL     1       3.690   2.117  -0.407  0.00  0.00    +0.083 C 
ATOM     17  C   UNL     1       5.685   0.919  -0.778  0.00  0.00    +0.085 C 
ATOM     19  C   UNL     1       4.471   2.908  -1.455  0.00  0.00    +0.022 C 
ATOM     20  C   UNL     1       5.848   2.253  -1.497  0.00  0.00    +0.017 C 
BRANCH  14  22
ATOM     22  C   UNL     1       3.866   2.715   0.992  0.00  0.00    +0.178 C 
BRANCH  22   6
ATOM      6  O   UNL     1       3.402   4.053   0.974  0.00  0.00    -0.381 OA
ATOM     25  C   UNL     1       3.536   4.674   2.248  0.00  0.00    +0.194 C 
ENDBRANCH  22   6
ENDBRANCH  14  22
ENDBRANCH  13  10
BRANCH  16   5
ATOM      5  O   UNL     1       4.911  -2.002  -0.883  0.00  0.00    -0.388 OA
ATOM     33  H   UNL     1       5.553  -2.730  -0.822  0.00  0.00    +0.210 HD
ENDBRANCH  16   5
BRANCH  15  21
ATOM     21  C   UNL     1       1.857  -0.927  -1.065  0.00  0.00    +0.139 C 
BRANCH  21  11
ATOM      8  O   UNL     1      -0.582   0.559  -0.851  0.00  0.00    -0.253 OA
ATOM     11  N   UNL     1       0.531  -1.464  -0.997  0.00  0.00    -0.297 N 
ATOM     12  N   UNL     1      -1.770  -1.466  -0.845  0.00  0.00    -0.269 N 
ATOM     24  C   UNL     1      -0.623  -0.668  -0.892  0.00  0.00    +0.304 C 
ATOM     34  H   UNL     1       0.422  -2.473  -1.012  0.00  0.00    +0.150 HD
ATOM     36  H   UNL     1      -1.628  -2.472  -0.890  0.00  0.00    +0.156 HD
BRANCH  12  26
ATOM     26  C   UNL     1      -3.116  -1.045  -0.741  0.00  0.00    +0.035 A 
ATOM     27  C   UNL     1      -4.141  -1.990  -0.706  0.00  0.00    +0.027 A 
ATOM     28  C   UNL     1      -3.419   0.315  -0.673  0.00  0.00    +0.027 A 
ATOM     29  C   UNL     1      -5.469  -1.575  -0.604  0.00  0.00    +0.048 A 
ATOM     30  C   UNL     1      -4.746   0.730  -0.571  0.00  0.00    +0.048 A 
ATOM     31  C   UNL     1      -5.772  -0.215  -0.536  0.00  0.00    +0.130 A 
BRANCH  31   9
ATOM      9  O   UNL     1      -7.067   0.190  -0.436  0.00  0.00    -0.406 OA
BRANCH   9  32
ATOM      1  F   UNL     1      -8.741   0.676   0.998  0.00  0.00    -0.133 F 
ATOM      2  F   UNL     1      -6.701   0.624   1.780  0.00  0.00    -0.133 F 
ATOM      3  F   UNL     1      -7.351   2.275   0.462  0.00  0.00    -0.133 F 
ATOM     32  C   UNL     1      -7.449   0.950   0.705  0.00  0.00    +0.575 C 
ENDBRANCH   9  32
ENDBRANCH  31   9
ENDBRANCH  12  26
ENDBRANCH  21  11
ENDBRANCH  15  21
BRANCH  18  23
ATOM     23  C   UNL     1       4.139  -3.870   1.093  0.00  0.00    +0.190 C 
BRANCH  23   7
ATOM      7  O   UNL     1       3.273  -4.592   1.954  0.00  0.00    -0.392 OA
ATOM     35  H   UNL     1       3.461  -5.537   1.821  0.00  0.00    +0.210 HD
ENDBRANCH  23   7
ENDBRANCH  18  23
TORSDOF 11
