REMARK  Name = 11911833
REMARK  9 active torsions:
REMARK  status: ('A' for Active; 'I' for Inactive)
REMARK    1  A    between atoms: S_1  and  C_19
REMARK    2  A    between atoms: S_1  and  C_21
REMARK    3  A    between atoms: O_4  and  C_16
REMARK    4  A    between atoms: O_4  and  C_20
REMARK    5  A    between atoms: N_8  and  C_15
REMARK    6  A    between atoms: N_12  and  C_22
REMARK    7  A    between atoms: C_21  and  C_23
REMARK    8  A    between atoms: C_29  and  C_32
REMARK    9  A    between atoms: C_32  and  C_33
REMARK                            x       y       z     vdW  Elec       q    Type
REMARK                         _______ _______ _______ _____ _____    ______ ____
ROOT
ATOM      2  O   UNL     1      -0.065   0.268  -1.740  0.00  0.00    -0.368 OA
ATOM      3  O   UNL     1      -1.556  -2.121  -0.465  0.00  0.00    -0.368 OA
ATOM     13  C   UNL     1      -1.591  -0.701  -0.198  0.00  0.00    +0.177 C 
ATOM     14  C   UNL     1      -0.177  -0.186  -0.382  0.00  0.00    +0.192 C 
ATOM     15  C   UNL     1      -2.394  -0.002  -1.278  0.00  0.00    +0.168 C 
ATOM     16  C   UNL     1       0.660  -1.418  -0.134  0.00  0.00    +0.235 C 
ATOM     17  C   UNL     1      -1.354   0.237  -2.368  0.00  0.00    +0.190 C 
ATOM     18  C   UNL     1      -0.200  -2.511  -0.724  0.00  0.00    +0.207 C 
ENDROOT
BRANCH  15   8
ATOM      8  N   UNL     1      -3.072   1.198  -0.784  0.00  0.00    -0.212 N 
ATOM      9  N   UNL     1      -2.450   2.385  -0.803  0.00  0.00    -0.043 NA
ATOM     10  N   UNL     1      -4.499   2.605   0.046  0.00  0.00    -0.101 NA
ATOM     11  N   UNL     1      -3.327   3.242  -0.295  0.00  0.00    -0.022 NA
ATOM     19  C   UNL     1      -4.320   1.342  -0.265  0.00  0.00    +0.210 A 
BRANCH  19   1
ATOM      1  S   UNL     1      -5.434   0.047  -0.075  0.00  0.00    -0.077 S 
BRANCH   1  21
ATOM     21  C   UNL     1      -6.866   0.901   0.649  0.00  0.00    +0.151 C 
BRANCH  21  23
ATOM      6  O   UNL     1      -9.168   0.214   0.279  0.00  0.00    -0.467 OA
ATOM     23  C   UNL     1      -7.995  -0.054   0.910  0.00  0.00    +0.115 A 
ATOM     26  C   UNL     1      -8.108  -1.189   1.679  0.00  0.00    +0.045 A 
ATOM     30  C   UNL     1      -9.436  -1.647   1.510  0.00  0.00    +0.041 A 
ATOM     31  C   UNL     1     -10.040  -0.760   0.650  0.00  0.00    +0.195 A 
ENDBRANCH  21  23
ENDBRANCH   1  21
ENDBRANCH  19   1
ENDBRANCH  15   8
BRANCH  16   4
ATOM      4  O   UNL     1       1.935  -1.363  -0.734  0.00  0.00    -0.442 OA
BRANCH   4  20
ATOM      5  O   UNL     1       2.814  -0.521   1.202  0.00  0.00    -0.226 OA
ATOM     12  N   UNL     1       4.141  -0.898  -0.689  0.00  0.00    -0.251 N 
ATOM     20  C   UNL     1       2.970  -0.886   0.043  0.00  0.00    +0.405 C 
ATOM     34  H   UNL     1       4.071  -1.240  -1.644  0.00  0.00    +0.158 HD
BRANCH  12  22
ATOM     22  C   UNL     1       5.431  -0.494  -0.275  0.00  0.00    +0.036 A 
ATOM     24  C   UNL     1       6.506  -0.578  -1.160  0.00  0.00    +0.024 A 
ATOM     25  C   UNL     1       5.629  -0.011   1.019  0.00  0.00    +0.024 A 
ATOM     27  C   UNL     1       7.779  -0.180  -0.751  0.00  0.00    +0.013 A 
ATOM     28  C   UNL     1       6.902   0.387   1.427  0.00  0.00    +0.013 A 
ATOM     29  C   UNL     1       7.976   0.303   0.543  0.00  0.00    +0.017 A 
BRANCH  29  32
ATOM      7  O   UNL     1       9.463   1.615   1.820  0.00  0.00    -0.292 OA
ATOM     32  C   UNL     1       9.303   0.718   0.968  0.00  0.00    +0.160 C 
ATOM     33  C   UNL     1      10.543   0.058   0.374  0.00  0.00    +0.091 C 
ENDBRANCH  29  32
ENDBRANCH  12  22
ENDBRANCH   4  20
ENDBRANCH  16   4
TORSDOF 8
