REMARK  Name = 71693646
REMARK  7 active torsions:
REMARK  status: ('A' for Active; 'I' for Inactive)
REMARK    1  A    between atoms: O_2  and  C_10
REMARK    2  A    between atoms: N_5  and  C_13
REMARK    3  A    between atoms: N_6  and  C_18
REMARK    4  A    between atoms: C_7  and  C_10
REMARK    5  A    between atoms: C_8  and  C_9
REMARK    6  A    between atoms: C_19  and  C_20
REMARK    7  A    between atoms: C_21  and  C_24
REMARK                            x       y       z     vdW  Elec       q    Type
REMARK                         _______ _______ _______ _____ _____    ______ ____
ROOT
ATOM      9  C   UNL     1       1.747   0.262  -0.258  0.00  0.00    -0.017 A 
ATOM     14  C   UNL     1       1.211   0.832   0.897  0.00  0.00    +0.008 A 
ATOM     15  C   UNL     1       0.900  -0.253  -1.239  0.00  0.00    +0.008 A 
ATOM     16  C   UNL     1      -0.172   0.887   1.071  0.00  0.00    +0.023 A 
ATOM     17  C   UNL     1      -0.483  -0.197  -1.066  0.00  0.00    +0.023 A 
ATOM     18  C   UNL     1      -1.019   0.372   0.089  0.00  0.00    +0.034 A 
ENDROOT
BRANCH   9   8
ATOM      1  O   UNL     1       3.716   1.551  -0.504  0.00  0.00    -0.361 OA
ATOM      3  O   UNL     1       7.223   1.046  -0.131  0.00  0.00    -0.273 OA
ATOM      5  N   UNL     1       5.467  -0.315   0.574  0.00  0.00    -0.295 N 
ATOM      7  C   UNL     1       4.001  -0.512   0.693  0.00  0.00    +0.134 C 
ATOM      8  C   UNL     1       3.248   0.203  -0.446  0.00  0.00    +0.171 C 
ATOM     11  C   UNL     1       5.056   1.597  -0.933  0.00  0.00    +0.256 C 
ATOM     12  C   UNL     1       6.022   0.768  -0.111  0.00  0.00    +0.242 C 
ATOM     13  C   UNL     1       6.341  -1.143   1.399  0.00  0.00    +0.132 C 
BRANCH   7  10
ATOM     10  C   UNL     1       3.611  -1.996   0.750  0.00  0.00    +0.181 C 
BRANCH  10   2
ATOM      2  O   UNL     1       3.940  -2.587  -0.491  0.00  0.00    -0.393 OA
ATOM     27  H   UNL     1       3.677  -3.522  -0.443  0.00  0.00    +0.209 HD
ENDBRANCH  10   2
ENDBRANCH   7  10
ENDBRANCH   9   8
BRANCH  18   6
ATOM      4  O   UNL     1      -3.235  -0.578  -1.692  0.00  0.00    -0.270 OA
ATOM      6  N   UNL     1      -2.402   0.427   0.263  0.00  0.00    -0.281 N 
ATOM     19  C   UNL     1      -3.400  -0.034  -0.606  0.00  0.00    +0.249 C 
ATOM     28  H   UNL     1      -2.713   0.849   1.136  0.00  0.00    +0.155 HD
BRANCH  19  20
ATOM     20  C   UNL     1      -4.795   0.142  -0.125  0.00  0.00    +0.040 A 
ATOM     21  C   UNL     1      -5.639  -0.953   0.058  0.00  0.00    -0.038 A 
ATOM     22  C   UNL     1      -5.256   1.431   0.144  0.00  0.00    +0.013 A 
ATOM     23  C   UNL     1      -6.944  -0.760   0.510  0.00  0.00    +0.004 A 
ATOM     24  C   UNL     1      -5.171  -2.344  -0.223  0.00  0.00    +0.044 C 
ATOM     25  C   UNL     1      -6.562   1.624   0.597  0.00  0.00    +0.001 A 
ATOM     26  C   UNL     1      -7.406   0.529   0.780  0.00  0.00    +0.000 A 
ENDBRANCH  19  20
ENDBRANCH  18   6
TORSDOF 5
