REMARK  Name = 25338560
REMARK  11 active torsions:
REMARK  status: ('A' for Active; 'I' for Inactive)
REMARK    1  A    between atoms: O_3  and  C_19
REMARK    2  A    between atoms: O_3  and  C_23
REMARK    3  A    between atoms: O_4  and  C_26
REMARK    4  A    between atoms: O_4  and  C_28
REMARK    5  A    between atoms: O_5  and  C_27
REMARK    6  A    between atoms: N_7  and  C_16
REMARK    7  A    between atoms: N_8  and  C_11
REMARK    8  A    between atoms: C_12  and  C_15
REMARK    9  A    between atoms: C_17  and  C_19
REMARK   10  A    between atoms: C_18  and  C_20
REMARK   11  A    between atoms: C_23  and  C_27
REMARK                            x       y       z     vdW  Elec       q    Type
REMARK                         _______ _______ _______ _____ _____    ______ ____
ROOT
ATOM      7  N   UNL     1       0.234   3.452   1.155  0.00  0.00    -0.293 NA
ATOM     11  C   UNL     1       2.143   2.929  -0.076  0.00  0.00    +0.089 C 
ATOM     12  C   UNL     1      -0.261   3.341  -0.231  0.00  0.00    +0.147 C 
ATOM     13  C   UNL     1       0.956   2.847  -1.037  0.00  0.00    +0.052 C 
ATOM     14  C   UNL     1       1.647   3.825   1.048  0.00  0.00    +0.107 C 
ATOM     16  C   UNL     1      -0.522   4.405   1.960  0.00  0.00    +0.105 C 
ENDROOT
BRANCH  12  15
ATOM      1  O   UNL     1      -2.578   2.980  -0.915  0.00  0.00    -0.336 OA
ATOM      9  N   UNL     1      -1.590   1.169  -0.044  0.00  0.00    -0.190 NA
ATOM     10  N   UNL     1      -3.539   1.961  -0.943  0.00  0.00    -0.056 NA
ATOM     15  C   UNL     1      -1.461   2.430  -0.372  0.00  0.00    +0.245 A 
ATOM     18  C   UNL     1      -2.881   0.926  -0.412  0.00  0.00    +0.202 A 
BRANCH  18  20
ATOM     20  C   UNL     1      -3.483  -0.364  -0.239  0.00  0.00    +0.023 A 
ATOM     21  C   UNL     1      -2.747  -1.409   0.319  0.00  0.00    +0.015 A 
ATOM     22  C   UNL     1      -4.806  -0.574  -0.629  0.00  0.00    +0.015 A 
ATOM     24  C   UNL     1      -3.333  -2.664   0.486  0.00  0.00    +0.046 A 
ATOM     25  C   UNL     1      -5.392  -1.828  -0.462  0.00  0.00    +0.046 A 
ATOM     26  C   UNL     1      -4.656  -2.873   0.096  0.00  0.00    +0.120 A 
BRANCH  26   4
ATOM      4  O   UNL     1      -5.228  -4.097   0.259  0.00  0.00    -0.495 OA
ATOM     28  C   UNL     1      -4.419  -5.121   0.836  0.00  0.00    +0.277 C 
ENDBRANCH  26   4
ENDBRANCH  18  20
ENDBRANCH  12  15
BRANCH  11   8
ATOM      2  O   UNL     1       4.113   1.137  -1.203  0.00  0.00    -0.273 OA
ATOM      8  N   UNL     1       2.518   1.625   0.417  0.00  0.00    -0.309 N 
ATOM     17  C   UNL     1       3.479   0.836  -0.195  0.00  0.00    +0.239 C 
ATOM     29  H   UNL     1       2.011   1.253   1.216  0.00  0.00    +0.149 HD
BRANCH  17  19
ATOM     19  C   UNL     1       3.672  -0.477   0.533  0.00  0.00    +0.256 C 
BRANCH  19   3
ATOM      3  O   UNL     1       4.664  -1.257  -0.101  0.00  0.00    -0.359 OA
BRANCH   3  23
ATOM     23  C   UNL     1       4.867  -2.501   0.564  0.00  0.00    +0.280 C 
BRANCH  23  27
ATOM      6  O   UNL     1       6.521  -2.945  -1.160  0.00  0.00    -0.248 OA
ATOM     27  C   UNL     1       5.930  -3.291  -0.148  0.00  0.00    +0.331 C 
BRANCH  27   5
ATOM      5  O   UNL     1       6.152  -4.464   0.496  0.00  0.00    -0.479 OA
ATOM     30  H   UNL     1       6.842  -5.001   0.052  0.00  0.00    +0.295 HD
ENDBRANCH  27   5
ENDBRANCH  23  27
ENDBRANCH   3  23
ENDBRANCH  19   3
ENDBRANCH  17  19
ENDBRANCH  11   8
TORSDOF 9
