REMARK  Name = 71693540
REMARK  10 active torsions:
REMARK  status: ('A' for Active; 'I' for Inactive)
REMARK    1  A    between atoms: O_2  and  C_11
REMARK    2  A    between atoms: O_5  and  C_28
REMARK    3  A    between atoms: O_5  and  C_29
REMARK    4  A    between atoms: N_6  and  C_12
REMARK    5  A    between atoms: N_7  and  C_16
REMARK    6  A    between atoms: N_8  and  C_21
REMARK    7  A    between atoms: C_9  and  C_11
REMARK    8  A    between atoms: C_10  and  C_13
REMARK    9  A    between atoms: C_12  and  C_16
REMARK   10  A    between atoms: C_22  and  C_23
REMARK                            x       y       z     vdW  Elec       q    Type
REMARK                         _______ _______ _______ _____ _____    ______ ____
ROOT
ATOM     13  C   UNL     1       1.677   0.652   0.237  0.00  0.00    -0.017 A 
ATOM     17  C   UNL     1       1.129  -0.474   0.851  0.00  0.00    +0.008 A 
ATOM     18  C   UNL     1       0.844   1.576  -0.395  0.00  0.00    +0.008 A 
ATOM     19  C   UNL     1      -0.251  -0.676   0.834  0.00  0.00    +0.023 A 
ATOM     20  C   UNL     1      -0.536   1.374  -0.412  0.00  0.00    +0.023 A 
ATOM     21  C   UNL     1      -1.083   0.247   0.202  0.00  0.00    +0.034 A 
ENDROOT
BRANCH  13  10
ATOM      1  O   UNL     1       3.557   1.033   1.623  0.00  0.00    -0.361 OA
ATOM      3  O   UNL     1       7.095   0.713   1.359  0.00  0.00    -0.273 OA
ATOM      6  N   UNL     1       5.441  -0.124  -0.054  0.00  0.00    -0.290 N 
ATOM      9  C   UNL     1       3.994  -0.292  -0.332  0.00  0.00    +0.135 C 
ATOM     10  C   UNL     1       3.175   0.873   0.256  0.00  0.00    +0.171 C 
ATOM     14  C   UNL     1       5.914   0.644   1.011  0.00  0.00    +0.242 C 
ATOM     15  C   UNL     1       4.882   1.497   1.721  0.00  0.00    +0.256 C 
BRANCH   9  11
ATOM     11  C   UNL     1       3.698  -0.459  -1.830  0.00  0.00    +0.181 C 
BRANCH  11   2
ATOM      2  O   UNL     1       4.038   0.747  -2.483  0.00  0.00    -0.393 OA
ATOM     30  H   UNL     1       3.824   0.635  -3.424  0.00  0.00    +0.209 HD
ENDBRANCH  11   2
ENDBRANCH   9  11
BRANCH   6  12
ATOM     12  C   UNL     1       6.382  -0.982  -0.769  0.00  0.00    +0.123 C 
BRANCH  12  16
ATOM     16  C   UNL     1       6.483  -2.353  -0.117  0.00  0.00    +0.096 C 
BRANCH  16   7
ATOM      7  N   UNL     1       7.404  -3.202  -0.862  0.00  0.00    -0.328 NA
ATOM     31  H   UNL     1       7.498  -4.098  -0.386  0.00  0.00    +0.118 HD
ATOM     32  H   UNL     1       8.333  -2.782  -0.864  0.00  0.00    +0.118 HD
ENDBRANCH  16   7
ENDBRANCH  12  16
ENDBRANCH   6  12
ENDBRANCH  13  10
BRANCH  21   8
ATOM      4  O   UNL     1      -3.271   1.908  -1.001  0.00  0.00    -0.270 OA
ATOM      8  N   UNL     1      -2.464   0.045   0.185  0.00  0.00    -0.282 N 
ATOM     22  C   UNL     1      -3.448   0.857  -0.394  0.00  0.00    +0.248 C 
ATOM     33  H   UNL     1      -2.754  -0.827   0.619  0.00  0.00    +0.155 HD
BRANCH  22  23
ATOM     23  C   UNL     1      -4.842   0.355  -0.269  0.00  0.00    +0.037 A 
ATOM     24  C   UNL     1      -5.799   0.712  -1.220  0.00  0.00    +0.016 A 
ATOM     25  C   UNL     1      -5.193  -0.471   0.798  0.00  0.00    +0.016 A 
ATOM     26  C   UNL     1      -7.107   0.243  -1.102  0.00  0.00    +0.046 A 
ATOM     27  C   UNL     1      -6.501  -0.940   0.916  0.00  0.00    +0.046 A 
ATOM     28  C   UNL     1      -7.458  -0.583  -0.034  0.00  0.00    +0.120 A 
BRANCH  28   5
ATOM      5  O   UNL     1      -8.735  -1.040   0.081  0.00  0.00    -0.495 OA
ATOM     29  C   UNL     1      -9.026  -1.881   1.197  0.00  0.00    +0.277 C 
ENDBRANCH  28   5
ENDBRANCH  22  23
ENDBRANCH  21   8
TORSDOF 9
