REMARK  Name = 7049403
REMARK  12 active torsions:
REMARK  status: ('A' for Active; 'I' for Inactive)
REMARK    1  A    between atoms: O_6  and  C_23
REMARK    2  A    between atoms: O_6  and  C_31
REMARK    3  A    between atoms: N_9  and  C_14
REMARK    4  A    between atoms: N_10  and  C_19
REMARK    5  A    between atoms: N_11  and  C_29
REMARK    6  A    between atoms: N_12  and  C_30
REMARK    7  A    between atoms: C_13  and  C_17
REMARK    8  A    between atoms: C_18  and  C_20
REMARK    9  A    between atoms: C_19  and  C_21
REMARK   10  A    between atoms: C_19  and  C_23
REMARK   11  A    between atoms: C_21  and  C_25
REMARK   12  A    between atoms: C_21  and  C_26
REMARK                            x       y       z     vdW  Elec       q    Type
REMARK                         _______ _______ _______ _____ _____    ______ ____
ROOT
ATOM      4  O   UNL     1      -4.598   0.566  -0.174  0.00  0.00    -0.268 OA
ATOM      8  N   UNL     1      -2.847  -0.552   0.829  0.00  0.00    -0.283 N 
ATOM     13  C   UNL     1      -2.182   0.648   1.315  0.00  0.00    +0.164 C 
ATOM     14  C   UNL     1      -0.809  -1.278   1.820  0.00  0.00    +0.094 C 
ATOM     15  C   UNL     1      -1.114   0.148   2.286  0.00  0.00    +0.056 C 
ATOM     16  C   UNL     1      -2.141  -1.762   1.256  0.00  0.00    +0.131 C 
ATOM     18  C   UNL     1      -4.068  -0.498   0.151  0.00  0.00    +0.264 C 
ENDROOT
BRANCH  14   9
ATOM      5  O   UNL     1       1.993  -1.622   2.302  0.00  0.00    -0.252 OA
ATOM      9  N   UNL     1       0.236  -1.322   0.829  0.00  0.00    -0.295 N 
ATOM     12  N   UNL     1       2.368  -1.496  -0.011  0.00  0.00    -0.267 N 
ATOM     22  C   UNL     1       1.589  -1.494   1.149  0.00  0.00    +0.304 C 
ATOM     37  H   UNL     1      -0.013  -1.166  -0.143  0.00  0.00    +0.151 HD
ATOM     39  H   UNL     1       1.877  -1.384  -0.895  0.00  0.00    +0.156 HD
BRANCH  12  30
ATOM      1  F   UNL     1       3.660  -1.457  -2.481  0.00  0.00    -0.203 F 
ATOM      2  F   UNL     1       7.868  -2.069  -0.406  0.00  0.00    -0.205 F 
ATOM     30  C   UNL     1       3.771  -1.643  -0.115  0.00  0.00    +0.070 A 
ATOM     32  C   UNL     1       4.388  -1.619  -1.366  0.00  0.00    +0.147 A 
ATOM     33  C   UNL     1       4.538  -1.812   1.037  0.00  0.00    +0.029 A 
ATOM     34  C   UNL     1       5.772  -1.763  -1.464  0.00  0.00    +0.078 A 
ATOM     35  C   UNL     1       5.922  -1.956   0.939  0.00  0.00    +0.040 A 
ATOM     36  C   UNL     1       6.539  -1.932  -0.312  0.00  0.00    +0.126 A 
ENDBRANCH  12  30
ENDBRANCH  14   9
BRANCH  18  20
ATOM     11  N   UNL     1      -4.970  -2.189  -1.460  0.00  0.00    -0.346 N 
ATOM     20  C   UNL     1      -4.682  -1.776  -0.186  0.00  0.00    +0.104 A 
ATOM     24  C   UNL     1      -5.075  -2.772   0.680  0.00  0.00    +0.032 A 
ATOM     27  C   UNL     1      -5.540  -3.435  -1.421  0.00  0.00    +0.086 A 
ATOM     28  C   UNL     1      -5.618  -3.822  -0.101  0.00  0.00    +0.020 A 
ATOM     29  C   UNL     1      -4.717  -1.440  -2.671  0.00  0.00    +0.149 C 
ENDBRANCH  18  20
BRANCH  13  17
ATOM      3  O   UNL     1      -1.670   0.949  -0.997  0.00  0.00    -0.274 OA
ATOM     10  N   UNL     1      -0.889   2.513   0.541  0.00  0.00    -0.301 N 
ATOM     17  C   UNL     1      -1.570   1.370   0.152  0.00  0.00    +0.234 C 
ATOM     38  H   UNL     1      -0.884   2.776   1.522  0.00  0.00    +0.150 HD
BRANCH  10  19
ATOM     19  C   UNL     1      -0.194   3.372  -0.385  0.00  0.00    +0.184 C 
BRANCH  19  21
ATOM     21  C   UNL     1       1.276   2.946  -0.596  0.00  0.00    +0.014 C 
ATOM     25  C   UNL     1       1.984   2.716   0.742  0.00  0.00    +0.009 C 
ATOM     26  C   UNL     1       1.425   1.708  -1.487  0.00  0.00    +0.009 C 
ENDBRANCH  19  21
BRANCH  19  23
ATOM      7  O   UNL     1      -0.810   5.197   1.077  0.00  0.00    -0.249 OA
ATOM     23  C   UNL     1      -0.292   4.837   0.025  0.00  0.00    +0.328 C 
BRANCH  23   6
ATOM      6  O   UNL     1       0.254   5.671  -0.904  0.00  0.00    -0.467 OA
ATOM     31  C   UNL     1       0.201   7.068  -0.595  0.00  0.00    +0.280 C 
ENDBRANCH  23   6
ENDBRANCH  19  23
ENDBRANCH  10  19
ENDBRANCH  13  17
TORSDOF 8
