REMARK  Name = 75536591
REMARK  8 active torsions:
REMARK  status: ('A' for Active; 'I' for Inactive)
REMARK    1  A    between atoms: O_3  and  C_8
REMARK    2  A    between atoms: N_5  and  C_7
REMARK    3  A    between atoms: N_5  and  C_12
REMARK    4  A    between atoms: N_6  and  C_11
REMARK    5  A    between atoms: C_9  and  C_11
REMARK    6  A    between atoms: C_12  and  C_13
REMARK    7  A    between atoms: C_12  and  C_14
REMARK    8  A    between atoms: C_15  and  C_16
REMARK                            x       y       z     vdW  Elec       q    Type
REMARK                         _______ _______ _______ _____ _____    ______ ____
ROOT
ATOM      2  O   UNL     1      -0.816  -1.083   0.321  0.00  0.00    -0.371 OA
ATOM      7  C   UNL     1      -2.914  -0.056  -0.109  0.00  0.00    +0.111 C 
ATOM      8  C   UNL     1      -2.003   0.947   0.572  0.00  0.00    +0.164 C 
ATOM      9  C   UNL     1      -0.635   0.342   0.286  0.00  0.00    +0.165 C 
ATOM     10  C   UNL     1      -2.223  -1.367   0.227  0.00  0.00    +0.181 C 
ENDROOT
BRANCH   8   3
ATOM      3  O   UNL     1      -2.126   2.250   0.035  0.00  0.00    -0.388 OA
ATOM     21  H   UNL     1      -1.953   2.204  -0.921  0.00  0.00    +0.210 HD
ENDBRANCH   8   3
BRANCH   7   5
ATOM      5  N   UNL     1      -4.290  -0.006   0.357  0.00  0.00    -0.307 NA
ATOM     20  H   UNL     1      -4.597   0.963   0.442  0.00  0.00    +0.123 HD
BRANCH   5  12
ATOM     12  C   UNL     1      -5.178  -0.731  -0.544  0.00  0.00    +0.048 C 
ATOM     13  C   UNL     1      -6.451  -1.120   0.201  0.00  0.00    +0.023 C 
ATOM     14  C   UNL     1      -5.498   0.119  -1.770  0.00  0.00    +0.023 C 
ENDBRANCH   5  12
ENDBRANCH   7   5
BRANCH   9  11
ATOM     11  C   UNL     1       0.424   0.749   1.295  0.00  0.00    +0.138 C 
BRANCH  11   6
ATOM      4  O   UNL     1       2.481   1.859  -0.373  0.00  0.00    -0.270 OA
ATOM      6  N   UNL     1       1.693   0.154   0.989  0.00  0.00    -0.308 N 
ATOM     15  C   UNL     1       2.634   0.766   0.167  0.00  0.00    +0.251 C 
ATOM     22  H   UNL     1       1.882  -0.758   1.390  0.00  0.00    +0.149 HD
BRANCH  15  16
ATOM      1  S   UNL     1       5.097   0.691  -1.075  0.00  0.00    -0.092 S 
ATOM     16  C   UNL     1       3.888   0.007  -0.073  0.00  0.00    +0.074 A 
ATOM     17  C   UNL     1       4.255  -1.230   0.408  0.00  0.00    +0.021 A 
ATOM     18  C   UNL     1       5.545  -1.622  -0.051  0.00  0.00    +0.008 A 
ATOM     19  C   UNL     1       6.116  -0.669  -0.865  0.00  0.00    +0.046 A 
ENDBRANCH  15  16
ENDBRANCH  11   6
ENDBRANCH   9  11
TORSDOF 6
