REMARK  Name = 75536935
REMARK  6 active torsions:
REMARK  status: ('A' for Active; 'I' for Inactive)
REMARK    1  A    between atoms: O_2  and  C_6
REMARK    2  A    between atoms: O_2  and  C_14
REMARK    3  A    between atoms: O_3  and  C_17
REMARK    4  A    between atoms: O_3  and  C_18
REMARK    5  A    between atoms: N_4  and  C_8
REMARK    6  A    between atoms: C_8  and  C_11
REMARK                            x       y       z     vdW  Elec       q    Type
REMARK                         _______ _______ _______ _____ _____    ______ ____
ROOT
ATOM      1  O   UNL     1       4.109   0.859  -0.882  0.00  0.00    -0.376 OA
ATOM      4  N   UNL     1       1.284   0.914   0.438  0.00  0.00    -0.293 NA
ATOM      5  C   UNL     1       1.505  -0.536   0.433  0.00  0.00    +0.118 C 
ATOM      6  C   UNL     1       2.851  -1.054  -0.097  0.00  0.00    +0.157 C 
ATOM      7  C   UNL     1       2.472   1.705   0.764  0.00  0.00    +0.113 C 
ATOM      9  C   UNL     1       3.387  -0.293  -1.302  0.00  0.00    +0.192 C 
ATOM     10  C   UNL     1       3.294   1.958  -0.500  0.00  0.00    +0.175 C 
ENDROOT
BRANCH   6   2
ATOM      2  O   UNL     1       2.682  -2.421  -0.477  0.00  0.00    -0.376 OA
ATOM     14  C   UNL     1       2.730  -3.279   0.651  0.00  0.00    +0.194 C 
ENDBRANCH   6   2
BRANCH   4   8
ATOM      8  C   UNL     1       0.160   1.249   1.313  0.00  0.00    +0.119 C 
BRANCH   8  11
ATOM     11  C   UNL     1      -1.158   0.834   0.717  0.00  0.00    -0.033 A 
ATOM     12  C   UNL     1      -1.728   1.587  -0.310  0.00  0.00    +0.008 A 
ATOM     13  C   UNL     1      -1.810  -0.304   1.191  0.00  0.00    +0.008 A 
ATOM     15  C   UNL     1      -2.949   1.202  -0.863  0.00  0.00    +0.046 A 
ATOM     16  C   UNL     1      -3.032  -0.689   0.638  0.00  0.00    +0.046 A 
ATOM     17  C   UNL     1      -3.601   0.064  -0.389  0.00  0.00    +0.120 A 
BRANCH  17   3
ATOM      3  O   UNL     1      -4.792  -0.312  -0.928  0.00  0.00    -0.495 OA
ATOM     18  C   UNL     1      -5.404  -1.486  -0.396  0.00  0.00    +0.277 C 
ENDBRANCH  17   3
ENDBRANCH   8  11
ENDBRANCH   4   8
TORSDOF 4
