REMARK  Name = 45783687
REMARK  8 active torsions:
REMARK  status: ('A' for Active; 'I' for Inactive)
REMARK    1  A    between atoms: O_2  and  C_25
REMARK    2  A    between atoms: O_4  and  C_27
REMARK    3  A    between atoms: O_4  and  C_28
REMARK    4  A    between atoms: N_5  and  C_13
REMARK    5  A    between atoms: C_9  and  C_14
REMARK    6  A    between atoms: C_13  and  C_15
REMARK    7  A    between atoms: C_18  and  C_22
REMARK    8  A    between atoms: C_21  and  C_25
REMARK                            x       y       z     vdW  Elec       q    Type
REMARK                         _______ _______ _______ _____ _____    ______ ____
ROOT
ATOM      5  N   UNL     1      -3.638  -0.371  -0.684  0.00  0.00    -0.287 NA
ATOM      9  C   UNL     1      -3.321  -1.257   0.454  0.00  0.00    +0.146 C 
ATOM     10  C   UNL     1      -3.956  -2.610   0.085  0.00  0.00    +0.030 C 
ATOM     11  C   UNL     1      -4.658  -2.371  -1.244  0.00  0.00    +0.017 C 
ATOM     12  C   UNL     1      -4.884  -0.872  -1.264  0.00  0.00    +0.085 C 
ENDROOT
BRANCH   9  14
ATOM      1  O   UNL     1      -1.458  -1.637   1.990  0.00  0.00    -0.336 OA
ATOM      6  N   UNL     1      -0.833  -1.222  -0.120  0.00  0.00    -0.190 NA
ATOM      7  N   UNL     1      -0.059  -1.683   1.983  0.00  0.00    -0.056 NA
ATOM     14  C   UNL     1      -1.833  -1.361   0.713  0.00  0.00    +0.245 A 
ATOM     18  C   UNL     1       0.235  -1.429   0.704  0.00  0.00    +0.204 A 
BRANCH  18  22
ATOM      8  N   UNL     1       3.952  -1.547   0.672  0.00  0.00    -0.221 NA
ATOM     22  C   UNL     1       1.584  -1.375   0.218  0.00  0.00    +0.041 A 
ATOM     23  C   UNL     1       1.852  -1.109  -1.120  0.00  0.00    +0.018 A 
ATOM     24  C   UNL     1       2.659  -1.585   1.066  0.00  0.00    +0.126 A 
ATOM     26  C   UNL     1       3.169  -1.062  -1.563  0.00  0.00    +0.068 A 
ATOM     27  C   UNL     1       4.174  -1.286  -0.635  0.00  0.00    +0.214 A 
BRANCH  27   4
ATOM      4  O   UNL     1       5.480  -1.244  -1.047  0.00  0.00    -0.480 OA
ATOM     28  C   UNL     1       6.472  -1.481  -0.054  0.00  0.00    +0.279 C 
ENDBRANCH  27   4
ENDBRANCH  18  22
ENDBRANCH   9  14
BRANCH   5  13
ATOM     13  C   UNL     1      -3.733   1.034  -0.309  0.00  0.00    +0.120 C 
BRANCH  13  15
ATOM     15  C   UNL     1      -2.377   1.673  -0.176  0.00  0.00    -0.033 A 
ATOM     16  C   UNL     1      -1.994   2.250   1.034  0.00  0.00    +0.006 A 
ATOM     17  C   UNL     1      -1.502   1.687  -1.263  0.00  0.00    +0.006 A 
ATOM     19  C   UNL     1      -0.737   2.842   1.158  0.00  0.00    +0.015 A 
ATOM     20  C   UNL     1      -0.245   2.279  -1.139  0.00  0.00    +0.015 A 
ATOM     21  C   UNL     1       0.138   2.856   0.071  0.00  0.00    +0.059 A 
BRANCH  21  25
ATOM      3  O   UNL     1       1.890   4.010   1.221  0.00  0.00    -0.245 OA
ATOM     25  C   UNL     1       1.449   3.472   0.200  0.00  0.00    +0.337 C 
BRANCH  25   2
ATOM      2  O   UNL     1       2.173   3.399  -0.950  0.00  0.00    -0.477 OA
ATOM     29  H   UNL     1       3.056   3.817  -0.852  0.00  0.00    +0.295 HD
ENDBRANCH  25   2
ENDBRANCH  21  25
ENDBRANCH  13  15
ENDBRANCH   5  13
TORSDOF 7
