REMARK  Name = 26743806
REMARK  8 active torsions:
REMARK  status: ('A' for Active; 'I' for Inactive)
REMARK    1  A    between atoms: O_2  and  C_11
REMARK    2  A    between atoms: N_5  and  C_13
REMARK    3  A    between atoms: N_8  and  C_21
REMARK    4  A    between atoms: C_9  and  C_14
REMARK    5  A    between atoms: C_13  and  C_15
REMARK    6  A    between atoms: C_18  and  C_22
REMARK    7  A    between atoms: C_27  and  C_29
REMARK    8  A    between atoms: C_28  and  C_30
REMARK                            x       y       z     vdW  Elec       q    Type
REMARK                         _______ _______ _______ _____ _____    ______ ____
ROOT
ATOM      5  N   UNL     1       3.443   0.517   0.600  0.00  0.00    -0.285 NA
ATOM      9  C   UNL     1       3.425  -0.434  -0.530  0.00  0.00    +0.149 C 
ATOM     10  C   UNL     1       4.374  -1.570  -0.103  0.00  0.00    +0.061 C 
ATOM     11  C   UNL     1       4.911  -1.145   1.258  0.00  0.00    +0.130 C 
ATOM     12  C   UNL     1       4.742   0.362   1.252  0.00  0.00    +0.116 C 
ENDROOT
BRANCH   9  14
ATOM      3  O   UNL     1       1.807  -1.305  -2.141  0.00  0.00    -0.336 OA
ATOM      6  N   UNL     1       0.989  -1.046  -0.072  0.00  0.00    -0.190 NA
ATOM      7  N   UNL     1       0.469  -1.715  -2.197  0.00  0.00    -0.056 NA
ATOM     14  C   UNL     1       2.031  -0.927  -0.855  0.00  0.00    +0.245 A 
ATOM     18  C   UNL     1       0.055  -1.533  -0.940  0.00  0.00    +0.202 A 
BRANCH  18  22
ATOM      1  F   UNL     1      -3.313  -1.702   2.497  0.00  0.00    -0.205 F 
ATOM     22  C   UNL     1      -1.284  -1.829  -0.518  0.00  0.00    +0.025 A 
ATOM     23  C   UNL     1      -1.659  -1.619   0.809  0.00  0.00    +0.050 A 
ATOM     24  C   UNL     1      -2.210  -2.325  -1.435  0.00  0.00    +0.012 A 
ATOM     25  C   UNL     1      -2.961  -1.906   1.219  0.00  0.00    +0.127 A 
ATOM     26  C   UNL     1      -3.512  -2.613  -1.024  0.00  0.00    +0.007 A 
ATOM     27  C   UNL     1      -3.887  -2.403   0.302  0.00  0.00    -0.015 A 
ATOM     29  C   UNL     1      -5.280  -2.711   0.738  0.00  0.00    +0.047 C 
ENDBRANCH  18  22
ENDBRANCH   9  14
BRANCH  11   2
ATOM      2  O   UNL     1       6.266  -1.521   1.403  0.00  0.00    -0.390 OA
ATOM     31  H   UNL     1       6.311  -2.489   1.322  0.00  0.00    +0.210 HD
ENDBRANCH  11   2
BRANCH   5  13
ATOM     13  C   UNL     1       3.193   1.894   0.196  0.00  0.00    +0.120 C 
BRANCH  13  15
ATOM     15  C   UNL     1       1.726   2.158  -0.019  0.00  0.00    -0.033 A 
ATOM     16  C   UNL     1       1.272   2.603  -1.260  0.00  0.00    +0.007 A 
ATOM     17  C   UNL     1       0.821   1.957   1.024  0.00  0.00    +0.007 A 
ATOM     19  C   UNL     1      -0.087   2.846  -1.460  0.00  0.00    +0.023 A 
ATOM     20  C   UNL     1      -0.538   2.200   0.825  0.00  0.00    +0.023 A 
ATOM     21  C   UNL     1      -0.992   2.645  -0.417  0.00  0.00    +0.033 A 
BRANCH  21   8
ATOM      4  O   UNL     1      -3.323   2.378   1.470  0.00  0.00    -0.276 OA
ATOM      8  N   UNL     1      -2.351   2.889  -0.617  0.00  0.00    -0.286 N 
ATOM     28  C   UNL     1      -3.400   2.745   0.302  0.00  0.00    +0.214 C 
ATOM     30  C   UNL     1      -4.730   3.111  -0.307  0.00  0.00    +0.109 C 
ATOM     32  H   UNL     1      -2.603   3.210  -1.549  0.00  0.00    +0.155 HD
ENDBRANCH  21   8
ENDBRANCH  13  15
ENDBRANCH   5  13
TORSDOF 6
