REMARK  Name = 75536313
REMARK  8 active torsions:
REMARK  status: ('A' for Active; 'I' for Inactive)
REMARK    1  A    between atoms: O_2  and  C_7
REMARK    2  A    between atoms: N_4  and  C_11
REMARK    3  A    between atoms: N_4  and  C_14
REMARK    4  A    between atoms: C_6  and  C_11
REMARK    5  A    between atoms: C_8  and  C_12
REMARK    6  A    between atoms: C_12  and  C_13
REMARK    7  A    between atoms: C_14  and  C_16
REMARK    8  A    between atoms: C_17  and  C_18
REMARK                            x       y       z     vdW  Elec       q    Type
REMARK                         _______ _______ _______ _____ _____    ______ ____
ROOT
ATOM      1  O   UNL     1       2.905  -0.391   0.834  0.00  0.00    -0.369 OA
ATOM      6  C   UNL     1       3.533   0.896   0.764  0.00  0.00    +0.161 C 
ATOM      7  C   UNL     1       5.039   0.768   0.502  0.00  0.00    +0.145 C 
ATOM      8  C   UNL     1       3.106  -1.228  -0.308  0.00  0.00    +0.125 C 
ATOM      9  C   UNL     1       5.348  -0.158  -0.671  0.00  0.00    +0.036 C 
ATOM     10  C   UNL     1       4.595  -1.479  -0.537  0.00  0.00    +0.034 C 
ENDROOT
BRANCH   7   2
ATOM      2  O   UNL     1       5.665   0.222   1.666  0.00  0.00    -0.389 OA
ATOM     30  H   UNL     1       6.623   0.193   1.498  0.00  0.00    +0.210 HD
ENDBRANCH   7   2
BRANCH   6  11
ATOM     11  C   UNL     1       2.826   1.800  -0.244  0.00  0.00    +0.115 C 
BRANCH  11   4
ATOM      4  N   UNL     1       1.408   1.907   0.061  0.00  0.00    -0.309 NA
ATOM     29  H   UNL     1       0.987   0.979   0.039  0.00  0.00    +0.122 HD
BRANCH   4  14
ATOM     14  C   UNL     1       0.733   2.778  -0.892  0.00  0.00    +0.116 C 
BRANCH  14  16
ATOM     16  C   UNL     1      -0.735   2.913  -0.586  0.00  0.00    -0.034 A 
ATOM     19  C   UNL     1      -1.650   2.023  -1.147  0.00  0.00    +0.005 A 
ATOM     20  C   UNL     1      -1.180   3.930   0.259  0.00  0.00    +0.005 A 
ATOM     21  C   UNL     1      -3.010   2.149  -0.863  0.00  0.00    +0.000 A 
ATOM     22  C   UNL     1      -2.539   4.056   0.543  0.00  0.00    +0.000 A 
ATOM     25  C   UNL     1      -3.455   3.166  -0.018  0.00  0.00    +0.000 A 
ENDBRANCH  14  16
ENDBRANCH   4  14
ENDBRANCH  11   4
ENDBRANCH   6  11
BRANCH   8  12
ATOM     12  C   UNL     1       2.368  -2.537  -0.051  0.00  0.00    +0.090 C 
BRANCH  12  13
ATOM      3  O   UNL     1      -0.994  -2.412  -1.345  0.00  0.00    -0.354 OA
ATOM      5  N   UNL     1       0.371  -2.630  -1.487  0.00  0.00    -0.083 NA
ATOM     13  C   UNL     1       0.887  -2.396  -0.277  0.00  0.00    +0.087 A 
ATOM     15  C   UNL     1      -0.095  -2.030   0.660  0.00  0.00    +0.076 A 
ATOM     17  C   UNL     1      -1.259  -2.056  -0.062  0.00  0.00    +0.167 A 
BRANCH  17  18
ATOM     18  C   UNL     1      -2.637  -1.799   0.240  0.00  0.00    +0.020 A 
ATOM     23  C   UNL     1      -3.011  -1.428   1.532  0.00  0.00    +0.011 A 
ATOM     24  C   UNL     1      -3.604  -1.919  -0.758  0.00  0.00    +0.011 A 
ATOM     26  C   UNL     1      -4.352  -1.178   1.825  0.00  0.00    +0.001 A 
ATOM     27  C   UNL     1      -4.944  -1.669  -0.465  0.00  0.00    +0.001 A 
ATOM     28  C   UNL     1      -5.318  -1.298   0.827  0.00  0.00    +0.000 A 
ENDBRANCH  17  18
ENDBRANCH  12  13
ENDBRANCH   8  12
TORSDOF 8
