REMARK  Name = 11886014
REMARK  11 active torsions:
REMARK  status: ('A' for Active; 'I' for Inactive)
REMARK    1  A    between atoms: S_1  and  C_20
REMARK    2  A    between atoms: S_1  and  C_22
REMARK    3  A    between atoms: O_4  and  C_17
REMARK    4  A    between atoms: O_4  and  C_21
REMARK    5  A    between atoms: O_7  and  C_33
REMARK    6  A    between atoms: O_7  and  C_34
REMARK    7  A    between atoms: N_9  and  C_16
REMARK    8  A    between atoms: N_13  and  C_23
REMARK    9  A    between atoms: C_22  and  C_24
REMARK   10  A    between atoms: C_28  and  C_33
REMARK   11  A    between atoms: C_34  and  C_35
REMARK                            x       y       z     vdW  Elec       q    Type
REMARK                         _______ _______ _______ _____ _____    ______ ____
ROOT
ATOM      2  O   UNL     1      -0.389  -0.081  -1.162  0.00  0.00    -0.368 OA
ATOM      3  O   UNL     1      -2.199  -2.350  -0.098  0.00  0.00    -0.368 OA
ATOM     14  C   UNL     1      -2.172  -0.929   0.161  0.00  0.00    +0.177 C 
ATOM     15  C   UNL     1      -0.714  -0.513   0.168  0.00  0.00    +0.192 C 
ATOM     16  C   UNL     1      -2.773  -0.187  -1.018  0.00  0.00    +0.168 C 
ATOM     17  C   UNL     1      -0.004  -1.796   0.527  0.00  0.00    +0.235 C 
ATOM     18  C   UNL     1      -1.582  -0.030  -1.958  0.00  0.00    +0.190 C 
ATOM     19  C   UNL     1      -0.851  -2.834  -0.173  0.00  0.00    +0.207 C 
ENDROOT
BRANCH  16   9
ATOM      9  N   UNL     1      -3.427   1.061  -0.620  0.00  0.00    -0.212 N 
ATOM     10  N   UNL     1      -2.722   2.195  -0.546  0.00  0.00    -0.043 NA
ATOM     11  N   UNL     1      -4.851   2.566   0.001  0.00  0.00    -0.101 NA
ATOM     12  N   UNL     1      -3.600   3.115  -0.165  0.00  0.00    -0.022 NA
ATOM     20  C   UNL     1      -4.720   1.292  -0.287  0.00  0.00    +0.210 A 
BRANCH  20   1
ATOM      1  S   UNL     1      -5.940   0.080  -0.265  0.00  0.00    -0.077 S 
BRANCH   1  22
ATOM     22  C   UNL     1      -7.396   1.039   0.251  0.00  0.00    +0.151 C 
BRANCH  22  24
ATOM      6  O   UNL     1      -9.638   0.535  -0.451  0.00  0.00    -0.467 OA
ATOM     24  C   UNL     1      -8.616   0.168   0.342  0.00  0.00    +0.115 A 
ATOM     27  C   UNL     1      -8.893  -0.932   1.079  0.00  0.00    +0.045 A 
ATOM     31  C   UNL     1     -10.213  -1.296   0.720  0.00  0.00    +0.041 A 
ATOM     32  C   UNL     1     -10.622  -0.372  -0.214  0.00  0.00    +0.195 A 
ENDBRANCH  22  24
ENDBRANCH   1  22
ENDBRANCH  20   1
ENDBRANCH  16   9
BRANCH  17   4
ATOM      4  O   UNL     1       1.340  -1.834   0.105  0.00  0.00    -0.442 OA
BRANCH   4  21
ATOM      5  O   UNL     1       1.823  -0.065   1.471  0.00  0.00    -0.226 OA
ATOM     13  N   UNL     1       3.463  -1.073   0.138  0.00  0.00    -0.251 N 
ATOM     21  C   UNL     1       2.193  -0.899   0.653  0.00  0.00    +0.405 C 
ATOM     36  H   UNL     1       3.574  -1.827  -0.536  0.00  0.00    +0.158 HD
BRANCH  13  23
ATOM     23  C   UNL     1       4.630  -0.331   0.430  0.00  0.00    +0.037 A 
ATOM     25  C   UNL     1       5.821  -0.662  -0.197  0.00  0.00    +0.038 A 
ATOM     26  C   UNL     1       4.561   0.713   1.338  0.00  0.00    +0.023 A 
ATOM     28  C   UNL     1       6.972   0.070   0.092  0.00  0.00    +0.061 A 
ATOM     29  C   UNL     1       5.712   1.446   1.627  0.00  0.00    +0.003 A 
ATOM     30  C   UNL     1       6.918   1.124   1.004  0.00  0.00    +0.015 A 
BRANCH  28  33
ATOM      8  O   UNL     1       8.372  -1.182  -1.377  0.00  0.00    -0.245 OA
ATOM     33  C   UNL     1       8.230  -0.265  -0.557  0.00  0.00    +0.339 C 
BRANCH  33   7
ATOM      7  O   UNL     1       9.242   0.560  -0.149  0.00  0.00    -0.461 OA
BRANCH   7  34
ATOM     34  C   UNL     1      10.534   0.331  -0.721  0.00  0.00    +0.229 C 
ATOM     35  C   UNL     1      11.512   1.336  -0.151  0.00  0.00    +0.048 C 
ENDBRANCH   7  34
ENDBRANCH  33   7
ENDBRANCH  28  33
ENDBRANCH  13  23
ENDBRANCH   4  21
ENDBRANCH  17   4
TORSDOF 10
