REMARK  Name = 44716918
REMARK  14 active torsions:
REMARK  status: ('A' for Active; 'I' for Inactive)
REMARK    1  A    between atoms: O_2  and  C_15
REMARK    2  A    between atoms: O_2  and  C_24
REMARK    3  A    between atoms: O_3  and  C_16
REMARK    4  A    between atoms: O_4  and  C_20
REMARK    5  A    between atoms: N_7  and  C_25
REMARK    6  A    between atoms: N_8  and  C_26
REMARK    7  A    between atoms: C_9  and  C_19
REMARK    8  A    between atoms: C_11  and  C_20
REMARK    9  A    between atoms: C_11  and  C_21
REMARK   10  A    between atoms: C_12  and  C_22
REMARK   11  A    between atoms: C_22  and  C_23
REMARK   12  A    between atoms: C_25  and  C_27
REMARK   13  A    between atoms: C_26  and  C_28
REMARK   14  A    between atoms: C_28  and  C_31
REMARK                            x       y       z     vdW  Elec       q    Type
REMARK                         _______ _______ _______ _____ _____    ______ ____
ROOT
ATOM      9  C   UNL     1      -0.322   1.616   0.555  0.00  0.00    -0.023 C 
ATOM     10  C   UNL     1      -0.785   1.522  -0.950  0.00  0.00    +0.007 C 
ATOM     11  C   UNL     1      -2.310   1.213  -1.204  0.00  0.00    +0.031 C 
ATOM     12  C   UNL     1       1.263   1.608   0.553  0.00  0.00    +0.032 C 
ATOM     13  C   UNL     1      -0.838   0.360   1.307  0.00  0.00    +0.011 C 
ATOM     14  C   UNL     1      -0.221   2.700  -1.775  0.00  0.00    +0.007 C 
ATOM     15  C   UNL     1      -2.726  -0.014  -0.337  0.00  0.00    +0.186 C 
ATOM     16  C   UNL     1       1.883   2.716  -0.331  0.00  0.00    +0.119 C 
ATOM     17  C   UNL     1      -2.331   0.107   1.131  0.00  0.00    +0.046 C 
ATOM     18  C   UNL     1       1.308   2.717  -1.744  0.00  0.00    +0.032 C 
ATOM     19  C   UNL     1      -0.859   2.868   1.292  0.00  0.00    +0.012 C 
ATOM     21  C   UNL     1      -2.507   0.816  -2.696  0.00  0.00    +0.017 C 
ENDROOT
BRANCH  16   3
ATOM      3  O   UNL     1       1.706   3.998   0.262  0.00  0.00    -0.391 OA
ATOM     35  H   UNL     1       2.139   4.652  -0.312  0.00  0.00    +0.210 HD
ENDBRANCH  16   3
BRANCH  15   2
ATOM      2  O   UNL     1      -4.136  -0.236  -0.374  0.00  0.00    -0.446 OA
BRANCH   2  24
ATOM      6  O   UNL     1      -3.783  -2.487  -0.086  0.00  0.00    -0.226 OA
ATOM      8  N   UNL     1      -5.918  -1.604  -0.291  0.00  0.00    -0.281 N 
ATOM     24  C   UNL     1      -4.542  -1.536  -0.236  0.00  0.00    +0.401 C 
ATOM     38  H   UNL     1      -6.435  -0.739  -0.415  0.00  0.00    +0.152 HD
BRANCH   8  26
ATOM     26  C   UNL     1      -6.665  -2.836  -0.176  0.00  0.00    +0.107 C 
BRANCH  26  28
ATOM     28  C   UNL     1      -7.029  -3.162   1.267  0.00  0.00    +0.015 C 
ATOM     31  C   UNL     1      -7.904  -2.094   1.909  0.00  0.00    +0.005 C 
ENDBRANCH  26  28
ENDBRANCH   8  26
ENDBRANCH   2  24
ENDBRANCH  15   2
BRANCH  11  20
ATOM     20  C   UNL     1      -3.245   2.415  -0.963  0.00  0.00    +0.166 C 
BRANCH  20   4
ATOM      4  O   UNL     1      -4.451   2.172  -1.654  0.00  0.00    -0.394 OA
ATOM     36  H   UNL     1      -5.032   2.937  -1.501  0.00  0.00    +0.209 HD
ENDBRANCH  20   4
ENDBRANCH  11  20
BRANCH  12  22
ATOM     22  C   UNL     1       1.911   1.630   1.947  0.00  0.00    +0.102 C 
BRANCH  22  23
ATOM      5  O   UNL     1       4.317   1.761   1.720  0.00  0.00    -0.276 OA
ATOM      7  N   UNL     1       3.315  -0.289   2.159  0.00  0.00    -0.311 N 
ATOM     23  C   UNL     1       3.317   1.078   1.924  0.00  0.00    +0.214 C 
ATOM     37  H   UNL     1       2.432  -0.775   2.284  0.00  0.00    +0.149 HD
BRANCH   7  25
ATOM     25  C   UNL     1       4.521  -1.086   2.193  0.00  0.00    +0.139 C 
BRANCH  25  27
ATOM      1  F   UNL     1       5.838  -3.129  -2.886  0.00  0.00    -0.205 F 
ATOM     27  C   UNL     1       4.872  -1.631   0.839  0.00  0.00    -0.030 A 
ATOM     29  C   UNL     1       4.377  -2.871   0.436  0.00  0.00    +0.008 A 
ATOM     30  C   UNL     1       5.694  -0.897  -0.017  0.00  0.00    +0.008 A 
ATOM     32  C   UNL     1       4.704  -3.378  -0.822  0.00  0.00    +0.038 A 
ATOM     33  C   UNL     1       6.021  -1.403  -1.274  0.00  0.00    +0.038 A 
ATOM     34  C   UNL     1       5.526  -2.644  -1.677  0.00  0.00    +0.123 A 
ENDBRANCH  25  27
ENDBRANCH   7  25
ENDBRANCH  22  23
ENDBRANCH  12  22
TORSDOF 11
