REMARK  Name = 7143176
REMARK  7 active torsions:
REMARK  status: ('A' for Active; 'I' for Inactive)
REMARK    1  A    between atoms: S_1  and  N_7
REMARK    2  A    between atoms: S_1  and  C_21
REMARK    3  A    between atoms: O_5  and  C_27
REMARK    4  A    between atoms: O_5  and  C_30
REMARK    5  A    between atoms: N_9  and  C_19
REMARK    6  A    between atoms: C_26  and  C_28
REMARK    7  A    between atoms: C_28  and  C_29
REMARK                            x       y       z     vdW  Elec       q    Type
REMARK                         _______ _______ _______ _____ _____    ______ ____
ROOT
ATOM      4  O   UNL     1      -2.270   2.079  -1.828  0.00  0.00    -0.266 OA
ATOM      7  N   UNL     1       2.166   0.199  -0.560  0.00  0.00    -0.176 NA
ATOM      8  N   UNL     1      -0.363   2.093  -0.477  0.00  0.00    -0.310 N 
ATOM     10  C   UNL     1       1.984   2.545  -1.395  0.00  0.00    +0.025 C 
ATOM     11  C   UNL     1       1.680   2.076   0.997  0.00  0.00    +0.052 C 
ATOM     12  C   UNL     1       2.276   3.071   0.004  0.00  0.00    +0.017 C 
ATOM     13  C   UNL     1       2.628   1.163  -1.599  0.00  0.00    +0.114 C 
ATOM     14  C   UNL     1       2.366   0.708   0.830  0.00  0.00    +0.119 C 
ATOM     15  C   UNL     1       0.466   2.521  -1.612  0.00  0.00    +0.130 C 
ATOM     16  C   UNL     1       0.181   1.944   0.802  0.00  0.00    +0.026 A 
ATOM     17  C   UNL     1      -0.616   1.663   1.847  0.00  0.00    +0.024 A 
ATOM     18  C   UNL     1      -1.743   1.942  -0.723  0.00  0.00    +0.273 A 
ATOM     19  C   UNL     1      -2.593   1.606   0.464  0.00  0.00    +0.099 A 
ATOM     20  C   UNL     1      -2.030   1.490   1.671  0.00  0.00    +0.030 A 
ENDROOT
BRANCH  19   9
ATOM      6  O   UNL     1      -4.335  -0.085   1.979  0.00  0.00    -0.275 OA
ATOM      9  N   UNL     1      -3.932   1.439   0.265  0.00  0.00    -0.281 N 
ATOM     26  C   UNL     1      -4.727   0.600   1.037  0.00  0.00    +0.222 C 
ATOM     36  H   UNL     1      -4.301   1.771  -0.622  0.00  0.00    +0.155 HD
BRANCH  26  28
ATOM     28  C   UNL     1      -6.171   0.629   0.573  0.00  0.00    +0.131 C 
BRANCH  28  29
ATOM     29  C   UNL     1      -6.684  -0.717   0.134  0.00  0.00    -0.039 A 
ATOM     31  C   UNL     1      -6.549  -1.100  -1.194  0.00  0.00    +0.004 A 
ATOM     32  C   UNL     1      -7.284  -1.556   1.062  0.00  0.00    +0.004 A 
ATOM     33  C   UNL     1      -7.024  -2.347  -1.600  0.00  0.00    +0.000 A 
ATOM     34  C   UNL     1      -7.759  -2.803   0.656  0.00  0.00    +0.000 A 
ATOM     35  C   UNL     1      -7.629  -3.198  -0.676  0.00  0.00    +0.000 A 
ENDBRANCH  28  29
ENDBRANCH  26  28
ENDBRANCH  19   9
BRANCH   7   1
ATOM      1  S   UNL     1       2.606  -1.435  -0.820  0.00  0.00    +0.061 S 
ATOM      2  O   UNL     1       2.515  -1.731  -2.234  0.00  0.00    -0.153 OA
ATOM      3  O   UNL     1       1.935  -2.264   0.159  0.00  0.00    -0.153 OA
BRANCH   1  21
ATOM     21  C   UNL     1       4.317  -1.366  -0.392  0.00  0.00    +0.106 A 
ATOM     22  C   UNL     1       4.698  -1.597   0.920  0.00  0.00    +0.032 A 
ATOM     23  C   UNL     1       5.252  -1.083  -1.375  0.00  0.00    +0.032 A 
ATOM     24  C   UNL     1       6.050  -1.542   1.258  0.00  0.00    +0.047 A 
ATOM     25  C   UNL     1       6.604  -1.029  -1.037  0.00  0.00    +0.047 A 
ATOM     27  C   UNL     1       7.003  -1.258   0.280  0.00  0.00    +0.120 A 
BRANCH  27   5
ATOM      5  O   UNL     1       8.322  -1.206   0.610  0.00  0.00    -0.495 OA
ATOM     30  C   UNL     1       8.661  -1.451   1.974  0.00  0.00    +0.277 C 
ENDBRANCH  27   5
ENDBRANCH   1  21
ENDBRANCH   7   1
TORSDOF 6
