REMARK  Name = 11882527
REMARK  9 active torsions:
REMARK  status: ('A' for Active; 'I' for Inactive)
REMARK    1  A    between atoms: S_1  and  N_9
REMARK    2  A    between atoms: S_1  and  C_19
REMARK    3  A    between atoms: O_3  and  C_12
REMARK    4  A    between atoms: O_4  and  C_14
REMARK    5  A    between atoms: N_9  and  C_13
REMARK    6  A    between atoms: N_10  and  C_20
REMARK    7  A    between atoms: C_16  and  C_18
REMARK    8  A    between atoms: C_20  and  C_22
REMARK    9  A    between atoms: C_22  and  C_25
REMARK                            x       y       z     vdW  Elec       q    Type
REMARK                         _______ _______ _______ _____ _____    ______ ____
ROOT
ATOM     12  C   UNL     1      -0.992  -1.044  -0.913  0.00  0.00    +0.166 C 
ATOM     13  C   UNL     1      -1.136   0.266  -0.117  0.00  0.00    +0.131 C 
ATOM     14  C   UNL     1       0.200  -1.873  -0.416  0.00  0.00    +0.149 C 
ATOM     15  C   UNL     1       1.516  -1.076  -0.457  0.00  0.00    +0.074 C 
ATOM     16  C   UNL     1       1.354   0.364  -0.062  0.00  0.00    +0.014 C 
ATOM     17  C   UNL     1       0.172   0.977   0.102  0.00  0.00    +0.004 C 
ENDROOT
BRANCH  16  18
ATOM      7  O   UNL     1       2.567   2.076   0.996  0.00  0.00    -0.271 OA
ATOM     10  N   UNL     1       3.640   0.745  -0.588  0.00  0.00    -0.311 N 
ATOM     18  C   UNL     1       2.565   1.154   0.181  0.00  0.00    +0.240 C 
ATOM     29  H   UNL     1       3.546  -0.009  -1.259  0.00  0.00    +0.149 HD
BRANCH  10  20
ATOM     20  C   UNL     1       4.940   1.373  -0.526  0.00  0.00    +0.113 C 
BRANCH  20  22
ATOM     22  C   UNL     1       5.843   0.725   0.515  0.00  0.00    +0.114 C 
BRANCH  22  25
ATOM      8  O   UNL     1       5.604  -1.379  -0.674  0.00  0.00    -0.276 OA
ATOM     11  N   UNL     1       6.908  -1.316   1.218  0.00  0.00    -0.329 N 
ATOM     25  C   UNL     1       6.088  -0.752   0.264  0.00  0.00    +0.212 C 
ATOM     30  H   UNL     1       7.155  -2.299   1.179  0.00  0.00    +0.145 HD
ATOM     31  H   UNL     1       7.294  -0.778   1.988  0.00  0.00    +0.145 HD
ENDBRANCH  22  25
ENDBRANCH  20  22
ENDBRANCH  10  20
ENDBRANCH  16  18
BRANCH  12   3
ATOM      3  O   UNL     1      -0.798  -0.750  -2.299  0.00  0.00    -0.387 OA
ATOM     27  H   UNL     1      -0.740  -1.597  -2.772  0.00  0.00    +0.210 HD
ENDBRANCH  12   3
BRANCH  14   4
ATOM      4  O   UNL     1      -0.047  -2.342   0.908  0.00  0.00    -0.389 OA
ATOM     28  H   UNL     1      -0.875  -2.851   0.888  0.00  0.00    +0.210 HD
ENDBRANCH  14   4
BRANCH  13   9
ATOM      9  N   UNL     1      -2.078   1.176  -0.814  0.00  0.00    -0.180 NA
ATOM     26  H   UNL     1      -2.128   1.060  -1.834  0.00  0.00    +0.149 HD
BRANCH   9   1
ATOM      1  S   UNL     1      -3.499   1.637   0.017  0.00  0.00    +0.065 S 
ATOM      5  O   UNL     1      -4.351   2.403  -0.872  0.00  0.00    -0.153 OA
ATOM      6  O   UNL     1      -3.132   2.139   1.327  0.00  0.00    -0.153 OA
BRANCH   1  19
ATOM      2  S   UNL     1      -5.087  -0.601  -0.993  0.00  0.00    -0.077 S 
ATOM     19  C   UNL     1      -4.412   0.138   0.379  0.00  0.00    +0.142 A 
ATOM     21  C   UNL     1      -4.664  -0.514   1.540  0.00  0.00    +0.036 A 
ATOM     23  C   UNL     1      -5.449  -1.680   1.310  0.00  0.00    +0.010 A 
ATOM     24  C   UNL     1      -5.749  -1.847  -0.024  0.00  0.00    +0.047 A 
ENDBRANCH   1  19
ENDBRANCH   9   1
ENDBRANCH  13   9
TORSDOF 9
