REMARK  Name = 75536707
REMARK  10 active torsions:
REMARK  status: ('A' for Active; 'I' for Inactive)
REMARK    1  A    between atoms: S_1  and  N_7
REMARK    2  A    between atoms: S_1  and  C_15
REMARK    3  A    between atoms: O_3  and  C_9
REMARK    4  A    between atoms: N_6  and  C_8
REMARK    5  A    between atoms: N_6  and  C_13
REMARK    6  A    between atoms: N_7  and  C_12
REMARK    7  A    between atoms: C_10  and  C_12
REMARK    8  A    between atoms: C_13  and  C_14
REMARK    9  A    between atoms: C_22  and  C_26
REMARK   10  A    between atoms: C_25  and  C_27
REMARK                            x       y       z     vdW  Elec       q    Type
REMARK                         _______ _______ _______ _____ _____    ______ ____
ROOT
ATOM      2  O   UNL     1       0.236  -1.555   1.365  0.00  0.00    -0.371 OA
ATOM      8  C   UNL     1      -1.728  -1.317   0.051  0.00  0.00    +0.111 C 
ATOM      9  C   UNL     1      -0.528  -0.889  -0.772  0.00  0.00    +0.164 C 
ATOM     10  C   UNL     1       0.603  -1.583  -0.025  0.00  0.00    +0.164 C 
ATOM     11  C   UNL     1      -1.166  -1.248   1.462  0.00  0.00    +0.181 C 
ENDROOT
BRANCH   9   3
ATOM      3  O   UNL     1      -0.609  -1.316  -2.118  0.00  0.00    -0.388 OA
ATOM     29  H   UNL     1      -0.720  -2.281  -2.127  0.00  0.00    +0.210 HD
ENDBRANCH   9   3
BRANCH   8   6
ATOM      6  N   UNL     1      -2.895  -0.469  -0.135  0.00  0.00    -0.305 NA
ATOM     28  H   UNL     1      -3.028  -0.300  -1.132  0.00  0.00    +0.123 HD
BRANCH   6  13
ATOM     13  C   UNL     1      -4.095  -1.103   0.400  0.00  0.00    +0.116 C 
BRANCH  13  14
ATOM     14  C   UNL     1      -5.311  -0.232   0.231  0.00  0.00    -0.034 A 
ATOM     16  C   UNL     1      -5.508   0.863   1.073  0.00  0.00    +0.005 A 
ATOM     17  C   UNL     1      -6.243  -0.521  -0.766  0.00  0.00    +0.005 A 
ATOM     20  C   UNL     1      -6.636   1.668   0.918  0.00  0.00    +0.003 A 
ATOM     21  C   UNL     1      -7.372   0.284  -0.920  0.00  0.00    +0.003 A 
ATOM     22  C   UNL     1      -7.568   1.379  -0.078  0.00  0.00    -0.050 A 
ATOM     26  C   UNL     1      -8.775   2.240  -0.243  0.00  0.00    +0.044 C 
ENDBRANCH  13  14
ENDBRANCH   6  13
ENDBRANCH   8   6
BRANCH  10  12
ATOM     12  C   UNL     1       1.950  -0.909  -0.214  0.00  0.00    +0.140 C 
BRANCH  12   7
ATOM      7  N   UNL     1       2.982  -1.645   0.543  0.00  0.00    -0.187 NA
ATOM     30  H   UNL     1       2.817  -1.732   1.553  0.00  0.00    +0.148 HD
BRANCH   7   1
ATOM      1  S   UNL     1       4.587  -1.685  -0.022  0.00  0.00    +0.058 S 
ATOM      4  O   UNL     1       4.602  -2.159  -1.393  0.00  0.00    -0.153 OA
ATOM      5  O   UNL     1       5.424  -2.318   0.979  0.00  0.00    -0.153 OA
BRANCH   1  15
ATOM     15  C   UNL     1       5.008   0.032  -0.036  0.00  0.00    +0.105 A 
ATOM     18  C   UNL     1       5.572   0.620   1.096  0.00  0.00    +0.029 A 
ATOM     19  C   UNL     1       4.774   0.799  -1.177  0.00  0.00    +0.029 A 
ATOM     23  C   UNL     1       5.903   1.975   1.087  0.00  0.00    +0.005 A 
ATOM     24  C   UNL     1       5.104   2.154  -1.186  0.00  0.00    +0.005 A 
ATOM     25  C   UNL     1       5.668   2.743  -0.054  0.00  0.00    -0.050 A 
ATOM     27  C   UNL     1       6.021   4.191  -0.064  0.00  0.00    +0.044 C 
ENDBRANCH   1  15
ENDBRANCH   7   1
ENDBRANCH  12   7
ENDBRANCH  10  12
TORSDOF 8
