REMARK  Name = 51137359
REMARK  5 active torsions:
REMARK  status: ('A' for Active; 'I' for Inactive)
REMARK    1  A    between atoms: N_3  and  C_11
REMARK    2  A    between atoms: C_7  and  C_12
REMARK    3  A    between atoms: C_11  and  C_13
REMARK    4  A    between atoms: C_14  and  C_15
REMARK    5  A    between atoms: C_15  and  C_18
REMARK                            x       y       z     vdW  Elec       q    Type
REMARK                         _______ _______ _______ _____ _____    ______ ____
ROOT
ATOM      2  O   UNL     1      -2.486   0.204   0.138  0.00  0.00    -0.424 OA
ATOM      4  N   UNL     1      -4.101   1.021  -1.178  0.00  0.00    -0.112 NA
ATOM      5  N   UNL     1      -4.293  -0.343  -1.063  0.00  0.00    -0.112 NA
ATOM     12  C   UNL     1      -3.036   1.296  -0.461  0.00  0.00    +0.222 A 
ATOM     14  C   UNL     1      -3.328  -0.778  -0.287  0.00  0.00    +0.222 A 
ENDROOT
BRANCH  12   7
ATOM      3  N   UNL     1      -0.137   2.819   0.612  0.00  0.00    -0.297 NA
ATOM      7  C   UNL     1      -2.356   2.624  -0.215  0.00  0.00    +0.092 C 
ATOM      8  C   UNL     1      -2.348   3.022   1.268  0.00  0.00    +0.029 C 
ATOM      9  C   UNL     1      -0.879   2.681  -0.645  0.00  0.00    +0.097 C 
ATOM     10  C   UNL     1      -0.978   3.642   1.479  0.00  0.00    +0.085 C 
BRANCH   3  11
ATOM     11  C   UNL     1       1.190   3.384   0.419  0.00  0.00    +0.119 C 
BRANCH  11  13
ATOM      1 CL   UNL     1       5.138  -0.759  -1.434  0.00  0.00    -0.084 Cl
ATOM     13  C   UNL     1       2.178   2.348  -0.045  0.00  0.00    -0.033 A 
ATOM     16  C   UNL     1       2.910   1.615   0.889  0.00  0.00    +0.006 A 
ATOM     17  C   UNL     1       2.362   2.120  -1.409  0.00  0.00    +0.006 A 
ATOM     22  C   UNL     1       3.826   0.655   0.459  0.00  0.00    +0.020 A 
ATOM     23  C   UNL     1       3.278   1.160  -1.839  0.00  0.00    +0.020 A 
ATOM     24  C   UNL     1       4.010   0.428  -0.904  0.00  0.00    +0.041 A 
ENDBRANCH  11  13
ENDBRANCH   3  11
ENDBRANCH  12   7
BRANCH  14  15
ATOM     15  C   UNL     1      -3.042  -2.142   0.175  0.00  0.00    +0.135 C 
BRANCH  15  18
ATOM      6  N   UNL     1       0.030  -3.620  -1.260  0.00  0.00    -0.360 N 
ATOM     18  C   UNL     1      -1.649  -2.655  -0.175  0.00  0.00    -0.013 A 
ATOM     19  C   UNL     1      -0.474  -2.523   0.616  0.00  0.00    +0.003 A 
ATOM     20  C   UNL     1       0.565  -3.137  -0.088  0.00  0.00    +0.047 A 
ATOM     21  C   UNL     1      -1.308  -3.334  -1.322  0.00  0.00    +0.087 A 
ATOM     25  C   UNL     1      -0.193  -1.938   1.866  0.00  0.00    +0.010 A 
ATOM     26  C   UNL     1       1.876  -3.195   0.399  0.00  0.00    +0.026 A 
ATOM     27  C   UNL     1       1.114  -1.988   2.366  0.00  0.00    +0.001 A 
ATOM     28  C   UNL     1       2.131  -2.608   1.642  0.00  0.00    +0.002 A 
ATOM     29  H   UNL     1       0.550  -4.115  -1.972  0.00  0.00    +0.165 HD
ENDBRANCH  15  18
ENDBRANCH  14  15
TORSDOF 5
