REMARK  Name = 7135498
REMARK  2 active torsions:
REMARK  status: ('A' for Active; 'I' for Inactive)
REMARK    1  A    between atoms: C_18  and  C_22
REMARK    2  A    between atoms: C_21  and  C_24
REMARK                            x       y       z     vdW  Elec       q    Type
REMARK                         _______ _______ _______ _____ _____    ______ ____
ROOT
ATOM      2  O   UNL     1      -2.886   2.347   0.135  0.00  0.00    -0.273 OA
ATOM      3  O   UNL     1       0.113  -1.881   1.172  0.00  0.00    -0.270 OA
ATOM      4  O   UNL     1      -5.843   0.728  -2.133  0.00  0.00    -0.269 OA
ATOM      7  N   UNL     1      -1.514  -0.648   0.084  0.00  0.00    -0.283 N 
ATOM      8  N   UNL     1      -4.277  -0.184  -0.695  0.00  0.00    -0.293 N 
ATOM      9  N   UNL     1      -0.631   2.158   0.382  0.00  0.00    -0.283 N 
ATOM     10  C   UNL     1      -1.846   0.409  -0.860  0.00  0.00    +0.180 C 
ATOM     11  C   UNL     1      -3.169   0.157  -1.593  0.00  0.00    +0.140 C 
ATOM     12  C   UNL     1      -2.575  -1.595   0.431  0.00  0.00    +0.128 C 
ATOM     13  C   UNL     1      -3.930  -0.909   0.534  0.00  0.00    +0.127 C 
ATOM     14  C   UNL     1      -1.855   1.698  -0.053  0.00  0.00    +0.239 C 
ATOM     15  C   UNL     1      -0.217  -0.883   0.529  0.00  0.00    +0.249 C 
ATOM     16  C   UNL     1       0.834   0.132   0.250  0.00  0.00    +0.059 A 
ATOM     17  C   UNL     1       0.624   1.520   0.291  0.00  0.00    +0.046 A 
ATOM     18  C   UNL     1      -5.595   0.117  -1.092  0.00  0.00    +0.253 C 
ATOM     19  C   UNL     1       2.144  -0.364   0.116  0.00  0.00    +0.023 A 
ATOM     20  C   UNL     1       1.739   2.377   0.270  0.00  0.00    +0.024 A 
ATOM     21  C   UNL     1       3.234   0.503   0.047  0.00  0.00    -0.017 A 
ATOM     23  C   UNL     1       3.032   1.874   0.137  0.00  0.00    +0.010 A 
ATOM     34  H   UNL     1      -0.620   3.117   0.721  0.00  0.00    +0.155 HD
ENDROOT
BRANCH  21  24
ATOM      5  O   UNL     1       8.076   0.653   0.766  0.00  0.00    -0.453 OA
ATOM      6  O   UNL     1       8.423  -1.413  -0.427  0.00  0.00    -0.453 OA
ATOM     24  C   UNL     1       4.573  -0.025  -0.095  0.00  0.00    -0.014 A 
ATOM     26  C   UNL     1       5.654   0.666   0.460  0.00  0.00    +0.058 A 
ATOM     27  C   UNL     1       4.777  -1.230  -0.791  0.00  0.00    +0.012 A 
ATOM     28  C   UNL     1       6.912   0.123   0.299  0.00  0.00    +0.167 A 
ATOM     29  C   UNL     1       7.111  -1.056  -0.383  0.00  0.00    +0.166 A 
ATOM     30  C   UNL     1       6.062  -1.758  -0.940  0.00  0.00    +0.050 A 
ATOM     33  C   UNL     1       9.029  -0.326   0.303  0.00  0.00    +0.466 C 
ENDBRANCH  21  24
BRANCH  18  22
ATOM      1  S   UNL     1      -7.221   0.701   1.025  0.00  0.00    -0.092 S 
ATOM     22  C   UNL     1      -6.677  -0.334  -0.221  0.00  0.00    +0.074 A 
ATOM     25  C   UNL     1      -7.361  -1.524  -0.252  0.00  0.00    +0.021 A 
ATOM     31  C   UNL     1      -8.354  -1.590   0.768  0.00  0.00    +0.008 A 
ATOM     32  C   UNL     1      -8.385  -0.446   1.535  0.00  0.00    +0.046 A 
ENDBRANCH  18  22
TORSDOF 2
