REMARK  Name = 51136987
REMARK  2 active torsions:
REMARK  status: ('A' for Active; 'I' for Inactive)
REMARK    1  A    between atoms: C_6  and  C_10
REMARK    2  A    between atoms: C_11  and  C_14
REMARK                            x       y       z     vdW  Elec       q    Type
REMARK                         _______ _______ _______ _____ _____    ______ ____
ROOT
ATOM      3  O   UNL     1       3.114   0.695   2.348  0.00  0.00    -0.270 OA
ATOM      4  N   UNL     1       1.778   1.331   0.557  0.00  0.00    -0.297 N 
ATOM      6  C   UNL     1      -0.067   1.912  -0.828  0.00  0.00    +0.094 C 
ATOM      7  C   UNL     1       0.134   2.994   0.244  0.00  0.00    +0.033 C 
ATOM      8  C   UNL     1       1.291   1.197  -0.817  0.00  0.00    +0.121 C 
ATOM      9  C   UNL     1       0.997   2.310   1.296  0.00  0.00    +0.109 C 
ATOM     11  C   UNL     1       2.786   0.600   1.167  0.00  0.00    +0.247 C 
ENDROOT
BRANCH   6  10
ATOM      1 CL   UNL     1      -5.700  -2.846   1.017  0.00  0.00    -0.083 Cl
ATOM      2  O   UNL     1      -2.463   1.498  -1.067  0.00  0.00    -0.439 OA
ATOM      5  N   UNL     1      -1.359  -0.058   0.157  0.00  0.00    -0.213 NA
ATOM     10  C   UNL     1      -1.288   1.056  -0.538  0.00  0.00    +0.201 A 
ATOM     12  C   UNL     1      -2.691  -0.390   0.087  0.00  0.00    +0.111 A 
ATOM     13  C   UNL     1      -3.370   0.560  -0.661  0.00  0.00    +0.155 A 
ATOM     15  C   UNL     1      -3.407  -1.469   0.624  0.00  0.00    +0.051 A 
ATOM     16  C   UNL     1      -4.733   0.531  -0.930  0.00  0.00    +0.050 A 
ATOM     19  C   UNL     1      -4.786  -1.533   0.374  0.00  0.00    +0.043 A 
ATOM     20  C   UNL     1      -5.433  -0.552  -0.387  0.00  0.00    +0.024 A 
ENDBRANCH   6  10
BRANCH  11  14
ATOM     14  C   UNL     1       3.511  -0.378   0.341  0.00  0.00    +0.037 A 
ATOM     17  C   UNL     1       4.209   0.044  -0.790  0.00  0.00    +0.013 A 
ATOM     18  C   UNL     1       3.501  -1.729   0.690  0.00  0.00    +0.013 A 
ATOM     21  C   UNL     1       4.897  -0.883  -1.572  0.00  0.00    +0.001 A 
ATOM     22  C   UNL     1       4.189  -2.656  -0.091  0.00  0.00    +0.001 A 
ATOM     23  C   UNL     1       4.888  -2.234  -1.223  0.00  0.00    +0.000 A 
ENDBRANCH  11  14
TORSDOF 2
