REMARK  Name = 51136672
REMARK  10 active torsions:
REMARK  status: ('A' for Active; 'I' for Inactive)
REMARK    1  A    between atoms: O_2  and  C_18
REMARK    2  A    between atoms: O_4  and  C_26
REMARK    3  A    between atoms: O_4  and  C_29
REMARK    4  A    between atoms: N_7  and  C_23
REMARK    5  A    between atoms: C_8  and  C_13
REMARK    6  A    between atoms: C_9  and  C_14
REMARK    7  A    between atoms: C_13  and  C_15
REMARK    8  A    between atoms: C_14  and  C_18
REMARK    9  A    between atoms: C_23  and  C_27
REMARK   10  A    between atoms: C_23  and  C_28
REMARK                            x       y       z     vdW  Elec       q    Type
REMARK                         _______ _______ _______ _____ _____    ______ ____
ROOT
ATOM      1  O   UNL     1       0.773  -3.790  -0.842  0.00  0.00    -0.253 OA
ATOM      5  N   UNL     1       1.720  -2.071   0.393  0.00  0.00    -0.285 N 
ATOM      7  N   UNL     1      -0.564  -2.636   0.621  0.00  0.00    -0.297 N 
ATOM      8  C   UNL     1       2.071   0.357   0.749  0.00  0.00    +0.016 C 
ATOM      9  C   UNL     1       3.460   0.220   0.071  0.00  0.00    +0.006 C 
ATOM     10  C   UNL     1       3.509  -0.979  -0.893  0.00  0.00    +0.023 C 
ATOM     11  C   UNL     1       1.673  -0.987   1.384  0.00  0.00    +0.113 C 
ATOM     12  C   UNL     1       3.039  -2.264  -0.213  0.00  0.00    +0.109 C 
ATOM     16  C   UNL     1       0.653  -2.895   0.002  0.00  0.00    +0.302 C 
ATOM     30  H   UNL     1      -0.694  -1.807   1.185  0.00  0.00    +0.150 HD
ENDROOT
BRANCH   7  23
ATOM     23  C   UNL     1      -1.758  -3.393   0.318  0.00  0.00    +0.068 C 
ATOM     27  C   UNL     1      -2.501  -2.764  -0.853  0.00  0.00    +0.027 C 
ATOM     28  C   UNL     1      -2.652  -3.496   1.548  0.00  0.00    +0.027 C 
ENDBRANCH   7  23
BRANCH   8  13
ATOM     13  C   UNL     1       0.965   0.855  -0.188  0.00  0.00    +0.061 C 
BRANCH  13  15
ATOM      6  N   UNL     1       0.110   1.957   1.767  0.00  0.00    -0.287 NA
ATOM     15  C   UNL     1      -0.172   1.431   0.621  0.00  0.00    +0.044 C 
ATOM     17  C   UNL     1      -1.550   1.361   0.070  0.00  0.00    -0.001 A 
ATOM     19  C   UNL     1      -2.602   1.539   0.977  0.00  0.00    -0.033 A 
ATOM     20  C   UNL     1      -2.276   1.769   2.422  0.00  0.00    +0.059 C 
ATOM     21  C   UNL     1      -0.985   2.571   2.525  0.00  0.00    +0.146 C 
ATOM     22  C   UNL     1      -1.811   1.117  -1.280  0.00  0.00    +0.013 A 
ATOM     24  C   UNL     1      -3.922   1.444   0.529  0.00  0.00    +0.050 A 
ATOM     25  C   UNL     1      -3.133   1.040  -1.721  0.00  0.00    +0.046 A 
ATOM     26  C   UNL     1      -4.186   1.200  -0.819  0.00  0.00    +0.120 A 
BRANCH  26   4
ATOM      4  O   UNL     1      -5.473   1.116  -1.256  0.00  0.00    -0.495 OA
ATOM     29  C   UNL     1      -5.671   0.862  -2.646  0.00  0.00    +0.277 C 
ENDBRANCH  26   4
ENDBRANCH  13  15
ENDBRANCH   8  13
BRANCH   9  14
ATOM     14  C   UNL     1       3.911   1.498  -0.635  0.00  0.00    +0.124 C 
BRANCH  14  18
ATOM      3  O   UNL     1       6.204   0.694  -0.433  0.00  0.00    -0.251 OA
ATOM     18  C   UNL     1       5.406   1.545  -0.797  0.00  0.00    +0.305 C 
BRANCH  18   2
ATOM      2  O   UNL     1       5.763   2.696  -1.422  0.00  0.00    -0.481 OA
ATOM     31  H   UNL     1       6.734   2.760  -1.545  0.00  0.00    +0.295 HD
ENDBRANCH  18   2
ENDBRANCH  14  18
ENDBRANCH   9  14
TORSDOF 7
