REMARK  Name = 11882434
REMARK  12 active torsions:
REMARK  status: ('A' for Active; 'I' for Inactive)
REMARK    1  A    between atoms: S_1  and  C_23
REMARK    2  A    between atoms: S_1  and  C_26
REMARK    3  A    between atoms: O_2  and  C_13
REMARK    4  A    between atoms: O_3  and  C_17
REMARK    5  A    between atoms: O_4  and  C_18
REMARK    6  A    between atoms: N_10  and  C_14
REMARK    7  A    between atoms: N_11  and  C_20
REMARK    8  A    between atoms: C_13  and  C_19
REMARK    9  A    between atoms: C_20  and  C_21
REMARK   10  A    between atoms: C_20  and  C_24
REMARK   11  A    between atoms: C_21  and  C_23
REMARK   12  A    between atoms: C_22  and  C_25
REMARK                            x       y       z     vdW  Elec       q    Type
REMARK                         _______ _______ _______ _____ _____    ______ ____
ROOT
ATOM     13  C   UNL     1      -1.154  -1.319  -0.755  0.00  0.00    +0.146 C 
ATOM     14  C   UNL     1      -2.868   0.401  -0.008  0.00  0.00    +0.107 C 
ATOM     15  C   UNL     1      -1.448   0.166  -0.534  0.00  0.00    +0.069 C 
ATOM     16  C   UNL     1      -1.426  -2.133   0.508  0.00  0.00    +0.078 C 
ATOM     17  C   UNL     1      -3.157  -0.431   1.248  0.00  0.00    +0.163 C 
ATOM     18  C   UNL     1      -2.844  -1.915   1.039  0.00  0.00    +0.148 C 
ENDROOT
BRANCH  14  10
ATOM      6  O   UNL     1      -3.775   2.437  -1.868  0.00  0.00    -0.276 OA
ATOM     10  N   UNL     1      -3.064   1.810   0.258  0.00  0.00    -0.310 N 
ATOM     22  C   UNL     1      -3.502   2.705  -0.701  0.00  0.00    +0.210 C 
ATOM     25  C   UNL     1      -3.643   4.100  -0.153  0.00  0.00    +0.109 C 
ATOM     27  H   UNL     1      -2.816   2.159   1.179  0.00  0.00    +0.149 HD
ENDBRANCH  14  10
BRANCH  13  19
ATOM      5  O   UNL     1       0.540  -2.056  -2.270  0.00  0.00    -0.273 OA
ATOM     11  N   UNL     1       1.177  -1.046  -0.272  0.00  0.00    -0.302 N 
ATOM     19  C   UNL     1       0.265  -1.516  -1.202  0.00  0.00    +0.245 C 
ATOM     29  H   UNL     1       0.852  -0.681   0.617  0.00  0.00    +0.150 HD
BRANCH  11  20
ATOM     20  C   UNL     1       2.608  -1.137  -0.452  0.00  0.00    +0.160 C 
BRANCH  20  24
ATOM      7  O   UNL     1       2.531  -3.055   1.037  0.00  0.00    -0.274 OA
ATOM     12  N   UNL     1       4.062  -3.057  -0.675  0.00  0.00    -0.328 N 
ATOM     24  C   UNL     1       3.050  -2.495   0.074  0.00  0.00    +0.231 C 
ATOM     32  H   UNL     1       4.438  -3.969  -0.440  0.00  0.00    +0.145 HD
ATOM     33  H   UNL     1       4.479  -2.585  -1.471  0.00  0.00    +0.145 HD
ENDBRANCH  20  24
BRANCH  20  21
ATOM     21  C   UNL     1       3.351  -0.013   0.273  0.00  0.00    +0.054 C 
BRANCH  21  23
ATOM     23  C   UNL     1       2.967   1.366  -0.248  0.00  0.00    +0.168 C 
BRANCH  23   1
ATOM      1  S   UNL     1       3.859   2.639   0.589  0.00  0.00    -0.034 S 
ATOM      8  O   UNL     1       3.471   2.621   1.989  0.00  0.00    -0.175 OA
ATOM      9  O   UNL     1       5.258   2.539   0.208  0.00  0.00    -0.175 OA
ATOM     26  C   UNL     1       3.213   4.132  -0.128  0.00  0.00    +0.194 C 
ENDBRANCH  23   1
ENDBRANCH  21  23
ENDBRANCH  20  21
ENDBRANCH  11  20
ENDBRANCH  13  19
BRANCH  13   2
ATOM      2  O   UNL     1      -1.949  -1.832  -1.819  0.00  0.00    -0.379 OA
ATOM     28  H   UNL     1      -1.813  -2.794  -1.868  0.00  0.00    +0.211 HD
ENDBRANCH  13   2
BRANCH  17   3
ATOM      3  O   UNL     1      -4.546  -0.324   1.571  0.00  0.00    -0.387 OA
ATOM     30  H   UNL     1      -5.058  -0.645   0.809  0.00  0.00    +0.210 HD
ENDBRANCH  17   3
BRANCH  18   4
ATOM      4  O   UNL     1      -2.975  -2.585   2.293  0.00  0.00    -0.389 OA
ATOM     31  H   UNL     1      -2.785  -3.527   2.142  0.00  0.00    +0.210 HD
ENDBRANCH  18   4
TORSDOF 10
