REMARK  Name = 71694325
REMARK  6 active torsions:
REMARK  status: ('A' for Active; 'I' for Inactive)
REMARK    1  A    between atoms: S_1  and  N_9
REMARK    2  A    between atoms: S_1  and  C_17
REMARK    3  A    between atoms: O_8  and  C_25
REMARK    4  A    between atoms: O_8  and  C_26
REMARK    5  A    between atoms: C_12  and  C_15
REMARK    6  A    between atoms: C_18  and  C_20
REMARK                            x       y       z     vdW  Elec       q    Type
REMARK                         _______ _______ _______ _____ _____    ______ ____
ROOT
ATOM     10  N   UNL     1       0.925   0.514   0.335  0.00  0.00    -0.340 N 
ATOM     11  N   UNL     1       1.824   0.677  -1.689  0.00  0.00    -0.238 NA
ATOM     15  C   UNL     1       2.072   0.647  -0.399  0.00  0.00    +0.129 A 
ATOM     18  C   UNL     1      -0.119   0.456  -0.544  0.00  0.00    +0.066 A 
ATOM     19  C   UNL     1       0.461   0.558  -1.787  0.00  0.00    +0.139 A 
ATOM     27  H   UNL     1       0.872   0.457   1.343  0.00  0.00    +0.167 HD
ENDROOT
BRANCH  15  12
ATOM      5  O   UNL     1       5.340   2.225   0.601  0.00  0.00    -0.376 OA
ATOM      9  N   UNL     1       4.389  -0.363  -0.118  0.00  0.00    -0.167 NA
ATOM     12  C   UNL     1       3.430   0.741   0.269  0.00  0.00    +0.171 C 
ATOM     13  C   UNL     1       5.731  -0.153   0.517  0.00  0.00    +0.138 C 
ATOM     14  C   UNL     1       4.080   2.095  -0.060  0.00  0.00    +0.188 C 
ATOM     16  C   UNL     1       6.252   1.225   0.150  0.00  0.00    +0.177 C 
BRANCH   9   1
ATOM      1  S   UNL     1       3.806  -1.979   0.029  0.00  0.00    +0.030 S 
ATOM      6  O   UNL     1       4.826  -2.876  -0.458  0.00  0.00    -0.158 OA
ATOM      7  O   UNL     1       2.449  -2.017  -0.460  0.00  0.00    -0.158 OA
ATOM     17  C   UNL     1       3.763  -2.093   1.797  0.00  0.00    +0.215 C 
ENDBRANCH   9   1
ENDBRANCH  15  12
BRANCH  18  20
ATOM     20  C   UNL     1      -1.492   0.315  -0.135  0.00  0.00    +0.000 A 
ATOM     21  C   UNL     1      -2.402  -0.342  -0.963  0.00  0.00    +0.013 A 
ATOM     22  C   UNL     1      -1.912   0.834   1.089  0.00  0.00    +0.013 A 
ATOM     23  C   UNL     1      -3.732  -0.480  -0.567  0.00  0.00    +0.046 A 
ATOM     24  C   UNL     1      -3.242   0.697   1.486  0.00  0.00    +0.046 A 
ATOM     25  C   UNL     1      -4.152   0.040   0.658  0.00  0.00    +0.130 A 
BRANCH  25   8
ATOM      8  O   UNL     1      -5.449  -0.097   1.046  0.00  0.00    -0.406 OA
BRANCH   8  26
ATOM      2  F   UNL     1      -6.087   0.559  -1.050  0.00  0.00    -0.133 F 
ATOM      3  F   UNL     1      -7.591   0.393   0.527  0.00  0.00    -0.133 F 
ATOM      4  F   UNL     1      -6.719  -1.426  -0.314  0.00  0.00    -0.133 F 
ATOM     26  C   UNL     1      -6.453  -0.151   0.039  0.00  0.00    +0.575 C 
ENDBRANCH   8  26
ENDBRANCH  25   8
ENDBRANCH  18  20
TORSDOF 5
