REMARK  Name = 44716365
REMARK  12 active torsions:
REMARK  status: ('A' for Active; 'I' for Inactive)
REMARK    1  A    between atoms: O_4  and  C_20
REMARK    2  A    between atoms: O_4  and  C_25
REMARK    3  A    between atoms: O_6  and  C_28
REMARK    4  A    between atoms: O_6  and  C_36
REMARK    5  A    between atoms: O_7  and  C_31
REMARK    6  A    between atoms: O_7  and  C_38
REMARK    7  A    between atoms: N_9  and  C_23
REMARK    8  A    between atoms: N_11  and  C_30
REMARK    9  A    between atoms: C_13  and  C_19
REMARK   10  A    between atoms: C_14  and  C_20
REMARK   11  A    between atoms: C_22  and  C_24
REMARK   12  A    between atoms: C_34  and  C_39
REMARK                            x       y       z     vdW  Elec       q    Type
REMARK                         _______ _______ _______ _____ _____    ______ ____
ROOT
ATOM      8  N   UNL     1       3.018   4.123  -0.759  0.00  0.00    -0.296 NA
ATOM     12  C   UNL     1       3.575   2.651   1.316  0.00  0.00    +0.002 C 
ATOM     13  C   UNL     1       4.069   1.963   0.013  0.00  0.00    +0.055 C 
ATOM     14  C   UNL     1       1.807   3.958   0.087  0.00  0.00    +0.095 C 
ATOM     15  C   UNL     1       2.061   2.924   1.206  0.00  0.00    +0.026 C 
ATOM     16  C   UNL     1       4.280   4.022   1.390  0.00  0.00    +0.019 C 
ATOM     17  C   UNL     1       3.526   2.795  -1.184  0.00  0.00    +0.094 C 
ATOM     18  C   UNL     1       4.063   4.776   0.066  0.00  0.00    +0.085 C 
ENDROOT
BRANCH  13  19
ATOM      9  N   UNL     1       4.639  -0.350  -0.861  0.00  0.00    -0.270 N 
ATOM     10  N   UNL     1       4.235  -1.631  -0.890  0.00  0.00    -0.171 NA
ATOM     19  C   UNL     1       3.812   0.473  -0.155  0.00  0.00    +0.044 A 
ATOM     21  C   UNL     1       2.795  -0.326   0.309  0.00  0.00    +0.053 A 
ATOM     22  C   UNL     1       3.108  -1.611  -0.174  0.00  0.00    +0.093 A 
ATOM     23  C   UNL     1       5.855   0.022  -1.547  0.00  0.00    +0.172 C 
BRANCH  22  24
ATOM     24  C   UNL     1       2.350  -2.817   0.033  0.00  0.00    +0.006 A 
ATOM     26  C   UNL     1       0.966  -2.752   0.192  0.00  0.00    +0.059 A 
ATOM     27  C   UNL     1       3.000  -4.051   0.076  0.00  0.00    +0.014 A 
ATOM     28  C   UNL     1       0.232  -3.921   0.392  0.00  0.00    +0.162 A 
ATOM     29  C   UNL     1       2.266  -5.219   0.277  0.00  0.00    +0.050 A 
ATOM     31  C   UNL     1       0.882  -5.155   0.435  0.00  0.00    +0.162 A 
BRANCH  28   6
ATOM      6  O   UNL     1      -1.120  -3.846   0.547  0.00  0.00    -0.491 OA
ATOM     36  C   UNL     1      -1.707  -2.547   0.491  0.00  0.00    +0.277 C 
ENDBRANCH  28   6
BRANCH  31   7
ATOM      7  O   UNL     1       0.176  -6.303   0.631  0.00  0.00    -0.491 OA
ATOM     38  C   UNL     1       0.918  -7.522   0.661  0.00  0.00    +0.277 C 
ENDBRANCH  31   7
ENDBRANCH  22  24
ENDBRANCH  13  19
BRANCH  14  20
ATOM     20  C   UNL     1       0.563   3.614  -0.735  0.00  0.00    +0.252 C 
BRANCH  20   4
ATOM      4  O   UNL     1      -0.553   3.585   0.133  0.00  0.00    -0.449 OA
BRANCH   4  25
ATOM      5  O   UNL     1      -1.548   2.016  -1.200  0.00  0.00    -0.226 OA
ATOM     11  N   UNL     1      -2.581   2.820   0.741  0.00  0.00    -0.251 N 
ATOM     25  C   UNL     1      -1.577   2.728  -0.204  0.00  0.00    +0.405 C 
ATOM     40  H   UNL     1      -2.422   3.473   1.504  0.00  0.00    +0.158 HD
BRANCH  11  30
ATOM     30  C   UNL     1      -3.807   2.118   0.779  0.00  0.00    +0.037 A 
ATOM     32  C   UNL     1      -4.117   1.200  -0.224  0.00  0.00    +0.035 A 
ATOM     33  C   UNL     1      -4.707   2.344   1.821  0.00  0.00    +0.023 A 
ATOM     34  C   UNL     1      -5.327   0.507  -0.185  0.00  0.00    +0.057 A 
ATOM     35  C   UNL     1      -5.917   1.650   1.859  0.00  0.00    +0.002 A 
ATOM     37  C   UNL     1      -6.227   0.732   0.856  0.00  0.00    +0.012 A 
BRANCH  34  39
ATOM      1  F   UNL     1      -6.876  -1.064  -1.072  0.00  0.00    -0.166 F 
ATOM      2  F   UNL     1      -5.705   0.074  -2.508  0.00  0.00    -0.166 F 
ATOM      3  F   UNL     1      -4.766  -1.504  -1.354  0.00  0.00    -0.166 F 
ATOM     39  C   UNL     1      -5.659  -0.475  -1.258  0.00  0.00    +0.417 C 
ENDBRANCH  34  39
ENDBRANCH  11  30
ENDBRANCH   4  25
ENDBRANCH  20   4
ENDBRANCH  14  20
TORSDOF 9
