REMARK  Name = 11911954
REMARK  6 active torsions:
REMARK  status: ('A' for Active; 'I' for Inactive)
REMARK    1  A    between atoms: N_3  and  C_9
REMARK    2  A    between atoms: N_4  and  C_10
REMARK    3  A    between atoms: N_4  and  C_22
REMARK    4  A    between atoms: C_13  and  C_16
REMARK    5  A    between atoms: C_16  and  C_20
REMARK    6  A    between atoms: C_22  and  C_23
REMARK                            x       y       z     vdW  Elec       q    Type
REMARK                         _______ _______ _______ _____ _____    ______ ____
ROOT
ATOM      1  O   UNL     1       1.498   1.313   1.210  0.00  0.00    -0.370 OA
ATOM      2  O   UNL     1       0.787   2.099  -1.933  0.00  0.00    -0.370 OA
ATOM      7  C   UNL     1       0.347   1.226  -0.882  0.00  0.00    +0.175 C 
ATOM      8  C   UNL     1       1.589   0.789  -0.120  0.00  0.00    +0.168 C 
ATOM      9  C   UNL     1      -0.502   1.988   0.120  0.00  0.00    +0.166 C 
ATOM     10  C   UNL     1       2.751   1.428  -0.864  0.00  0.00    +0.111 C 
ATOM     11  C   UNL     1       0.483   2.325   1.233  0.00  0.00    +0.189 C 
ATOM     12  C   UNL     1       2.151   1.770  -2.210  0.00  0.00    +0.181 C 
ENDROOT
BRANCH   9   3
ATOM      3  N   UNL     1      -1.668   1.228   0.581  0.00  0.00    -0.244 N 
ATOM      5  N   UNL     1      -1.517   0.023   1.156  0.00  0.00    -0.065 NA
ATOM      6  N   UNL     1      -2.730  -0.423   1.462  0.00  0.00    -0.134 NA
ATOM     17  C   UNL     1      -2.978   1.586   0.504  0.00  0.00    +0.134 A 
ATOM     20  C   UNL     1      -3.609   0.526   1.066  0.00  0.00    +0.083 A 
BRANCH  20  16
ATOM     16  C   UNL     1      -5.078   0.328   1.271  0.00  0.00    +0.062 C 
BRANCH  16  13
ATOM     13  C   UNL     1      -5.741  -0.366   0.082  0.00  0.00    -0.005 C 
ATOM     14  C   UNL     1      -5.468  -1.876   0.115  0.00  0.00    +0.004 C 
ATOM     15  C   UNL     1      -7.249  -0.084   0.062  0.00  0.00    +0.004 C 
ATOM     18  C   UNL     1      -6.165  -2.599  -1.035  0.00  0.00    +0.000 C 
ATOM     19  C   UNL     1      -7.943  -0.810  -1.088  0.00  0.00    +0.000 C 
ATOM     21  C   UNL     1      -7.662  -2.309  -1.057  0.00  0.00    +0.000 C 
ENDBRANCH  16  13
ENDBRANCH  20  16
ENDBRANCH   9   3
BRANCH  10   4
ATOM      4  N   UNL     1       3.891   0.563  -0.978  0.00  0.00    -0.305 NA
ATOM     29  H   UNL     1       4.608   1.013  -1.548  0.00  0.00    +0.123 HD
BRANCH   4  22
ATOM     22  C   UNL     1       4.433   0.249   0.335  0.00  0.00    +0.116 C 
BRANCH  22  23
ATOM     23  C   UNL     1       5.630  -0.660   0.244  0.00  0.00    -0.034 A 
ATOM     24  C   UNL     1       5.447  -2.036   0.273  0.00  0.00    +0.005 A 
ATOM     25  C   UNL     1       6.899  -0.110   0.135  0.00  0.00    +0.005 A 
ATOM     26  C   UNL     1       6.556  -2.878   0.190  0.00  0.00    +0.000 A 
ATOM     27  C   UNL     1       8.008  -0.952   0.051  0.00  0.00    +0.000 A 
ATOM     28  C   UNL     1       7.837  -2.336   0.079  0.00  0.00    +0.000 A 
ENDBRANCH  22  23
ENDBRANCH   4  22
ENDBRANCH  10   4
TORSDOF 6
