REMARK  Name = 44716941
REMARK  16 active torsions:
REMARK  status: ('A' for Active; 'I' for Inactive)
REMARK    1  A    between atoms: O_1  and  C_17
REMARK    2  A    between atoms: O_1  and  C_26
REMARK    3  A    between atoms: O_2  and  C_18
REMARK    4  A    between atoms: O_3  and  C_22
REMARK    5  A    between atoms: O_6  and  C_34
REMARK    6  A    between atoms: O_6  and  C_37
REMARK    7  A    between atoms: O_7  and  C_35
REMARK    8  A    between atoms: O_7  and  C_38
REMARK    9  A    between atoms: O_8  and  C_36
REMARK   10  A    between atoms: O_8  and  C_39
REMARK   11  A    between atoms: N_10  and  C_31
REMARK   12  A    between atoms: C_11  and  C_21
REMARK   13  A    between atoms: C_13  and  C_22
REMARK   14  A    between atoms: C_13  and  C_24
REMARK   15  A    between atoms: C_14  and  C_23
REMARK   16  A    between atoms: C_23  and  C_25
REMARK                            x       y       z     vdW  Elec       q    Type
REMARK                         _______ _______ _______ _____ _____    ______ ____
ROOT
ATOM     11  C   UNL     1      -2.926  -0.799   0.309  0.00  0.00    -0.023 C 
ATOM     12  C   UNL     1      -2.262  -1.797  -0.717  0.00  0.00    +0.007 C 
ATOM     13  C   UNL     1      -0.762  -2.199  -0.444  0.00  0.00    +0.031 C 
ATOM     14  C   UNL     1      -4.285  -0.304  -0.340  0.00  0.00    +0.032 C 
ATOM     15  C   UNL     1      -1.977   0.416   0.495  0.00  0.00    +0.011 C 
ATOM     16  C   UNL     1      -3.203  -2.985  -1.017  0.00  0.00    +0.007 C 
ATOM     17  C   UNL     1       0.069  -0.905  -0.194  0.00  0.00    +0.186 C 
ATOM     18  C   UNL     1      -5.230  -1.459  -0.744  0.00  0.00    +0.119 C 
ATOM     19  C   UNL     1      -0.544   0.030   0.843  0.00  0.00    +0.046 C 
ATOM     20  C   UNL     1      -4.530  -2.506  -1.607  0.00  0.00    +0.032 C 
ATOM     21  C   UNL     1      -3.184  -1.422   1.702  0.00  0.00    +0.012 C 
ATOM     24  C   UNL     1      -0.181  -2.888  -1.712  0.00  0.00    +0.017 C 
ENDROOT
BRANCH  18   2
ATOM      2  O   UNL     1      -5.792  -2.082   0.407  0.00  0.00    -0.391 OA
ATOM     40  H   UNL     1      -6.402  -2.775   0.101  0.00  0.00    +0.210 HD
ENDBRANCH  18   2
BRANCH  17   1
ATOM      1  O   UNL     1       1.395  -1.202   0.242  0.00  0.00    -0.446 OA
BRANCH   1  26
ATOM      5  O   UNL     1       2.140   0.713  -0.762  0.00  0.00    -0.226 OA
ATOM     10  N   UNL     1       3.581  -0.732   0.385  0.00  0.00    -0.251 N 
ATOM     26  C   UNL     1       2.366  -0.300  -0.111  0.00  0.00    +0.405 C 
ATOM     42  H   UNL     1       3.568  -1.605   0.907  0.00  0.00    +0.158 HD
BRANCH  10  31
ATOM     31  C   UNL     1       4.844  -0.110   0.258  0.00  0.00    +0.044 A 
ATOM     32  C   UNL     1       4.963   1.091  -0.441  0.00  0.00    +0.073 A 
ATOM     33  C   UNL     1       5.972  -0.698   0.831  0.00  0.00    +0.073 A 
ATOM     34  C   UNL     1       7.218  -0.085   0.705  0.00  0.00    +0.167 A 
ATOM     35  C   UNL     1       6.209   1.705  -0.566  0.00  0.00    +0.167 A 
ATOM     36  C   UNL     1       7.337   1.117   0.007  0.00  0.00    +0.204 A 
BRANCH  34   6
ATOM      6  O   UNL     1       8.312  -0.670   1.269  0.00  0.00    -0.491 OA
ATOM     37  C   UNL     1       9.040  -1.593   0.463  0.00  0.00    +0.277 C 
ENDBRANCH  34   6
BRANCH  35   7
ATOM      7  O   UNL     1       6.312   2.878  -1.251  0.00  0.00    -0.491 OA
ATOM     38  C   UNL     1       5.111   3.411  -1.806  0.00  0.00    +0.277 C 
ENDBRANCH  35   7
BRANCH  36   8
ATOM      8  O   UNL     1       8.555   1.716  -0.117  0.00  0.00    -0.488 OA
ATOM     39  C   UNL     1       8.924   2.646   0.899  0.00  0.00    +0.277 C 
ENDBRANCH  36   8
ENDBRANCH  10  31
ENDBRANCH   1  26
ENDBRANCH  17   1
BRANCH  13  22
ATOM     22  C   UNL     1      -0.581  -3.215   0.703  0.00  0.00    +0.166 C 
BRANCH  22   3
ATOM      3  O   UNL     1       0.675  -3.835   0.540  0.00  0.00    -0.394 OA
ATOM     41  H   UNL     1       0.778  -4.476   1.264  0.00  0.00    +0.209 HD
ENDBRANCH  22   3
ENDBRANCH  13  22
BRANCH  14  23
ATOM     23  C   UNL     1      -5.056   0.736   0.488  0.00  0.00    +0.102 C 
BRANCH  23  25
ATOM      4  O   UNL     1      -5.669   1.727  -1.590  0.00  0.00    -0.276 OA
ATOM      9  N   UNL     1      -7.132   1.992   0.179  0.00  0.00    -0.301 N 
ATOM     25  C   UNL     1      -5.972   1.526  -0.412  0.00  0.00    +0.216 C 
ATOM     27  C   UNL     1      -8.116   2.776  -0.553  0.00  0.00    +0.108 C 
ATOM     28  C   UNL     1      -7.550   1.786   1.562  0.00  0.00    +0.108 C 
ATOM     29  C   UNL     1      -9.340   2.790   0.350  0.00  0.00    +0.020 C 
ATOM     30  C   UNL     1      -8.731   2.729   1.746  0.00  0.00    +0.020 C 
ENDBRANCH  23  25
ENDBRANCH  14  23
TORSDOF 11
