REMARK  Name = 40780662
REMARK  8 active torsions:
REMARK  status: ('A' for Active; 'I' for Inactive)
REMARK    1  A    between atoms: O_5  and  C_14
REMARK    2  A    between atoms: O_6  and  C_15
REMARK    3  A    between atoms: N_10  and  C_24
REMARK    4  A    between atoms: N_11  and  C_18
REMARK    5  A    between atoms: N_12  and  C_31
REMARK    6  A    between atoms: C_13  and  C_17
REMARK    7  A    between atoms: C_16  and  C_18
REMARK    8  A    between atoms: C_17  and  C_19
REMARK                            x       y       z     vdW  Elec       q    Type
REMARK                         _______ _______ _______ _____ _____    ______ ____
ROOT
ATOM      4  O   UNL     1       3.523   1.429  -0.499  0.00  0.00    -0.366 OA
ATOM     13  C   UNL     1       3.047   2.775  -0.320  0.00  0.00    +0.159 C 
ATOM     14  C   UNL     1       3.941   3.388   0.745  0.00  0.00    +0.175 C 
ATOM     15  C   UNL     1       5.275   2.743   0.429  0.00  0.00    +0.176 C 
ATOM     16  C   UNL     1       4.859   1.328   0.043  0.00  0.00    +0.167 C 
ENDROOT
BRANCH  14   5
ATOM      5  O   UNL     1       3.969   4.797   0.666  0.00  0.00    -0.387 OA
ATOM     37  H   UNL     1       4.644   5.111   1.292  0.00  0.00    +0.210 HD
ENDBRANCH  14   5
BRANCH  15   6
ATOM      6  O   UNL     1       5.865   3.359  -0.714  0.00  0.00    -0.387 OA
ATOM     38  H   UNL     1       6.697   2.890  -0.900  0.00  0.00    +0.210 HD
ENDBRANCH  15   6
BRANCH  13  17
ATOM     17  C   UNL     1       1.579   2.752   0.067  0.00  0.00    +0.130 C 
BRANCH  17  19
ATOM      7  O   UNL     1       1.347   1.614  -2.004  0.00  0.00    -0.276 OA
ATOM      9  N   UNL     1      -0.590   1.915  -0.757  0.00  0.00    -0.298 N 
ATOM     10  N   UNL     1      -3.398   1.410  -0.265  0.00  0.00    -0.327 N 
ATOM     19  C   UNL     1       0.779   2.040  -0.996  0.00  0.00    +0.218 C 
ATOM     20  C   UNL     1      -1.434   1.243  -1.741  0.00  0.00    +0.126 C 
ATOM     21  C   UNL     1      -1.262   2.413   0.446  0.00  0.00    +0.126 C 
ATOM     22  C   UNL     1      -2.594   0.498  -1.085  0.00  0.00    +0.124 C 
ATOM     23  C   UNL     1      -2.761   2.629   0.240  0.00  0.00    +0.124 C 
BRANCH  10  24
ATOM      1  F   UNL     1      -8.716   0.334   0.762  0.00  0.00    -0.205 F 
ATOM     24  C   UNL     1      -4.739   1.139  -0.006  0.00  0.00    +0.030 A 
ATOM     26  C   UNL     1      -5.184  -0.182   0.055  0.00  0.00    +0.026 A 
ATOM     27  C   UNL     1      -5.637   2.187   0.193  0.00  0.00    +0.026 A 
ATOM     28  C   UNL     1      -6.528  -0.454   0.314  0.00  0.00    +0.040 A 
ATOM     29  C   UNL     1      -6.980   1.916   0.452  0.00  0.00    +0.040 A 
ATOM     30  C   UNL     1      -7.426   0.595   0.513  0.00  0.00    +0.124 A 
ENDBRANCH  10  24
ENDBRANCH  17  19
ENDBRANCH  13  17
BRANCH  16  18
ATOM     18  C   UNL     1       4.809   0.376   1.230  0.00  0.00    +0.140 C 
BRANCH  18  11
ATOM      8  O   UNL     1       2.134  -0.639   1.098  0.00  0.00    -0.253 OA
ATOM     11  N   UNL     1       4.412  -0.939   0.823  0.00  0.00    -0.297 N 
ATOM     12  N   UNL     1       2.991  -2.692   0.349  0.00  0.00    -0.267 N 
ATOM     25  C   UNL     1       3.074  -1.367   0.784  0.00  0.00    +0.304 C 
ATOM     39  H   UNL     1       5.135  -1.592   0.538  0.00  0.00    +0.150 HD
ATOM     40  H   UNL     1       3.869  -3.157   0.127  0.00  0.00    +0.156 HD
BRANCH  12  31
ATOM      2  F   UNL     1       3.134  -5.330  -0.538  0.00  0.00    -0.203 F 
ATOM      3  F   UNL     1      -1.572  -5.766  -0.324  0.00  0.00    -0.205 F 
ATOM     31  C   UNL     1       1.829  -3.479   0.176  0.00  0.00    +0.070 A 
ATOM     32  C   UNL     1       1.934  -4.796  -0.269  0.00  0.00    +0.147 A 
ATOM     33  C   UNL     1       0.575  -2.934   0.453  0.00  0.00    +0.029 A 
ATOM     34  C   UNL     1       0.785  -5.569  -0.438  0.00  0.00    +0.078 A 
ATOM     35  C   UNL     1      -0.574  -3.707   0.283  0.00  0.00    +0.040 A 
ATOM     36  C   UNL     1      -0.469  -5.025  -0.162  0.00  0.00    +0.126 A 
ENDBRANCH  12  31
ENDBRANCH  18  11
ENDBRANCH  16  18
TORSDOF 8
