REMARK  Name = 25390478
REMARK  9 active torsions:
REMARK  status: ('A' for Active; 'I' for Inactive)
REMARK    1  A    between atoms: O_3  and  C_12
REMARK    2  A    between atoms: O_4  and  C_13
REMARK    3  A    between atoms: N_6  and  C_8
REMARK    4  A    between atoms: N_7  and  C_16
REMARK    5  A    between atoms: N_7  and  C_18
REMARK    6  A    between atoms: C_9  and  C_15
REMARK    7  A    between atoms: C_14  and  C_16
REMARK    8  A    between atoms: C_15  and  C_17
REMARK    9  A    between atoms: C_18  and  C_19
REMARK                            x       y       z     vdW  Elec       q    Type
REMARK                         _______ _______ _______ _____ _____    ______ ____
ROOT
ATOM      2  O   UNL     1      -1.653   0.251  -0.998  0.00  0.00    -0.366 OA
ATOM      9  C   UNL     1      -2.315   1.138  -0.079  0.00  0.00    +0.158 C 
ATOM     12  C   UNL     1      -1.209   1.770   0.749  0.00  0.00    +0.175 C 
ATOM     13  C   UNL     1      -0.100   1.901  -0.275  0.00  0.00    +0.175 C 
ATOM     14  C   UNL     1      -0.256   0.614  -1.077  0.00  0.00    +0.163 C 
ENDROOT
BRANCH  12   3
ATOM      3  O   UNL     1      -1.604   3.006   1.306  0.00  0.00    -0.387 OA
ATOM     26  H   UNL     1      -0.820   3.403   1.720  0.00  0.00    +0.210 HD
ENDBRANCH  12   3
BRANCH  13   4
ATOM      4  O   UNL     1      -0.359   3.001  -1.147  0.00  0.00    -0.387 OA
ATOM     27  H   UNL     1       0.358   3.025  -1.804  0.00  0.00    +0.210 HD
ENDBRANCH  13   4
BRANCH   9  15
ATOM     15  C   UNL     1      -3.318   0.358   0.752  0.00  0.00    +0.130 C 
BRANCH  15  17
ATOM      5  O   UNL     1      -4.784   0.400  -1.174  0.00  0.00    -0.276 OA
ATOM      6  N   UNL     1      -5.514  -0.622   0.779  0.00  0.00    -0.312 N 
ATOM     17  C   UNL     1      -4.598   0.064  -0.007  0.00  0.00    +0.216 C 
ATOM     25  H   UNL     1      -5.279  -0.855   1.740  0.00  0.00    +0.149 HD
BRANCH   6   8
ATOM      8  C   UNL     1      -6.804  -1.017   0.292  0.00  0.00    +0.073 C 
ATOM     10  C   UNL     1      -6.984  -2.289  -0.484  0.00  0.00    +0.024 C 
ATOM     11  C   UNL     1      -7.545  -2.171   0.903  0.00  0.00    +0.024 C 
ENDBRANCH   6   8
ENDBRANCH  15  17
ENDBRANCH   9  15
BRANCH  14  16
ATOM     16  C   UNL     1       0.558  -0.542  -0.513  0.00  0.00    +0.115 C 
BRANCH  16   7
ATOM      7  N   UNL     1       1.977  -0.216  -0.477  0.00  0.00    -0.309 NA
ATOM     28  H   UNL     1       2.298  -0.005  -1.422  0.00  0.00    +0.122 HD
BRANCH   7  18
ATOM     18  C   UNL     1       2.752  -1.319   0.073  0.00  0.00    +0.116 C 
BRANCH  18  19
ATOM      1  F   UNL     1       8.253  -0.118   0.285  0.00  0.00    -0.205 F 
ATOM     19  C   UNL     1       4.222  -0.999   0.130  0.00  0.00    -0.033 A 
ATOM     20  C   UNL     1       5.045  -1.304  -0.955  0.00  0.00    +0.008 A 
ATOM     21  C   UNL     1       4.761  -0.396   1.266  0.00  0.00    +0.008 A 
ATOM     22  C   UNL     1       6.407  -1.007  -0.902  0.00  0.00    +0.038 A 
ATOM     23  C   UNL     1       6.123  -0.099   1.319  0.00  0.00    +0.038 A 
ATOM     24  C   UNL     1       6.946  -0.405   0.234  0.00  0.00    +0.123 A 
ENDBRANCH  18  19
ENDBRANCH   7  18
ENDBRANCH  16   7
ENDBRANCH  14  16
TORSDOF 9
