REMARK  Name = 45784123
REMARK  11 active torsions:
REMARK  status: ('A' for Active; 'I' for Inactive)
REMARK    1  A    between atoms: O_1  and  C_14
REMARK    2  A    between atoms: O_3  and  C_25
REMARK    3  A    between atoms: O_3  and  C_26
REMARK    4  A    between atoms: C_6  and  C_10
REMARK    5  A    between atoms: C_8  and  C_14
REMARK    6  A    between atoms: C_9  and  C_13
REMARK    7  A    between atoms: C_10  and  C_15
REMARK    8  A    between atoms: C_10  and  C_16
REMARK    9  A    between atoms: C_11  and  C_17
REMARK   10  A    between atoms: C_13  and  C_18
REMARK   11  A    between atoms: C_19  and  C_20
REMARK                            x       y       z     vdW  Elec       q    Type
REMARK                         _______ _______ _______ _____ _____    ______ ____
ROOT
ATOM     13  C   UNL     1       1.726   1.834   0.820  0.00  0.00    +0.105 C 
ENDROOT
BRANCH  13   9
ATOM      6  C   UNL     1       2.411  -1.121  -0.252  0.00  0.00    +0.001 C 
ATOM      7  C   UNL     1       2.158   0.171  -1.044  0.00  0.00    +0.012 C 
ATOM      8  C   UNL     1       3.927  -1.305   0.013  0.00  0.00    +0.040 C 
ATOM      9  C   UNL     1       2.680   1.419  -0.305  0.00  0.00    +0.024 C 
ATOM     11  C   UNL     1       4.085   1.213   0.223  0.00  0.00    -0.073 C 
ATOM     12  C   UNL     1       4.630  -0.010   0.346  0.00  0.00    -0.022 C 
ATOM     17  C   UNL     1       4.867   2.451   0.566  0.00  0.00    +0.039 C 
BRANCH   6  10
ATOM     10  C   UNL     1       1.816  -2.315  -1.004  0.00  0.00    -0.013 C 
ATOM     15  C   UNL     1       2.091  -2.192  -2.499  0.00  0.00    +0.007 C 
ATOM     16  C   UNL     1       0.318  -2.420  -0.736  0.00  0.00    +0.007 C 
ENDBRANCH   6  10
BRANCH   8  14
ATOM     14  C   UNL     1       4.173  -2.323   1.132  0.00  0.00    +0.163 C 
BRANCH  14   1
ATOM      1  O   UNL     1       5.565  -2.548   1.227  0.00  0.00    -0.394 OA
ATOM     27  H   UNL     1       5.705  -3.188   1.946  0.00  0.00    +0.209 HD
ENDBRANCH  14   1
ENDBRANCH   8  14
ENDBRANCH  13   9
BRANCH  13  18
ATOM      2  O   UNL     1      -0.587   1.106   0.544  0.00  0.00    -0.420 OA
ATOM      4  N   UNL     1      -0.139   3.098  -0.369  0.00  0.00    -0.112 NA
ATOM      5  N   UNL     1      -1.472   2.813  -0.599  0.00  0.00    -0.107 NA
ATOM     18  C   UNL     1       0.337   2.075   0.300  0.00  0.00    +0.218 A 
ATOM     19  C   UNL     1      -1.689   1.641  -0.049  0.00  0.00    +0.248 A 
BRANCH  19  20
ATOM     20  C   UNL     1      -2.885   0.853   0.023  0.00  0.00    +0.039 A 
ATOM     21  C   UNL     1      -4.065   1.322  -0.556  0.00  0.00    +0.017 A 
ATOM     22  C   UNL     1      -2.869  -0.382   0.671  0.00  0.00    +0.017 A 
ATOM     23  C   UNL     1      -5.228   0.556  -0.486  0.00  0.00    +0.046 A 
ATOM     24  C   UNL     1      -4.032  -1.148   0.741  0.00  0.00    +0.046 A 
ATOM     25  C   UNL     1      -5.212  -0.680   0.162  0.00  0.00    +0.120 A 
BRANCH  25   3
ATOM      3  O   UNL     1      -6.346  -1.429   0.227  0.00  0.00    -0.495 OA
ATOM     26  C   UNL     1      -6.259  -2.681   0.905  0.00  0.00    +0.277 C 
ENDBRANCH  25   3
ENDBRANCH  19  20
ENDBRANCH  13  18
TORSDOF 7
