REMARK  Name = 38030151
REMARK  9 active torsions:
REMARK  status: ('A' for Active; 'I' for Inactive)
REMARK    1  A    between atoms: O_1  and  C_12
REMARK    2  A    between atoms: C_4  and  C_8
REMARK    3  A    between atoms: C_6  and  C_10
REMARK    4  A    between atoms: C_7  and  C_12
REMARK    5  A    between atoms: C_8  and  C_15
REMARK    6  A    between atoms: C_8  and  C_16
REMARK    7  A    between atoms: C_9  and  C_21
REMARK    8  A    between atoms: C_10  and  C_13
REMARK    9  A    between atoms: C_14  and  C_22
REMARK                            x       y       z     vdW  Elec       q    Type
REMARK                         _______ _______ _______ _____ _____    ______ ____
ROOT
ATOM      4  C   UNL     1      -2.560  -0.705  -0.312  0.00  0.00    +0.001 C 
ATOM      5  C   UNL     1      -1.682  -0.741   0.949  0.00  0.00    +0.012 C 
ATOM      6  C   UNL     1      -0.861   0.551   1.123  0.00  0.00    +0.023 C 
ATOM      7  C   UNL     1      -3.538   0.495  -0.255  0.00  0.00    +0.040 C 
ATOM      9  C   UNL     1      -1.711   1.789   0.926  0.00  0.00    -0.073 C 
ATOM     11  C   UNL     1      -2.910   1.743   0.320  0.00  0.00    -0.022 C 
ATOM     21  C   UNL     1      -1.170   3.077   1.482  0.00  0.00    +0.039 C 
ENDROOT
BRANCH   4   8
ATOM      8  C   UNL     1      -3.301  -2.037  -0.465  0.00  0.00    -0.013 C 
ATOM     15  C   UNL     1      -2.392  -3.082  -1.104  0.00  0.00    +0.007 C 
ATOM     16  C   UNL     1      -3.814  -2.519   0.888  0.00  0.00    +0.007 C 
ENDBRANCH   4   8
BRANCH   6  10
ATOM     10  C   UNL     1       0.354   0.564   0.189  0.00  0.00    +0.103 C 
BRANCH  10  13
ATOM      2  O   UNL     1       1.206  -0.995   1.757  0.00  0.00    -0.276 OA
ATOM      3  N   UNL     1       2.580  -0.480  -0.044  0.00  0.00    -0.301 N 
ATOM     13  C   UNL     1       1.412  -0.376   0.710  0.00  0.00    +0.216 C 
ATOM     14  C   UNL     1       5.329   0.074  -0.789  0.00  0.00    -0.011 C 
ATOM     17  C   UNL     1       2.855   0.242  -1.292  0.00  0.00    +0.108 C 
ATOM     18  C   UNL     1       3.638  -1.401   0.375  0.00  0.00    +0.108 C 
ATOM     19  C   UNL     1       4.176   1.003  -1.197  0.00  0.00    +0.022 C 
ATOM     20  C   UNL     1       4.974  -0.674   0.506  0.00  0.00    +0.022 C 
ATOM     22  C   UNL     1       6.628   0.859  -0.625  0.00  0.00    +0.007 C 
ENDBRANCH  10  13
ENDBRANCH   6  10
BRANCH   7  12
ATOM     12  C   UNL     1      -4.114   0.805  -1.642  0.00  0.00    +0.163 C 
BRANCH  12   1
ATOM      1  O   UNL     1      -5.098   1.810  -1.499  0.00  0.00    -0.394 OA
ATOM     23  H   UNL     1      -5.445   2.001  -2.387  0.00  0.00    +0.209 HD
ENDBRANCH  12   1
ENDBRANCH   7  12
TORSDOF 5
