REMARK  Name = 75536665
REMARK  10 active torsions:
REMARK  status: ('A' for Active; 'I' for Inactive)
REMARK    1  A    between atoms: S_1  and  N_9
REMARK    2  A    between atoms: S_1  and  C_17
REMARK    3  A    between atoms: O_3  and  C_11
REMARK    4  A    between atoms: O_6  and  C_23
REMARK    5  A    between atoms: N_8  and  C_10
REMARK    6  A    between atoms: N_8  and  C_15
REMARK    7  A    between atoms: N_9  and  C_14
REMARK    8  A    between atoms: C_12  and  C_14
REMARK    9  A    between atoms: C_15  and  C_16
REMARK   10  A    between atoms: C_22  and  C_23
REMARK                            x       y       z     vdW  Elec       q    Type
REMARK                         _______ _______ _______ _____ _____    ______ ____
ROOT
ATOM      2  O   UNL     1       2.726  -0.925  -1.157  0.00  0.00    -0.371 OA
ATOM     10  C   UNL     1       0.752   0.337  -0.767  0.00  0.00    +0.111 C 
ATOM     11  C   UNL     1       1.798   0.723   0.262  0.00  0.00    +0.164 C 
ATOM     12  C   UNL     1       3.074   0.265  -0.430  0.00  0.00    +0.164 C 
ATOM     13  C   UNL     1       1.293  -0.995  -1.260  0.00  0.00    +0.181 C 
ENDROOT
BRANCH  11   3
ATOM      3  O   UNL     1       1.812   2.112   0.530  0.00  0.00    -0.388 OA
ATOM     25  H   UNL     1       1.949   2.584  -0.309  0.00  0.00    +0.210 HD
ENDBRANCH  11   3
BRANCH  10   8
ATOM      8  N   UNL     1      -0.593   0.235  -0.223  0.00  0.00    -0.305 NA
ATOM     24  H   UNL     1      -0.774   1.045   0.370  0.00  0.00    +0.123 HD
BRANCH   8  15
ATOM     15  C   UNL     1      -1.588   0.198  -1.288  0.00  0.00    +0.116 C 
BRANCH  15  16
ATOM     16  C   UNL     1      -2.987   0.076  -0.743  0.00  0.00    -0.034 A 
ATOM     18  C   UNL     1      -3.444  -1.152  -0.266  0.00  0.00    +0.006 A 
ATOM     19  C   UNL     1      -3.825   1.190  -0.717  0.00  0.00    +0.006 A 
ATOM     20  C   UNL     1      -4.739  -1.266   0.239  0.00  0.00    +0.015 A 
ATOM     21  C   UNL     1      -5.120   1.077  -0.212  0.00  0.00    +0.015 A 
ATOM     22  C   UNL     1      -5.578  -0.151   0.266  0.00  0.00    +0.059 A 
BRANCH  22  23
ATOM      7  O   UNL     1      -7.435  -1.303   1.240  0.00  0.00    -0.245 OA
ATOM     23  C   UNL     1      -6.928  -0.269   0.792  0.00  0.00    +0.337 C 
BRANCH  23   6
ATOM      6  O   UNL     1      -7.609   0.909   0.746  0.00  0.00    -0.477 OA
ATOM     27  H   UNL     1      -8.519   0.819   1.103  0.00  0.00    +0.295 HD
ENDBRANCH  23   6
ENDBRANCH  22  23
ENDBRANCH  15  16
ENDBRANCH   8  15
ENDBRANCH  10   8
BRANCH  12  14
ATOM     14  C   UNL     1       4.206  -0.036   0.536  0.00  0.00    +0.139 C 
BRANCH  14   9
ATOM      9  N   UNL     1       5.398  -0.472  -0.218  0.00  0.00    -0.192 NA
ATOM     26  H   UNL     1       5.281  -1.386  -0.674  0.00  0.00    +0.148 HD
BRANCH   9   1
ATOM      1  S   UNL     1       6.948  -0.125   0.406  0.00  0.00    +0.027 S 
ATOM      4  O   UNL     1       7.117   1.309   0.536  0.00  0.00    -0.158 OA
ATOM      5  O   UNL     1       7.921  -0.924  -0.314  0.00  0.00    -0.158 OA
ATOM     17  C   UNL     1       6.803  -0.810   2.041  0.00  0.00    +0.214 C 
ENDBRANCH   9   1
ENDBRANCH  14   9
ENDBRANCH  12  14
TORSDOF 9
