REMARK  Name = 26743698
REMARK  9 active torsions:
REMARK  status: ('A' for Active; 'I' for Inactive)
REMARK    1  A    between atoms: O_4  and  C_13
REMARK    2  A    between atoms: O_6  and  C_23
REMARK    3  A    between atoms: O_6  and  C_33
REMARK    4  A    between atoms: O_7  and  C_34
REMARK    5  A    between atoms: O_7  and  C_35
REMARK    6  A    between atoms: N_8  and  C_15
REMARK    7  A    between atoms: C_11  and  C_16
REMARK    8  A    between atoms: C_15  and  C_17
REMARK    9  A    between atoms: C_21  and  C_26
REMARK                            x       y       z     vdW  Elec       q    Type
REMARK                         _______ _______ _______ _____ _____    ______ ____
ROOT
ATOM      8  N   UNL     1      -3.951   0.129   0.293  0.00  0.00    -0.285 NA
ATOM     11  C   UNL     1      -3.668   1.245  -0.632  0.00  0.00    +0.149 C 
ATOM     12  C   UNL     1      -4.375   2.463  -0.008  0.00  0.00    +0.061 C 
ATOM     13  C   UNL     1      -5.065   1.923   1.238  0.00  0.00    +0.130 C 
ATOM     14  C   UNL     1      -5.222   0.443   0.944  0.00  0.00    +0.116 C 
ENDROOT
BRANCH  11  16
ATOM      5  O   UNL     1      -1.814   2.022  -2.022  0.00  0.00    -0.336 OA
ATOM      9  N   UNL     1      -1.186   1.210  -0.032  0.00  0.00    -0.190 NA
ATOM     10  N   UNL     1      -0.419   2.131  -1.980  0.00  0.00    -0.056 NA
ATOM     16  C   UNL     1      -2.185   1.471  -0.837  0.00  0.00    +0.245 A 
ATOM     21  C   UNL     1      -0.123   1.632  -0.776  0.00  0.00    +0.202 A 
BRANCH  21  26
ATOM     26  C   UNL     1       1.222   1.543  -0.286  0.00  0.00    +0.023 A 
ATOM     29  C   UNL     1       1.470   1.014   0.980  0.00  0.00    +0.015 A 
ATOM     30  C   UNL     1       2.282   1.986  -1.077  0.00  0.00    +0.015 A 
ATOM     31  C   UNL     1       2.778   0.929   1.456  0.00  0.00    +0.046 A 
ATOM     32  C   UNL     1       3.590   1.901  -0.601  0.00  0.00    +0.046 A 
ATOM     34  C   UNL     1       3.838   1.372   0.665  0.00  0.00    +0.130 A 
BRANCH  34   7
ATOM      7  O   UNL     1       5.115   1.289   1.129  0.00  0.00    -0.406 OA
BRANCH   7  35
ATOM      1  F   UNL     1       6.950  -0.020   1.253  0.00  0.00    -0.133 F 
ATOM      2  F   UNL     1       5.437  -0.511  -0.245  0.00  0.00    -0.133 F 
ATOM      3  F   UNL     1       6.723   1.268  -0.497  0.00  0.00    -0.133 F 
ATOM     35  C   UNL     1       6.051   0.508   0.393  0.00  0.00    +0.575 C 
ENDBRANCH   7  35
ENDBRANCH  34   7
ENDBRANCH  21  26
ENDBRANCH  11  16
BRANCH  13   4
ATOM      4  O   UNL     1      -6.315   2.554   1.434  0.00  0.00    -0.390 OA
ATOM     36  H   UNL     1      -6.148   3.506   1.540  0.00  0.00    +0.210 HD
ENDBRANCH  13   4
BRANCH   8  15
ATOM     15  C   UNL     1      -3.978  -1.170  -0.365  0.00  0.00    +0.121 C 
BRANCH  15  17
ATOM     17  C   UNL     1      -2.602  -1.709  -0.608  0.00  0.00    -0.025 A 
ATOM     18  C   UNL     1      -1.693  -1.931   0.439  0.00  0.00    -0.010 A 
ATOM     19  C   UNL     1      -2.248  -1.988  -1.929  0.00  0.00    +0.009 A 
ATOM     20  C   UNL     1      -0.407  -2.442   0.143  0.00  0.00    +0.024 A 
ATOM     22  C   UNL     1      -0.983  -2.490  -2.220  0.00  0.00    +0.046 A 
ATOM     23  C   UNL     1      -0.068  -2.716  -1.192  0.00  0.00    +0.128 A 
ATOM     24  C   UNL     1      -2.032  -1.656   1.774  0.00  0.00    +0.009 A 
ATOM     25  C   UNL     1       0.502  -2.663   1.191  0.00  0.00    +0.012 A 
ATOM     27  C   UNL     1      -1.117  -1.882   2.802  0.00  0.00    +0.001 A 
ATOM     28  C   UNL     1       0.148  -2.385   2.511  0.00  0.00    +0.001 A 
BRANCH  23   6
ATOM      6  O   UNL     1       1.161  -3.211  -1.526  0.00  0.00    -0.495 OA
ATOM     33  C   UNL     1       2.181  -2.259  -1.815  0.00  0.00    +0.277 C 
ENDBRANCH  23   6
ENDBRANCH  15  17
ENDBRANCH   8  15
TORSDOF 8
