REMARK  Name = 7142382
REMARK  2 active torsions:
REMARK  status: ('A' for Active; 'I' for Inactive)
REMARK    1  A    between atoms: C_18  and  C_23
REMARK    2  A    between atoms: C_21  and  C_24
REMARK                            x       y       z     vdW  Elec       q    Type
REMARK                         _______ _______ _______ _____ _____    ______ ____
ROOT
ATOM      2  O   UNL     1      -3.016   2.126   0.144  0.00  0.00    -0.273 OA
ATOM      3  O   UNL     1       0.203  -1.877   1.384  0.00  0.00    -0.270 OA
ATOM      4  O   UNL     1      -6.015   0.384  -1.819  0.00  0.00    -0.265 OA
ATOM      6  N   UNL     1      -1.497  -0.796   0.248  0.00  0.00    -0.283 N 
ATOM      7  N   UNL     1      -4.281  -0.506  -0.505  0.00  0.00    -0.290 N 
ATOM      8  N   UNL     1      -0.752   2.065   0.365  0.00  0.00    -0.283 N 
ATOM     10  C   UNL     1      -1.893   0.186  -0.753  0.00  0.00    +0.180 C 
ATOM     11  C   UNL     1      -3.212  -0.174  -1.447  0.00  0.00    +0.140 C 
ATOM     12  C   UNL     1      -2.499  -1.783   0.654  0.00  0.00    +0.128 C 
ATOM     13  C   UNL     1      -3.893  -1.179   0.736  0.00  0.00    +0.127 C 
ATOM     14  C   UNL     1      -1.956   1.519  -0.022  0.00  0.00    +0.239 C 
ATOM     15  C   UNL     1      -0.184  -0.937   0.689  0.00  0.00    +0.249 C 
ATOM     16  C   UNL     1       0.811   0.110   0.334  0.00  0.00    +0.059 A 
ATOM     17  C   UNL     1       0.532   1.486   0.294  0.00  0.00    +0.046 A 
ATOM     18  C   UNL     1      -5.593  -0.175  -0.815  0.00  0.00    +0.301 C 
ATOM     19  C   UNL     1       2.143  -0.327   0.212  0.00  0.00    +0.023 A 
ATOM     20  C   UNL     1       1.602   2.394   0.203  0.00  0.00    +0.024 A 
ATOM     21  C   UNL     1       3.187   0.587   0.074  0.00  0.00    -0.017 A 
ATOM     22  C   UNL     1       2.918   1.949   0.083  0.00  0.00    +0.010 A 
ATOM     30  H   UNL     1      -0.785   3.042   0.645  0.00  0.00    +0.155 HD
ENDROOT
BRANCH  21  24
ATOM      1 CL   UNL     1       8.798  -1.344  -0.458  0.00  0.00    -0.084 Cl
ATOM     24  C   UNL     1       4.550   0.118  -0.055  0.00  0.00    -0.018 A 
ATOM     25  C   UNL     1       5.602   0.889   0.439  0.00  0.00    +0.010 A 
ATOM     26  C   UNL     1       4.811  -1.105  -0.673  0.00  0.00    +0.010 A 
ATOM     27  C   UNL     1       6.916   0.438   0.314  0.00  0.00    +0.020 A 
ATOM     28  C   UNL     1       6.125  -1.557  -0.798  0.00  0.00    +0.020 A 
ATOM     29  C   UNL     1       7.177  -0.785  -0.304  0.00  0.00    +0.041 A 
ENDBRANCH  21  24
BRANCH  18  23
ATOM      5  O   UNL     1      -7.149  -1.625   0.136  0.00  0.00    -0.265 OA
ATOM      9  N   UNL     1      -6.824   0.451   1.135  0.00  0.00    -0.322 N 
ATOM     23  C   UNL     1      -6.609  -0.532   0.205  0.00  0.00    +0.297 C 
ATOM     31  H   UNL     1      -7.496   0.324   1.885  0.00  0.00    +0.145 HD
ATOM     32  H   UNL     1      -6.324   1.334   1.116  0.00  0.00    +0.145 HD
ENDBRANCH  18  23
TORSDOF 2
