REMARK  Name = 26745445
REMARK  7 active torsions:
REMARK  status: ('A' for Active; 'I' for Inactive)
REMARK    1  A    between atoms: S_1  and  N_6
REMARK    2  A    between atoms: S_1  and  C_17
REMARK    3  A    between atoms: O_4  and  C_14
REMARK    4  A    between atoms: O_4  and  C_25
REMARK    5  A    between atoms: N_7  and  C_15
REMARK    6  A    between atoms: C_9  and  C_14
REMARK    7  A    between atoms: C_15  and  C_18
REMARK                            x       y       z     vdW  Elec       q    Type
REMARK                         _______ _______ _______ _____ _____    ______ ____
ROOT
ATOM      6  N   UNL     1       1.679  -0.357  -0.358  0.00  0.00    -0.157 NA
ATOM      7  N   UNL     1      -0.978   2.173   0.372  0.00  0.00    -0.328 N 
ATOM      8  N   UNL     1       0.067   3.386  -1.187  0.00  0.00    -0.240 NA
ATOM      9  C   UNL     1       2.683   0.656  -0.846  0.00  0.00    +0.194 C 
ATOM     10  C   UNL     1       0.585   0.166   0.542  0.00  0.00    +0.165 C 
ATOM     11  C   UNL     1       2.007   1.815  -1.610  0.00  0.00    +0.089 C 
ATOM     12  C   UNL     1       0.129   1.465   0.012  0.00  0.00    +0.057 A 
ATOM     13  C   UNL     1       0.755   2.231  -0.941  0.00  0.00    +0.066 A 
ATOM     16  C   UNL     1      -0.973   3.322  -0.378  0.00  0.00    +0.200 A 
ENDROOT
BRANCH   6   1
ATOM      1  S   UNL     1       2.288  -1.904   0.054  0.00  0.00    +0.062 S 
ATOM      2  O   UNL     1       2.685  -1.900   1.445  0.00  0.00    -0.153 OA
ATOM      3  O   UNL     1       3.201  -2.339  -0.981  0.00  0.00    -0.153 OA
BRANCH   1  17
ATOM     17  C   UNL     1       0.813  -2.863  -0.085  0.00  0.00    +0.106 A 
ATOM     19  C   UNL     1       0.208  -3.382   1.060  0.00  0.00    +0.028 A 
ATOM     20  C   UNL     1       0.252  -3.102  -1.339  0.00  0.00    +0.028 A 
ATOM     23  C   UNL     1      -0.958  -4.140   0.951  0.00  0.00    +0.002 A 
ATOM     24  C   UNL     1      -0.914  -3.860  -1.449  0.00  0.00    +0.002 A 
ATOM     26  C   UNL     1      -1.519  -4.379  -0.304  0.00  0.00    +0.000 A 
ENDBRANCH   1  17
ENDBRANCH   6   1
BRANCH   9  14
ATOM      5  O   UNL     1       3.292   0.794   1.476  0.00  0.00    -0.249 OA
ATOM     14  C   UNL     1       3.484   1.143   0.319  0.00  0.00    +0.326 C 
BRANCH  14   4
ATOM      4  O   UNL     1       4.436   2.017  -0.116  0.00  0.00    -0.467 OA
ATOM     25  C   UNL     1       5.280   2.564   0.903  0.00  0.00    +0.280 C 
ENDBRANCH  14   4
ENDBRANCH   9  14
BRANCH   7  15
ATOM     15  C   UNL     1      -1.969   1.804   1.353  0.00  0.00    +0.158 C 
BRANCH  15  18
ATOM     18  C   UNL     1      -3.244   1.273   0.746  0.00  0.00    -0.028 A 
ATOM     21  C   UNL     1      -4.177   2.155   0.200  0.00  0.00    +0.005 A 
ATOM     22  C   UNL     1      -3.489  -0.100   0.730  0.00  0.00    +0.005 A 
ATOM     27  C   UNL     1      -5.356   1.663  -0.361  0.00  0.00    +0.000 A 
ATOM     28  C   UNL     1      -4.667  -0.591   0.169  0.00  0.00    +0.000 A 
ATOM     29  C   UNL     1      -5.601   0.290  -0.377  0.00  0.00    +0.000 A 
ENDBRANCH  15  18
ENDBRANCH   7  15
TORSDOF 6
