REMARK  Name = 45360655
REMARK  11 active torsions:
REMARK  status: ('A' for Active; 'I' for Inactive)
REMARK    1  A    between atoms: N_6  and  C_10
REMARK    2  A    between atoms: N_6  and  C_18
REMARK    3  A    between atoms: N_7  and  C_23
REMARK    4  A    between atoms: N_8  and  C_26
REMARK    5  A    between atoms: N_8  and  C_30
REMARK    6  A    between atoms: N_8  and  C_31
REMARK    7  A    between atoms: C_12  and  C_16
REMARK    8  A    between atoms: C_16  and  C_17
REMARK    9  A    between atoms: C_17  and  C_19
REMARK   10  A    between atoms: C_18  and  C_20
REMARK   11  A    between atoms: C_23  and  C_27
REMARK                            x       y       z     vdW  Elec       q    Type
REMARK                         _______ _______ _______ _____ _____    ______ ____
ROOT
ATOM      2  O   UNL     1      -1.041  -2.168   2.733  0.00  0.00    -0.274 OA
ATOM      4  N   UNL     1      -1.233   0.878   0.731  0.00  0.00    -0.286 NA
ATOM      5  N   UNL     1      -1.816  -0.105   3.294  0.00  0.00    -0.313 N 
ATOM      9  C   UNL     1      -1.144  -0.573   0.943  0.00  0.00    +0.145 C 
ATOM     10  C   UNL     1       0.872   0.369  -0.030  0.00  0.00    +0.070 C 
ATOM     11  C   UNL     1       0.247  -0.955   0.412  0.00  0.00    +0.048 C 
ATOM     12  C   UNL     1      -2.259   1.540   1.529  0.00  0.00    +0.075 C 
ATOM     13  C   UNL     1       0.127   1.407   0.797  0.00  0.00    +0.104 C 
ATOM     14  C   UNL     1      -2.033   1.295   3.012  0.00  0.00    +0.123 C 
ATOM     15  C   UNL     1      -1.305  -1.010   2.396  0.00  0.00    +0.230 C 
ATOM     35  H   UNL     1      -1.938  -0.415   4.253  0.00  0.00    +0.149 HD
ENDROOT
BRANCH  10   6
ATOM      6  N   UNL     1       2.314   0.407   0.151  0.00  0.00    -0.308 NA
ATOM     36  H   UNL     1       2.622   1.380   0.157  0.00  0.00    +0.123 HD
BRANCH   6  18
ATOM     18  C   UNL     1       2.996  -0.299  -0.925  0.00  0.00    +0.116 C 
BRANCH  18  20
ATOM     20  C   UNL     1       4.491  -0.283  -0.748  0.00  0.00    -0.033 A 
ATOM     21  C   UNL     1       5.215   0.873  -1.041  0.00  0.00    +0.007 A 
ATOM     22  C   UNL     1       5.152  -1.423  -0.290  0.00  0.00    +0.007 A 
ATOM     24  C   UNL     1       6.600   0.888  -0.876  0.00  0.00    +0.023 A 
ATOM     25  C   UNL     1       6.537  -1.407  -0.126  0.00  0.00    +0.023 A 
ATOM     26  C   UNL     1       7.261  -0.252  -0.419  0.00  0.00    +0.029 A 
BRANCH  26   8
ATOM      8  N   UNL     1       8.662  -0.236  -0.253  0.00  0.00    -0.336 N 
ATOM     30  C   UNL     1       9.423   0.960  -0.554  0.00  0.00    +0.129 C 
ATOM     31  C   UNL     1       9.357  -1.413   0.230  0.00  0.00    +0.129 C 
ENDBRANCH  26   8
ENDBRANCH  18  20
ENDBRANCH   6  18
ENDBRANCH  10   6
BRANCH  12  16
ATOM     16  C   UNL     1      -2.371   3.035   1.229  0.00  0.00    +0.029 C 
BRANCH  16  17
ATOM     17  C   UNL     1      -2.555   3.286  -0.261  0.00  0.00    +0.097 C 
BRANCH  17  19
ATOM      3  O   UNL     1      -4.945   2.918  -0.386  0.00  0.00    -0.276 OA
ATOM      7  N   UNL     1      -3.543   1.719  -1.794  0.00  0.00    -0.311 N 
ATOM     19  C   UNL     1      -3.821   2.643  -0.797  0.00  0.00    +0.213 C 
ATOM     37  H   UNL     1      -2.580   1.529  -2.057  0.00  0.00    +0.149 HD
BRANCH   7  23
ATOM     23  C   UNL     1      -4.580   0.971  -2.464  0.00  0.00    +0.139 C 
BRANCH  23  27
ATOM      1  F   UNL     1      -5.693  -3.887   0.166  0.00  0.00    -0.205 F 
ATOM     27  C   UNL     1      -4.878  -0.327  -1.761  0.00  0.00    -0.030 A 
ATOM     28  C   UNL     1      -4.180  -1.484  -2.109  0.00  0.00    +0.008 A 
ATOM     29  C   UNL     1      -5.850  -0.373  -0.762  0.00  0.00    +0.008 A 
ATOM     32  C   UNL     1      -4.455  -2.687  -1.458  0.00  0.00    +0.038 A 
ATOM     33  C   UNL     1      -6.126  -1.575  -0.112  0.00  0.00    +0.038 A 
ATOM     34  C   UNL     1      -5.428  -2.732  -0.460  0.00  0.00    +0.123 A 
ENDBRANCH  23  27
ENDBRANCH   7  23
ENDBRANCH  17  19
ENDBRANCH  16  17
ENDBRANCH  12  16
TORSDOF 9
