REMARK  Name = 11887626
REMARK  8 active torsions:
REMARK  status: ('A' for Active; 'I' for Inactive)
REMARK    1  A    between atoms: S_1  and  N_8
REMARK    2  A    between atoms: S_1  and  C_20
REMARK    3  A    between atoms: N_10  and  C_19
REMARK    4  A    between atoms: C_13  and  C_17
REMARK    5  A    between atoms: C_18  and  C_23
REMARK    6  A    between atoms: C_19  and  C_21
REMARK    7  A    between atoms: C_19  and  C_26
REMARK    8  A    between atoms: C_21  and  C_22
REMARK                            x       y       z     vdW  Elec       q    Type
REMARK                         _______ _______ _______ _____ _____    ______ ____
ROOT
ATOM      6  O   UNL     1      -3.485  -0.865  -2.319  0.00  0.00    -0.270 OA
ATOM      8  N   UNL     1      -0.270   1.235   0.987  0.00  0.00    -0.162 NA
ATOM      9  N   UNL     1      -2.540   0.389  -0.585  0.00  0.00    -0.294 N 
ATOM     13  C   UNL     1      -0.073   0.352  -0.195  0.00  0.00    +0.183 C 
ATOM     14  C   UNL     1      -1.215   0.434  -1.205  0.00  0.00    +0.138 C 
ATOM     15  C   UNL     1      -1.524   2.031   0.975  0.00  0.00    +0.129 C 
ATOM     16  C   UNL     1      -2.699   1.108   0.683  0.00  0.00    +0.125 C 
ATOM     18  C   UNL     1      -3.586  -0.254  -1.256  0.00  0.00    +0.247 C 
ENDROOT
BRANCH  18  23
ATOM      2  F   UNL     1      -6.982  -2.098   1.676  0.00  0.00    -0.205 F 
ATOM     23  C   UNL     1      -4.926  -0.202  -0.651  0.00  0.00    +0.040 A 
ATOM     30  C   UNL     1      -5.327  -1.195   0.243  0.00  0.00    +0.051 A 
ATOM     31  C   UNL     1      -5.797   0.839  -0.973  0.00  0.00    +0.013 A 
ATOM     37  C   UNL     1      -6.598  -1.146   0.817  0.00  0.00    +0.124 A 
ATOM     38  C   UNL     1      -7.067   0.888  -0.400  0.00  0.00    +0.004 A 
ATOM     41  C   UNL     1      -7.468  -0.104   0.495  0.00  0.00    +0.038 A 
ENDBRANCH  18  23
BRANCH  13  17
ATOM      5  O   UNL     1      -0.580  -1.359   1.386  0.00  0.00    -0.274 OA
ATOM     10  N   UNL     1       0.933  -1.814  -0.323  0.00  0.00    -0.302 N 
ATOM     17  C   UNL     1       0.045  -1.022   0.383  0.00  0.00    +0.234 C 
ATOM     42  H   UNL     1       1.301  -1.468  -1.204  0.00  0.00    +0.150 HD
BRANCH  10  19
ATOM     19  C   UNL     1       1.243  -3.177   0.044  0.00  0.00    +0.163 C 
BRANCH  19  26
ATOM      7  O   UNL     1      -0.294  -3.841  -1.716  0.00  0.00    -0.274 OA
ATOM     12  N   UNL     1      -0.101  -5.184   0.137  0.00  0.00    -0.328 N 
ATOM     26  C   UNL     1       0.198  -4.066  -0.614  0.00  0.00    +0.231 C 
ATOM     44  H   UNL     1       0.332  -5.369   1.036  0.00  0.00    +0.145 HD
ATOM     45  H   UNL     1      -0.773  -5.868  -0.194  0.00  0.00    +0.145 HD
ENDBRANCH  19  26
BRANCH  19  21
ATOM     21  C   UNL     1       2.653  -3.591  -0.395  0.00  0.00    +0.069 C 
BRANCH  21  22
ATOM     11  N   UNL     1       5.287  -1.955   1.580  0.00  0.00    -0.360 N 
ATOM     22  C   UNL     1       3.732  -2.730   0.199  0.00  0.00    -0.020 A 
ATOM     27  C   UNL     1       4.269  -1.537  -0.361  0.00  0.00    +0.003 A 
ATOM     28  C   UNL     1       4.378  -2.961   1.392  0.00  0.00    +0.087 A 
ATOM     29  C   UNL     1       5.242  -1.071   0.525  0.00  0.00    +0.047 A 
ATOM     34  C   UNL     1       4.019  -0.807  -1.540  0.00  0.00    +0.010 A 
ATOM     36  C   UNL     1       5.982   0.093   0.290  0.00  0.00    +0.026 A 
ATOM     39  C   UNL     1       4.751   0.359  -1.788  0.00  0.00    +0.001 A 
ATOM     40  C   UNL     1       5.717   0.801  -0.886  0.00  0.00    +0.002 A 
ATOM     43  H   UNL     1       5.902  -1.872   2.377  0.00  0.00    +0.165 HD
ENDBRANCH  21  22
ENDBRANCH  19  21
ENDBRANCH  10  19
ENDBRANCH  13  17
BRANCH   8   1
ATOM      1  S   UNL     1       1.118   2.023   1.600  0.00  0.00    +0.062 S 
ATOM      3  O   UNL     1       2.275   1.179   1.388  0.00  0.00    -0.153 OA
ATOM      4  O   UNL     1       0.816   2.558   2.911  0.00  0.00    -0.153 OA
BRANCH   1  20
ATOM     20  C   UNL     1       1.227   3.378   0.473  0.00  0.00    +0.106 A 
ATOM     24  C   UNL     1       0.571   4.576   0.757  0.00  0.00    +0.028 A 
ATOM     25  C   UNL     1       1.967   3.250  -0.702  0.00  0.00    +0.028 A 
ATOM     32  C   UNL     1       0.657   5.646  -0.133  0.00  0.00    +0.002 A 
ATOM     33  C   UNL     1       2.053   4.321  -1.593  0.00  0.00    +0.002 A 
ATOM     35  C   UNL     1       1.397   5.519  -1.308  0.00  0.00    +0.000 A 
ENDBRANCH   1  20
ENDBRANCH   8   1
TORSDOF 8
