REMARK  Name = 7144121
REMARK  3 active torsions:
REMARK  status: ('A' for Active; 'I' for Inactive)
REMARK    1  A    between atoms: O_2  and  C_21
REMARK    2  A    between atoms: O_2  and  C_22
REMARK    3  A    between atoms: C_12  and  C_16
REMARK                            x       y       z     vdW  Elec       q    Type
REMARK                         _______ _______ _______ _____ _____    ______ ____
ROOT
ATOM      1  O   UNL     1      -3.948   2.282   0.321  0.00  0.00    -0.268 OA
ATOM      3  N   UNL     1      -2.399   0.581  -0.119  0.00  0.00    -0.311 N 
ATOM      4  N   UNL     1      -1.995  -2.184   1.425  0.00  0.00    -0.315 NA
ATOM      5  C   UNL     1      -3.144  -1.789  -0.763  0.00  0.00    +0.023 C 
ATOM      6  C   UNL     1      -0.760  -1.274  -0.553  0.00  0.00    +0.051 C 
ATOM      7  C   UNL     1      -1.815  -1.841  -1.500  0.00  0.00    +0.017 C 
ATOM      8  C   UNL     1      -3.495  -0.323  -0.498  0.00  0.00    +0.130 C 
ATOM      9  C   UNL     1      -1.048   0.191  -0.214  0.00  0.00    +0.034 A 
ATOM     10  C   UNL     1      -3.068  -2.619   0.532  0.00  0.00    +0.086 C 
ATOM     11  C   UNL     1      -0.707  -2.134   0.730  0.00  0.00    +0.090 C 
ATOM     12  C   UNL     1      -0.064   1.101   0.009  0.00  0.00    +0.002 A 
ATOM     13  C   UNL     1      -2.785   1.886   0.234  0.00  0.00    +0.252 A 
ATOM     14  C   UNL     1      -0.424   2.457   0.380  0.00  0.00    +0.015 A 
ATOM     15  C   UNL     1      -1.692   2.847   0.505  0.00  0.00    +0.071 A 
ATOM     23  H   UNL     1      -1.932  -2.818   2.220  0.00  0.00    +0.122 HD
ENDROOT
BRANCH  12  16
ATOM     16  C   UNL     1       1.342   0.716  -0.081  0.00  0.00    -0.016 A 
ATOM     17  C   UNL     1       1.993   0.212   1.041  0.00  0.00    +0.012 A 
ATOM     18  C   UNL     1       2.020   0.855  -1.288  0.00  0.00    +0.012 A 
ATOM     19  C   UNL     1       3.336  -0.157   0.955  0.00  0.00    +0.046 A 
ATOM     20  C   UNL     1       3.362   0.485  -1.374  0.00  0.00    +0.046 A 
ATOM     21  C   UNL     1       4.020  -0.020  -0.253  0.00  0.00    +0.120 A 
BRANCH  21   2
ATOM      2  O   UNL     1       5.330  -0.380  -0.338  0.00  0.00    -0.495 OA
ATOM     22  C   UNL     1       5.941  -0.891   0.847  0.00  0.00    +0.277 C 
ENDBRANCH  21   2
ENDBRANCH  12  16
TORSDOF 2
