REMARK  Name = 56775500
REMARK  9 active torsions:
REMARK  status: ('A' for Active; 'I' for Inactive)
REMARK    1  A    between atoms: O_4  and  C_21
REMARK    2  A    between atoms: N_5  and  C_8
REMARK    3  A    between atoms: N_5  and  C_9
REMARK    4  A    between atoms: C_8  and  C_12
REMARK    5  A    between atoms: C_12  and  C_17
REMARK    6  A    between atoms: C_18  and  C_22
REMARK    7  A    between atoms: C_20  and  C_21
REMARK    8  A    between atoms: C_21  and  C_23
REMARK    9  A    between atoms: C_21  and  C_24
REMARK                            x       y       z     vdW  Elec       q    Type
REMARK                         _______ _______ _______ _____ _____    ______ ____
ROOT
ATOM      1  O   UNL     1       0.873  -2.038   2.084  0.00  0.00    -0.376 OA
ATOM      8  C   UNL     1       0.014  -1.415   0.232  0.00  0.00    +0.072 C 
ATOM     10  C   UNL     1       0.884  -2.561   0.737  0.00  0.00    +0.184 C 
ATOM     11  C   UNL     1       0.128  -0.876   1.654  0.00  0.00    +0.184 C 
ENDROOT
BRANCH   8   5
ATOM      5  N   UNL     1      -1.348  -1.913   0.024  0.00  0.00    -0.304 NA
ATOM     25  H   UNL     1      -1.786  -2.335   0.842  0.00  0.00    +0.123 HD
BRANCH   5   9
ATOM      3  O   UNL     1      -5.739   2.264   1.065  0.00  0.00    -0.276 OA
ATOM      6  N   UNL     1      -4.548   0.826  -0.318  0.00  0.00    -0.302 N 
ATOM      9  C   UNL     1      -2.182  -0.832  -0.497  0.00  0.00    +0.057 C 
ATOM     13  C   UNL     1      -3.570  -1.370  -0.869  0.00  0.00    +0.037 C 
ATOM     14  C   UNL     1      -2.303   0.288   0.544  0.00  0.00    +0.037 C 
ATOM     15  C   UNL     1      -4.492  -0.240  -1.326  0.00  0.00    +0.109 C 
ATOM     16  C   UNL     1      -3.248   1.385   0.058  0.00  0.00    +0.109 C 
ATOM     18  C   UNL     1      -5.715   1.342   0.246  0.00  0.00    +0.212 C 
ATOM     22  C   UNL     1      -7.013   0.711  -0.192  0.00  0.00    +0.109 C 
ENDBRANCH   5   9
ENDBRANCH   8   5
BRANCH   8  12
ATOM     12  C   UNL     1       0.509  -0.576  -0.905  0.00  0.00    +0.085 C 
BRANCH  12  17
ATOM      2  O   UNL     1       4.121  -0.609  -1.010  0.00  0.00    -0.356 OA
ATOM      7  N   UNL     1       2.876  -1.145  -1.316  0.00  0.00    -0.083 NA
ATOM     17  C   UNL     1       1.993  -0.305  -0.769  0.00  0.00    +0.086 A 
ATOM     19  C   UNL     1       2.617   0.769  -0.111  0.00  0.00    +0.074 A 
ATOM     20  C   UNL     1       3.953   0.531  -0.292  0.00  0.00    +0.168 A 
BRANCH  20  21
ATOM     21  C   UNL     1       5.176   1.232   0.118  0.00  0.00    +0.120 C 
ATOM     23  C   UNL     1       6.011   1.754  -1.087  0.00  0.00    +0.049 C 
ATOM     24  C   UNL     1       6.103   0.362   1.016  0.00  0.00    +0.049 C 
BRANCH  21   4
ATOM      4  O   UNL     1       4.898   2.417   0.915  0.00  0.00    -0.381 OA
ATOM     26  H   UNL     1       5.746   2.831   1.150  0.00  0.00    +0.211 HD
ENDBRANCH  21   4
ENDBRANCH  20  21
ENDBRANCH  12  17
ENDBRANCH   8  12
TORSDOF 6
