REMARK  Name = 7050301
REMARK  4 active torsions:
REMARK  status: ('A' for Active; 'I' for Inactive)
REMARK    1  A    between atoms: N_8  and  C_11
REMARK    2  A    between atoms: N_9  and  C_24
REMARK    3  A    between atoms: C_16  and  C_21
REMARK    4  A    between atoms: C_25  and  C_28
REMARK                            x       y       z     vdW  Elec       q    Type
REMARK                         _______ _______ _______ _____ _____    ______ ____
ROOT
ATOM      3  O   UNL     1       2.670   1.923  -1.497  0.00  0.00    -0.273 OA
ATOM      4  O   UNL     1       2.673  -1.652   1.466  0.00  0.00    -0.252 OA
ATOM      7  N   UNL     1       1.011  -0.349   0.503  0.00  0.00    -0.273 N 
ATOM      9  N   UNL     1       3.131   0.085  -0.078  0.00  0.00    -0.193 N 
ATOM     11  C   UNL     1      -1.090   1.525   1.011  0.00  0.00    +0.077 C 
ATOM     12  C   UNL     1       0.883   0.768  -0.392  0.00  0.00    +0.166 C 
ATOM     13  C   UNL     1       0.209   1.948   0.302  0.00  0.00    +0.054 C 
ATOM     14  C   UNL     1      -0.863   0.306   1.922  0.00  0.00    +0.041 C 
ATOM     15  C   UNL     1      -0.167  -0.845   1.193  0.00  0.00    +0.112 C 
ATOM     17  C   UNL     1       2.341   1.027  -0.730  0.00  0.00    +0.248 C 
ATOM     18  C   UNL     1       2.331  -0.758   0.701  0.00  0.00    +0.316 C 
ENDROOT
BRANCH   9  24
ATOM      1 CL   UNL     1       7.371  -2.836   0.021  0.00  0.00    -0.081 Cl
ATOM      2  F   UNL     1       8.677  -0.215  -0.439  0.00  0.00    -0.204 F 
ATOM     24  C   UNL     1       4.556   0.004  -0.169  0.00  0.00    +0.047 A 
ATOM     26  C   UNL     1       5.199  -1.231  -0.043  0.00  0.00    +0.047 A 
ATOM     27  C   UNL     1       5.313   1.158  -0.386  0.00  0.00    +0.027 A 
ATOM     29  C   UNL     1       6.588  -1.310  -0.134  0.00  0.00    +0.078 A 
ATOM     30  C   UNL     1       6.703   1.079  -0.476  0.00  0.00    +0.041 A 
ATOM     31  C   UNL     1       7.341  -0.156  -0.350  0.00  0.00    +0.142 A 
ENDBRANCH   9  24
BRANCH  11   8
ATOM      5  O   UNL     1      -3.938   1.949   1.378  0.00  0.00    -0.276 OA
ATOM      8  N   UNL     1      -2.146   1.267   0.059  0.00  0.00    -0.312 N 
ATOM     21  C   UNL     1      -3.483   1.503   0.328  0.00  0.00    +0.216 C 
ATOM     32  H   UNL     1      -1.874   0.922  -0.856  0.00  0.00    +0.149 HD
BRANCH  21  16
ATOM      6  O   UNL     1      -7.129  -2.917  -0.841  0.00  0.00    -0.276 OA
ATOM     10  N   UNL     1      -6.311  -0.862  -0.130  0.00  0.00    -0.302 N 
ATOM     16  C   UNL     1      -4.365   1.173  -0.841  0.00  0.00    +0.078 C 
ATOM     19  C   UNL     1      -4.189  -0.296  -1.239  0.00  0.00    +0.032 C 
ATOM     20  C   UNL     1      -5.827   1.520  -0.545  0.00  0.00    +0.032 C 
ATOM     22  C   UNL     1      -4.911  -1.251  -0.290  0.00  0.00    +0.108 C 
ATOM     23  C   UNL     1      -6.511   0.502   0.369  0.00  0.00    +0.108 C 
ATOM     25  C   UNL     1      -7.326  -1.770  -0.433  0.00  0.00    +0.212 C 
ATOM     28  C   UNL     1      -8.742  -1.288  -0.242  0.00  0.00    +0.109 C 
ENDBRANCH  21  16
ENDBRANCH  11   8
TORSDOF 3
