REMARK  Name = 11883400
REMARK  7 active torsions:
REMARK  status: ('A' for Active; 'I' for Inactive)
REMARK    1  A    between atoms: O_9  and  C_18
REMARK    2  A    between atoms: O_9  and  C_22
REMARK    3  A    between atoms: N_12  and  C_17
REMARK    4  A    between atoms: N_13  and  C_23
REMARK    5  A    between atoms: N_14  and  C_24
REMARK    6  A    between atoms: C_29  and  C_35
REMARK    7  A    between atoms: C_31  and  C_36
REMARK                            x       y       z     vdW  Elec       q    Type
REMARK                         _______ _______ _______ _____ _____    ______ ____
ROOT
ATOM      7  O   UNL     1       0.548  -1.509  -1.339  0.00  0.00    -0.368 OA
ATOM      8  O   UNL     1      -0.170  -3.766   0.610  0.00  0.00    -0.368 OA
ATOM     15  C   UNL     1      -0.741  -2.455   0.413  0.00  0.00    +0.173 C 
ATOM     16  C   UNL     1       0.408  -1.520   0.092  0.00  0.00    +0.192 C 
ATOM     17  C   UNL     1      -1.583  -2.439  -0.842  0.00  0.00    +0.131 C 
ATOM     18  C   UNL     1       1.578  -2.197   0.764  0.00  0.00    +0.235 C 
ATOM     19  C   UNL     1      -0.539  -2.239  -1.927  0.00  0.00    +0.185 C 
ATOM     20  C   UNL     1       1.260  -3.661   0.558  0.00  0.00    +0.207 C 
ENDROOT
BRANCH  17  12
ATOM     10  O   UNL     1      -4.313  -2.567   0.018  0.00  0.00    -0.252 OA
ATOM     12  N   UNL     1      -2.533  -1.353  -0.820  0.00  0.00    -0.292 N 
ATOM     13  N   UNL     1      -4.536  -0.283  -0.475  0.00  0.00    -0.269 N 
ATOM     21  C   UNL     1      -3.855  -1.500  -0.383  0.00  0.00    +0.304 C 
ATOM     37  H   UNL     1      -2.210  -0.424  -1.073  0.00  0.00    +0.151 HD
ATOM     38  H   UNL     1      -4.008   0.510  -0.832  0.00  0.00    +0.156 HD
BRANCH  13  23
ATOM     23  C   UNL     1      -5.882  -0.014  -0.133  0.00  0.00    +0.035 A 
ATOM     25  C   UNL     1      -6.399   1.272  -0.293  0.00  0.00    +0.035 A 
ATOM     26  C   UNL     1      -6.692  -1.034   0.364  0.00  0.00    +0.023 A 
ATOM     29  C   UNL     1      -7.726   1.537   0.045  0.00  0.00    +0.057 A 
ATOM     30  C   UNL     1      -8.019  -0.770   0.702  0.00  0.00    +0.002 A 
ATOM     32  C   UNL     1      -8.536   0.516   0.542  0.00  0.00    +0.012 A 
BRANCH  29  35
ATOM      1  F   UNL     1      -9.589   3.024   0.244  0.00  0.00    -0.166 F 
ATOM      2  F   UNL     1      -7.620   3.860   0.603  0.00  0.00    -0.166 F 
ATOM      3  F   UNL     1      -8.226   3.342  -1.420  0.00  0.00    -0.166 F 
ATOM     35  C   UNL     1      -8.279   2.911  -0.126  0.00  0.00    +0.417 C 
ENDBRANCH  29  35
ENDBRANCH  13  23
ENDBRANCH  17  12
BRANCH  18   9
ATOM      9  O   UNL     1       2.826  -1.843   0.213  0.00  0.00    -0.442 OA
BRANCH   9  22
ATOM     11  O   UNL     1       3.046  -0.183   1.770  0.00  0.00    -0.226 OA
ATOM     14  N   UNL     1       4.692  -0.577   0.153  0.00  0.00    -0.251 N 
ATOM     22  C   UNL     1       3.495  -0.793   0.808  0.00  0.00    +0.405 C 
ATOM     39  H   UNL     1       4.892  -1.192  -0.632  0.00  0.00    +0.158 HD
BRANCH  14  24
ATOM     24  C   UNL     1       5.676   0.397   0.437  0.00  0.00    +0.037 A 
ATOM     27  C   UNL     1       6.833   0.467  -0.339  0.00  0.00    +0.035 A 
ATOM     28  C   UNL     1       5.490   1.287   1.495  0.00  0.00    +0.023 A 
ATOM     31  C   UNL     1       7.804   1.428  -0.057  0.00  0.00    +0.057 A 
ATOM     33  C   UNL     1       6.462   2.248   1.777  0.00  0.00    +0.002 A 
ATOM     34  C   UNL     1       7.618   2.318   1.000  0.00  0.00    +0.012 A 
BRANCH  31  36
ATOM      4  F   UNL     1       9.902   2.490  -0.497  0.00  0.00    -0.166 F 
ATOM      5  F   UNL     1       9.783   0.357  -0.869  0.00  0.00    -0.166 F 
ATOM      6  F   UNL     1       8.777   1.748  -2.203  0.00  0.00    -0.166 F 
ATOM     36  C   UNL     1       9.041   1.504  -0.887  0.00  0.00    +0.417 C 
ENDBRANCH  31  36
ENDBRANCH  14  24
ENDBRANCH   9  22
ENDBRANCH  18   9
TORSDOF 7
