REMARK  Name = 45784109
REMARK  9 active torsions:
REMARK  status: ('A' for Active; 'I' for Inactive)
REMARK    1  A    between atoms: N_3  and  C_14
REMARK    2  A    between atoms: C_9  and  C_13
REMARK    3  A    between atoms: C_10  and  C_14
REMARK    4  A    between atoms: C_12  and  C_17
REMARK    5  A    between atoms: C_13  and  C_18
REMARK    6  A    between atoms: C_13  and  C_19
REMARK    7  A    between atoms: C_16  and  C_22
REMARK    8  A    between atoms: C_17  and  C_25
REMARK    9  A    between atoms: C_27  and  C_29
REMARK                            x       y       z     vdW  Elec       q    Type
REMARK                         _______ _______ _______ _____ _____    ______ ____
ROOT
ATOM      9  C   UNL     1      -0.363  -1.161  -0.781  0.00  0.00    +0.000 C 
ATOM     10  C   UNL     1      -1.177  -2.392  -0.318  0.00  0.00    +0.029 C 
ATOM     11  C   UNL     1       0.806  -0.898   0.178  0.00  0.00    +0.012 C 
ATOM     12  C   UNL     1       1.751  -2.108   0.338  0.00  0.00    +0.024 C 
ATOM     15  C   UNL     1      -0.299  -3.541   0.108  0.00  0.00    -0.023 C 
ATOM     16  C   UNL     1       1.012  -3.437   0.393  0.00  0.00    -0.073 C 
ATOM     22  C   UNL     1       1.815  -4.665   0.725  0.00  0.00    +0.039 C 
ENDROOT
BRANCH   9  13
ATOM     13  C   UNL     1       0.131  -1.328  -2.225  0.00  0.00    -0.013 C 
ATOM     18  C   UNL     1       1.265  -0.351  -2.516  0.00  0.00    +0.007 C 
ATOM     19  C   UNL     1      -1.020  -1.131  -3.207  0.00  0.00    +0.007 C 
ENDBRANCH   9  13
BRANCH  10  14
ATOM     14  C   UNL     1      -2.134  -2.039   0.826  0.00  0.00    +0.092 C 
BRANCH  14   3
ATOM      3  N   UNL     1      -3.020  -0.942   0.438  0.00  0.00    -0.299 NA
ATOM      4  N   UNL     1      -5.495   0.472   0.258  0.00  0.00    -0.312 N 
ATOM      7  N   UNL     1      -6.605   2.572   0.303  0.00  0.00    -0.237 NA
ATOM      8  N   UNL     1      -8.964   1.277  -0.484  0.00  0.00    -0.258 NA
ATOM     20  C   UNL     1      -4.091  -1.430  -0.439  0.00  0.00    +0.103 C 
ATOM     21  C   UNL     1      -3.599  -0.303   1.626  0.00  0.00    +0.103 C 
ATOM     23  C   UNL     1      -4.992  -0.281  -0.898  0.00  0.00    +0.122 C 
ATOM     24  C   UNL     1      -4.484   0.884   1.236  0.00  0.00    +0.122 C 
ATOM     26  C   UNL     1      -6.651   1.243   0.087  0.00  0.00    +0.140 A 
ATOM     28  C   UNL     1      -7.810   0.606  -0.299  0.00  0.00    +0.154 A 
ATOM     30  C   UNL     1      -7.759   3.243   0.117  0.00  0.00    +0.132 A 
ATOM     31  C   UNL     1      -8.918   2.606  -0.269  0.00  0.00    +0.130 A 
ENDBRANCH  14   3
ENDBRANCH  10  14
BRANCH  12  17
ATOM     17  C   UNL     1       2.646  -1.872   1.561  0.00  0.00    +0.105 C 
BRANCH  17  25
ATOM      2  O   UNL     1       4.427  -0.490   0.627  0.00  0.00    -0.420 OA
ATOM      5  N   UNL     1       3.117   0.574   2.095  0.00  0.00    -0.112 NA
ATOM      6  N   UNL     1       4.073   1.467   1.651  0.00  0.00    -0.107 NA
ATOM     25  C   UNL     1       3.362  -0.555   1.472  0.00  0.00    +0.218 A 
ATOM     27  C   UNL     1       4.816   0.804   0.796  0.00  0.00    +0.251 A 
BRANCH  27  29
ATOM      1  F   UNL     1       5.829   3.413   0.947  0.00  0.00    -0.205 F 
ATOM     29  C   UNL     1       5.951   1.223   0.027  0.00  0.00    +0.074 A 
ATOM     32  C   UNL     1       6.424   2.531   0.130  0.00  0.00    +0.136 A 
ATOM     33  C   UNL     1       6.582   0.319  -0.828  0.00  0.00    +0.016 A 
ATOM     34  C   UNL     1       7.528   2.935  -0.621  0.00  0.00    +0.039 A 
ATOM     35  C   UNL     1       7.686   0.723  -1.579  0.00  0.00    +0.001 A 
ATOM     36  C   UNL     1       8.159   2.031  -1.475  0.00  0.00    +0.003 A 
ENDBRANCH  27  29
ENDBRANCH  17  25
ENDBRANCH  12  17
TORSDOF 6
