REMARK  Name = 7049274
REMARK  8 active torsions:
REMARK  status: ('A' for Active; 'I' for Inactive)
REMARK    1  A    between atoms: O_2  and  C_10
REMARK    2  A    between atoms: O_3  and  C_12
REMARK    3  A    between atoms: N_7  and  C_11
REMARK    4  A    between atoms: N_8  and  C_18
REMARK    5  A    between atoms: C_14  and  C_16
REMARK    6  A    between atoms: C_17  and  C_19
REMARK    7  A    between atoms: C_18  and  C_20
REMARK    8  A    between atoms: C_18  and  C_21
REMARK                            x       y       z     vdW  Elec       q    Type
REMARK                         _______ _______ _______ _____ _____    ______ ____
ROOT
ATOM     10  C   UNL     1      -0.827  -1.929  -0.720  0.00  0.00    +0.167 C 
ATOM     11  C   UNL     1      -1.129  -0.941   0.423  0.00  0.00    +0.128 C 
ATOM     12  C   UNL     1       0.523  -2.628  -0.517  0.00  0.00    +0.149 C 
ATOM     13  C   UNL     1       1.677  -1.622  -0.363  0.00  0.00    +0.074 C 
ATOM     14  C   UNL     1       1.306  -0.408   0.440  0.00  0.00    +0.015 C 
ATOM     15  C   UNL     1       0.054  -0.095   0.806  0.00  0.00    +0.006 C 
ENDROOT
BRANCH  14  16
ATOM      4  O   UNL     1       2.293   1.125   1.922  0.00  0.00    -0.271 OA
ATOM      8  N   UNL     1       3.448   0.519  -0.010  0.00  0.00    -0.301 N 
ATOM     16  C   UNL     1       2.382   0.488   0.873  0.00  0.00    +0.240 C 
ATOM     28  H   UNL     1       3.411   0.003  -0.882  0.00  0.00    +0.150 HD
BRANCH   8  18
ATOM     18  C   UNL     1       4.625   1.331   0.201  0.00  0.00    +0.156 C 
ATOM     20  C   UNL     1       4.461   2.706  -0.428  0.00  0.00    +0.038 C 
BRANCH  18  21
ATOM      6  O   UNL     1       5.760  -0.105  -1.396  0.00  0.00    -0.274 OA
ATOM      9  N   UNL     1       6.990   0.844   0.295  0.00  0.00    -0.328 N 
ATOM     21  C   UNL     1       5.820   0.599  -0.390  0.00  0.00    +0.231 C 
ATOM     29  H   UNL     1       7.865   0.426  -0.003  0.00  0.00    +0.145 HD
ATOM     30  H   UNL     1       7.029   1.445   1.113  0.00  0.00    +0.145 HD
ENDBRANCH  18  21
ENDBRANCH   8  18
ENDBRANCH  14  16
BRANCH  11   7
ATOM      5  O   UNL     1      -3.850  -1.481   0.934  0.00  0.00    -0.270 OA
ATOM      7  N   UNL     1      -2.236  -0.075   0.099  0.00  0.00    -0.302 N 
ATOM     17  C   UNL     1      -3.557  -0.417   0.386  0.00  0.00    +0.251 C 
ATOM     25  H   UNL     1      -2.023   0.791  -0.385  0.00  0.00    +0.150 HD
BRANCH  17  19
ATOM      1  S   UNL     1      -6.191   0.223   0.351  0.00  0.00    -0.092 S 
ATOM     19  C   UNL     1      -4.571   0.585   0.025  0.00  0.00    +0.074 A 
ATOM     22  C   UNL     1      -4.366   1.790  -0.550  0.00  0.00    +0.021 A 
ATOM     23  C   UNL     1      -5.603   2.472  -0.742  0.00  0.00    +0.008 A 
ATOM     24  C   UNL     1      -6.676   1.732  -0.296  0.00  0.00    +0.046 A 
ENDBRANCH  17  19
ENDBRANCH  11   7
BRANCH  10   2
ATOM      2  O   UNL     1      -0.799  -1.228  -1.965  0.00  0.00    -0.387 OA
ATOM     26  H   UNL     1      -0.635  -1.882  -2.665  0.00  0.00    +0.210 HD
ENDBRANCH  10   2
BRANCH  12   3
ATOM      3  O   UNL     1       0.466  -3.486   0.620  0.00  0.00    -0.389 OA
ATOM     27  H   UNL     1      -0.260  -4.116   0.475  0.00  0.00    +0.210 HD
ENDBRANCH  12   3
TORSDOF 7
