REMARK  Name = 45361634
REMARK  12 active torsions:
REMARK  status: ('A' for Active; 'I' for Inactive)
REMARK    1  A    between atoms: O_1  and  C_12
REMARK    2  A    between atoms: O_4  and  C_35
REMARK    3  A    between atoms: O_4  and  C_36
REMARK    4  A    between atoms: N_5  and  C_16
REMARK    5  A    between atoms: N_6  and  C_26
REMARK    6  A    between atoms: C_9  and  C_19
REMARK    7  A    between atoms: C_11  and  C_21
REMARK    8  A    between atoms: C_15  and  C_20
REMARK    9  A    between atoms: C_20  and  C_22
REMARK   10  A    between atoms: C_20  and  C_23
REMARK   11  A    between atoms: C_24  and  C_25
REMARK   12  A    between atoms: C_26  and  C_29
REMARK                            x       y       z     vdW  Elec       q    Type
REMARK                         _______ _______ _______ _____ _____    ______ ____
ROOT
ATOM      9  C   UNL     1      -0.342   0.223   1.164  0.00  0.00    -0.027 C 
ATOM     10  C   UNL     1      -0.755  -0.694  -0.035  0.00  0.00    +0.028 C 
ATOM     11  C   UNL     1      -2.307  -0.939  -0.042  0.00  0.00    +0.012 C 
ATOM     12  C   UNL     1       0.125  -1.976  -0.094  0.00  0.00    +0.122 C 
ATOM     13  C   UNL     1       1.171   0.537   1.076  0.00  0.00    +0.007 C 
ATOM     14  C   UNL     1      -1.107   1.563   1.062  0.00  0.00    +0.009 C 
ATOM     15  C   UNL     1       1.638  -1.659  -0.077  0.00  0.00    +0.029 C 
ATOM     16  C   UNL     1      -3.066   0.417  -0.070  0.00  0.00    +0.076 C 
ATOM     17  C   UNL     1       2.037  -0.716   1.058  0.00  0.00    +0.007 C 
ATOM     18  C   UNL     1      -2.618   1.387   1.024  0.00  0.00    +0.023 C 
ATOM     19  C   UNL     1      -0.636  -0.429   2.539  0.00  0.00    +0.011 C 
ATOM     21  C   UNL     1      -2.787  -1.811  -1.215  0.00  0.00    +0.010 C 
ENDROOT
BRANCH  16   5
ATOM      3  O   UNL     1      -5.103   2.060  -1.250  0.00  0.00    -0.270 OA
ATOM      5  N   UNL     1      -4.498   0.232   0.040  0.00  0.00    -0.308 N 
ATOM     24  C   UNL     1      -5.404   1.083  -0.569  0.00  0.00    +0.247 C 
ATOM     37  H   UNL     1      -4.823  -0.494   0.670  0.00  0.00    +0.149 HD
BRANCH  24  25
ATOM      7  N   UNL     1      -9.127   1.499  -0.176  0.00  0.00    -0.243 NA
ATOM      8  N   UNL     1      -8.572  -0.824   0.147  0.00  0.00    -0.243 NA
ATOM     25  C   UNL     1      -6.838   0.773  -0.338  0.00  0.00    +0.073 A 
ATOM     27  C   UNL     1      -7.816   1.745  -0.381  0.00  0.00    +0.127 A 
ATOM     28  C   UNL     1      -7.279  -0.506  -0.067  0.00  0.00    +0.127 A 
ATOM     32  C   UNL     1      -9.430   0.212   0.079  0.00  0.00    +0.221 A 
ENDBRANCH  24  25
ENDBRANCH  16   5
BRANCH  12   1
ATOM      1  O   UNL     1      -0.132  -2.675  -1.313  0.00  0.00    -0.391 OA
ATOM     38  H   UNL     1       0.084  -2.082  -2.053  0.00  0.00    +0.210 HD
ENDBRANCH  12   1
BRANCH  15  20
ATOM     20  C   UNL     1       2.486  -2.935  -0.003  0.00  0.00    +0.077 C 
ATOM     22  C   UNL     1       2.142  -3.722   1.257  0.00  0.00    +0.017 C 
BRANCH  20  23
ATOM      2  O   UNL     1       4.754  -2.888   0.844  0.00  0.00    -0.276 OA
ATOM      6  N   UNL     1       4.311  -1.877  -1.196  0.00  0.00    -0.311 N 
ATOM     23  C   UNL     1       3.968  -2.579  -0.050  0.00  0.00    +0.216 C 
ATOM     39  H   UNL     1       3.613  -1.707  -1.913  0.00  0.00    +0.149 HD
BRANCH   6  26
ATOM     26  C   UNL     1       5.657  -1.428  -1.465  0.00  0.00    +0.139 C 
BRANCH  26  29
ATOM     29  C   UNL     1       5.910  -0.054  -0.916  0.00  0.00    -0.030 A 
ATOM     30  C   UNL     1       5.386   1.064  -1.565  0.00  0.00    +0.009 A 
ATOM     31  C   UNL     1       6.670   0.105   0.243  0.00  0.00    +0.009 A 
ATOM     33  C   UNL     1       5.622   2.341  -1.055  0.00  0.00    +0.046 A 
ATOM     34  C   UNL     1       6.905   1.382   0.753  0.00  0.00    +0.046 A 
ATOM     35  C   UNL     1       6.381   2.500   0.104  0.00  0.00    +0.120 A 
BRANCH  35   4
ATOM      4  O   UNL     1       6.611   3.745   0.602  0.00  0.00    -0.495 OA
ATOM     36  C   UNL     1       6.044   4.844  -0.112  0.00  0.00    +0.277 C 
ENDBRANCH  35   4
ENDBRANCH  26  29
ENDBRANCH   6  26
ENDBRANCH  20  23
ENDBRANCH  15  20
TORSDOF 8
