REMARK  Name = 28959918
REMARK  11 active torsions:
REMARK  status: ('A' for Active; 'I' for Inactive)
REMARK    1  A    between atoms: O_3  and  C_22
REMARK    2  A    between atoms: O_5  and  C_35
REMARK    3  A    between atoms: O_5  and  C_36
REMARK    4  A    between atoms: N_7  and  C_16
REMARK    5  A    between atoms: N_8  and  C_24
REMARK    6  A    between atoms: C_9  and  C_13
REMARK    7  A    between atoms: C_10  and  C_15
REMARK    8  A    between atoms: C_13  and  C_16
REMARK    9  A    between atoms: C_15  and  C_22
REMARK   10  A    between atoms: C_19  and  C_23
REMARK   11  A    between atoms: C_23  and  C_25
REMARK                            x       y       z     vdW  Elec       q    Type
REMARK                         _______ _______ _______ _____ _____    ______ ____
ROOT
ATOM      2  O   UNL     1      -2.917  -2.789   0.880  0.00  0.00    -0.275 OA
ATOM      6  N   UNL     1      -3.594  -0.924  -0.328  0.00  0.00    -0.301 N 
ATOM      9  C   UNL     1      -3.367   1.468  -0.963  0.00  0.00    +0.011 C 
ATOM     10  C   UNL     1      -4.587   1.784  -0.060  0.00  0.00    +0.006 C 
ATOM     11  C   UNL     1      -3.443   0.010  -1.452  0.00  0.00    +0.111 C 
ATOM     12  C   UNL     1      -4.736   0.753   1.071  0.00  0.00    +0.023 C 
ATOM     14  C   UNL     1      -4.755  -0.671   0.524  0.00  0.00    +0.108 C 
ATOM     19  C   UNL     1      -2.753  -2.003  -0.056  0.00  0.00    +0.220 C 
ENDROOT
BRANCH   9  13
ATOM     13  C   UNL     1      -2.012   1.736  -0.296  0.00  0.00    +0.020 C 
BRANCH  13  16
ATOM     16  C   UNL     1      -0.941   2.024  -1.338  0.00  0.00    +0.085 C 
BRANCH  16   7
ATOM      7  N   UNL     1       0.343   2.258  -0.679  0.00  0.00    -0.299 NA
ATOM      8  N   UNL     1       3.172   2.066  -0.338  0.00  0.00    -0.327 N 
ATOM     17  C   UNL     1       0.958   0.986  -0.281  0.00  0.00    +0.103 C 
ATOM     18  C   UNL     1       1.251   2.995  -1.567  0.00  0.00    +0.103 C 
ATOM     20  C   UNL     1       2.276   1.221   0.461  0.00  0.00    +0.120 C 
ATOM     21  C   UNL     1       2.579   3.297  -0.869  0.00  0.00    +0.120 C 
BRANCH   8  24
ATOM      1  F   UNL     1       8.584   1.890   0.780  0.00  0.00    -0.205 F 
ATOM     24  C   UNL     1       4.542   2.021  -0.055  0.00  0.00    +0.030 A 
ATOM     26  C   UNL     1       5.239   0.818  -0.167  0.00  0.00    +0.026 A 
ATOM     27  C   UNL     1       5.211   3.180   0.339  0.00  0.00    +0.026 A 
ATOM     30  C   UNL     1       6.604   0.773   0.115  0.00  0.00    +0.040 A 
ATOM     31  C   UNL     1       6.576   3.136   0.621  0.00  0.00    +0.040 A 
ATOM     32  C   UNL     1       7.273   1.932   0.509  0.00  0.00    +0.124 A 
ENDBRANCH   8  24
ENDBRANCH  16   7
ENDBRANCH  13  16
ENDBRANCH   9  13
BRANCH  10  15
ATOM     15  C   UNL     1      -4.564   3.205   0.504  0.00  0.00    +0.124 C 
BRANCH  15  22
ATOM      4  O   UNL     1      -6.977   3.031   0.798  0.00  0.00    -0.251 OA
ATOM     22  C   UNL     1      -5.940   3.669   0.894  0.00  0.00    +0.305 C 
BRANCH  22   3
ATOM      3  O   UNL     1      -5.874   4.934   1.384  0.00  0.00    -0.481 OA
ATOM     37  H   UNL     1      -6.757   5.269   1.650  0.00  0.00    +0.295 HD
ENDBRANCH  22   3
ENDBRANCH  15  22
ENDBRANCH  10  15
BRANCH  19  23
ATOM     23  C   UNL     1      -1.577  -2.193  -0.980  0.00  0.00    +0.131 C 
BRANCH  23  25
ATOM     25  C   UNL     1      -0.793  -3.407  -0.592  0.00  0.00    -0.038 A 
ATOM     28  C   UNL     1       0.255  -3.298   0.322  0.00  0.00    +0.007 A 
ATOM     29  C   UNL     1      -1.111  -4.649  -1.143  0.00  0.00    +0.007 A 
ATOM     33  C   UNL     1       0.985  -4.430   0.685  0.00  0.00    +0.046 A 
ATOM     34  C   UNL     1      -0.382  -5.781  -0.780  0.00  0.00    +0.046 A 
ATOM     35  C   UNL     1       0.666  -5.671   0.134  0.00  0.00    +0.120 A 
BRANCH  35   5
ATOM      5  O   UNL     1       1.377  -6.777   0.490  0.00  0.00    -0.495 OA
ATOM     36  C   UNL     1       2.434  -6.593   1.431  0.00  0.00    +0.277 C 
ENDBRANCH  35   5
ENDBRANCH  23  25
ENDBRANCH  19  23
TORSDOF 10
