REMARK  Name = 45361526
REMARK  11 active torsions:
REMARK  status: ('A' for Active; 'I' for Inactive)
REMARK    1  A    between atoms: O_1  and  C_10
REMARK    2  A    between atoms: N_4  and  C_14
REMARK    3  A    between atoms: N_5  and  C_24
REMARK    4  A    between atoms: C_7  and  C_17
REMARK    5  A    between atoms: C_9  and  C_19
REMARK    6  A    between atoms: C_13  and  C_18
REMARK    7  A    between atoms: C_18  and  C_20
REMARK    8  A    between atoms: C_18  and  C_21
REMARK    9  A    between atoms: C_22  and  C_23
REMARK   10  A    between atoms: C_23  and  C_25
REMARK   11  A    between atoms: C_24  and  C_26
REMARK                            x       y       z     vdW  Elec       q    Type
REMARK                         _______ _______ _______ _____ _____    ______ ____
ROOT
ATOM      7  C   UNL     1      -0.436  -0.658   1.531  0.00  0.00    -0.027 C 
ATOM      8  C   UNL     1       0.093   0.352   0.459  0.00  0.00    +0.028 C 
ATOM      9  C   UNL     1       1.613   0.671   0.695  0.00  0.00    +0.012 C 
ATOM     10  C   UNL     1      -0.840   1.592   0.344  0.00  0.00    +0.122 C 
ATOM     11  C   UNL     1      -1.900  -1.037   1.204  0.00  0.00    +0.007 C 
ATOM     12  C   UNL     1       0.410  -1.950   1.467  0.00  0.00    +0.009 C 
ATOM     13  C   UNL     1      -2.320   1.204   0.120  0.00  0.00    +0.029 C 
ATOM     14  C   UNL     1       2.444  -0.643   0.704  0.00  0.00    +0.076 C 
ATOM     15  C   UNL     1      -2.824   0.172   1.128  0.00  0.00    +0.007 C 
ATOM     16  C   UNL     1       1.898  -1.700   1.663  0.00  0.00    +0.023 C 
ATOM     17  C   UNL     1      -0.381  -0.082   2.969  0.00  0.00    +0.011 C 
ATOM     19  C   UNL     1       2.208   1.639  -0.343  0.00  0.00    +0.010 C 
ENDROOT
BRANCH  14   4
ATOM      3  O   UNL     1       4.729  -2.108  -0.253  0.00  0.00    -0.275 OA
ATOM      4  N   UNL     1       3.832  -0.397   1.034  0.00  0.00    -0.312 N 
ATOM     22  C   UNL     1       4.866  -1.163   0.519  0.00  0.00    +0.218 C 
ATOM     36  H   UNL     1       4.033   0.326   1.718  0.00  0.00    +0.149 HD
BRANCH  22  23
ATOM     23  C   UNL     1       6.214  -0.684   1.024  0.00  0.00    +0.130 C 
BRANCH  23  25
ATOM     25  C   UNL     1       7.141  -0.241  -0.076  0.00  0.00    -0.039 A 
ATOM     27  C   UNL     1       8.003  -1.161  -0.674  0.00  0.00    +0.004 A 
ATOM     28  C   UNL     1       7.138   1.088  -0.498  0.00  0.00    +0.004 A 
ATOM     30  C   UNL     1       8.862  -0.751  -1.694  0.00  0.00    +0.000 A 
ATOM     31  C   UNL     1       7.997   1.498  -1.518  0.00  0.00    +0.000 A 
ATOM     32  C   UNL     1       8.859   0.578  -2.116  0.00  0.00    +0.000 A 
ENDBRANCH  23  25
ENDBRANCH  22  23
ENDBRANCH  14   4
BRANCH  10   1
ATOM      1  O   UNL     1      -0.450   2.379  -0.783  0.00  0.00    -0.391 OA
ATOM     37  H   UNL     1      -0.522   1.825  -1.579  0.00  0.00    +0.210 HD
ENDBRANCH  10   1
BRANCH  13  18
ATOM     18  C   UNL     1      -3.239   2.431   0.139  0.00  0.00    +0.077 C 
ATOM     20  C   UNL     1      -3.126   3.150   1.479  0.00  0.00    +0.017 C 
BRANCH  18  21
ATOM      2  O   UNL     1      -5.600   2.221   0.639  0.00  0.00    -0.276 OA
ATOM      5  N   UNL     1      -4.810   1.366  -1.368  0.00  0.00    -0.309 N 
ATOM     21  C   UNL     1      -4.677   2.008  -0.145  0.00  0.00    +0.217 C 
ATOM     38  H   UNL     1      -4.008   1.276  -1.983  0.00  0.00    +0.149 HD
BRANCH   5  24
ATOM     24  C   UNL     1      -6.077   0.871  -1.857  0.00  0.00    +0.159 C 
BRANCH  24  26
ATOM      6  N   UNL     1      -7.259  -0.671  -0.399  0.00  0.00    -0.258 NA
ATOM     26  C   UNL     1      -6.351  -0.529  -1.390  0.00  0.00    +0.058 A 
ATOM     29  C   UNL     1      -5.678  -1.586  -1.982  0.00  0.00    +0.025 A 
ATOM     33  C   UNL     1      -5.955  -2.870  -1.528  0.00  0.00    +0.003 A 
ATOM     34  C   UNL     1      -7.502  -1.934   0.017  0.00  0.00    +0.111 A 
ATOM     35  C   UNL     1      -6.884  -3.056  -0.510  0.00  0.00    +0.020 A 
ENDBRANCH  24  26
ENDBRANCH   5  24
ENDBRANCH  18  21
ENDBRANCH  13  18
TORSDOF 8
