REMARK  Name = 71694218
REMARK  4 active torsions:
REMARK  status: ('A' for Active; 'I' for Inactive)
REMARK    1  A    between atoms: N_3  and  C_9
REMARK    2  A    between atoms: C_6  and  C_9
REMARK    3  A    between atoms: C_10  and  C_14
REMARK    4  A    between atoms: C_15  and  C_17
REMARK                            x       y       z     vdW  Elec       q    Type
REMARK                         _______ _______ _______ _____ _____    ______ ____
ROOT
ATOM      4  N   UNL     1      -0.499  -0.653  -0.308  0.00  0.00    -0.341 N 
ATOM      5  N   UNL     1       0.572  -0.689   1.637  0.00  0.00    -0.238 NA
ATOM     14  C   UNL     1       0.701  -0.787   0.332  0.00  0.00    +0.127 A 
ATOM     15  C   UNL     1      -1.455  -0.457   0.649  0.00  0.00    +0.066 A 
ATOM     16  C   UNL     1      -0.770  -0.483   1.841  0.00  0.00    +0.139 A 
ATOM     23  H   UNL     1      -0.646  -0.702  -1.308  0.00  0.00    +0.167 HD
ENDROOT
BRANCH  15  17
ATOM      1  F   UNL     1      -4.955   1.066  -2.300  0.00  0.00    -0.205 F 
ATOM     17  C   UNL     1      -2.850  -0.273   0.349  0.00  0.00    +0.003 A 
ATOM     18  C   UNL     1      -3.234   0.319  -0.854  0.00  0.00    +0.048 A 
ATOM     19  C   UNL     1      -3.820  -0.688   1.262  0.00  0.00    +0.010 A 
ATOM     20  C   UNL     1      -4.587   0.497  -1.144  0.00  0.00    +0.124 A 
ATOM     21  C   UNL     1      -5.173  -0.510   0.973  0.00  0.00    +0.003 A 
ATOM     22  C   UNL     1      -5.556   0.082  -0.231  0.00  0.00    +0.038 A 
ENDBRANCH  15  17
BRANCH  14  10
ATOM      2  O   UNL     1       3.760  -2.671  -0.786  0.00  0.00    -0.377 OA
ATOM      3  N   UNL     1       3.013   0.035  -0.224  0.00  0.00    -0.288 NA
ATOM     10  C   UNL     1       1.991  -1.019  -0.442  0.00  0.00    +0.149 C 
ATOM     11  C   UNL     1       4.264  -0.315  -0.921  0.00  0.00    +0.113 C 
ATOM     12  C   UNL     1       2.562  -2.398  -0.058  0.00  0.00    +0.186 C 
ATOM     13  C   UNL     1       4.753  -1.692  -0.494  0.00  0.00    +0.175 C 
BRANCH   3   9
ATOM      9  C   UNL     1       2.558   1.352  -0.686  0.00  0.00    +0.088 C 
BRANCH   9   6
ATOM      6  C   UNL     1       3.281   2.454   0.016  0.00  0.00    +0.003 C 
ATOM      7  C   UNL     1       2.758   2.996   1.318  0.00  0.00    +0.005 C 
ATOM      8  C   UNL     1       2.687   3.834   0.072  0.00  0.00    +0.005 C 
ENDBRANCH   9   6
ENDBRANCH   3   9
ENDBRANCH  14  10
TORSDOF 4
