REMARK  Name = 86768986
REMARK  9 active torsions:
REMARK  status: ('A' for Active; 'I' for Inactive)
REMARK    1  A    between atoms: O_1  and  C_10
REMARK    2  A    between atoms: O_2  and  C_12
REMARK    3  A    between atoms: O_4  and  C_26
REMARK    4  A    between atoms: O_4  and  C_29
REMARK    5  A    between atoms: N_5  and  C_9
REMARK    6  A    between atoms: N_5  and  C_14
REMARK    7  A    between atoms: N_7  and  C_19
REMARK    8  A    between atoms: C_8  and  C_13
REMARK    9  A    between atoms: C_14  and  C_18
REMARK                            x       y       z     vdW  Elec       q    Type
REMARK                         _______ _______ _______ _____ _____    ______ ____
ROOT
ATOM      8  C   UNL     1       0.327  -1.647   0.646  0.00  0.00    +0.042 C 
ATOM      9  C   UNL     1       1.117  -1.842  -0.685  0.00  0.00    +0.093 C 
ATOM     10  C   UNL     1       1.424  -3.346  -0.751  0.00  0.00    +0.160 C 
ATOM     11  C   UNL     1       0.233  -3.044   1.289  0.00  0.00    +0.043 C 
ATOM     12  C   UNL     1       1.428  -3.787   0.710  0.00  0.00    +0.145 C 
ENDROOT
BRANCH   8  13
ATOM      6  N   UNL     1      -2.499   0.857   1.010  0.00  0.00    -0.240 NA
ATOM     13  C   UNL     1      -1.020  -0.978   0.472  0.00  0.00    -0.024 A 
ATOM     15  C   UNL     1      -1.999  -1.539  -0.341  0.00  0.00    +0.009 A 
ATOM     16  C   UNL     1      -1.318   0.210   1.120  0.00  0.00    +0.116 A 
ATOM     17  C   UNL     1      -3.228  -0.902  -0.479  0.00  0.00    +0.044 A 
ATOM     19  C   UNL     1      -3.426   0.282   0.211  0.00  0.00    +0.121 A 
BRANCH  19   7
ATOM      3  O   UNL     1      -7.021   2.401  -0.312  0.00  0.00    -0.377 OA
ATOM      7  N   UNL     1      -4.667   0.910   0.062  0.00  0.00    -0.311 N 
ATOM     20  C   UNL     1      -5.078   1.325  -1.287  0.00  0.00    +0.134 C 
ATOM     21  C   UNL     1      -5.214   1.718   1.157  0.00  0.00    +0.134 C 
ATOM     24  C   UNL     1      -6.591   1.501  -1.333  0.00  0.00    +0.178 C 
ATOM     25  C   UNL     1      -6.721   1.874   0.980  0.00  0.00    +0.178 C 
ENDBRANCH  19   7
ENDBRANCH   8  13
BRANCH  10   1
ATOM      1  O   UNL     1       0.373  -3.989  -1.470  0.00  0.00    -0.388 OA
ATOM     31  H   UNL     1       0.405  -3.665  -2.386  0.00  0.00    +0.210 HD
ENDBRANCH  10   1
BRANCH  12   2
ATOM      2  O   UNL     1       1.287  -5.185   0.856  0.00  0.00    -0.389 OA
ATOM     32  H   UNL     1       1.206  -5.373   1.807  0.00  0.00    +0.210 HD
ENDBRANCH  12   2
BRANCH   9   5
ATOM      5  N   UNL     1       2.366  -1.080  -0.630  0.00  0.00    -0.306 NA
ATOM     30  H   UNL     1       3.012  -1.446  -1.329  0.00  0.00    +0.123 HD
BRANCH   5  14
ATOM     14  C   UNL     1       2.127   0.329  -0.909  0.00  0.00    +0.116 C 
BRANCH  14  18
ATOM     18  C   UNL     1       3.398   1.135  -0.850  0.00  0.00    -0.030 A 
ATOM     22  C   UNL     1       3.954   1.470   0.384  0.00  0.00    +0.050 A 
ATOM     23  C   UNL     1       4.018   1.548  -2.030  0.00  0.00    +0.005 A 
ATOM     26  C   UNL     1       5.130   2.217   0.440  0.00  0.00    +0.120 A 
ATOM     27  C   UNL     1       5.194   2.296  -1.974  0.00  0.00    +0.004 A 
ATOM     28  C   UNL     1       5.750   2.630  -0.740  0.00  0.00    +0.045 A 
BRANCH  26   4
ATOM      4  O   UNL     1       5.672   2.545   1.644  0.00  0.00    -0.495 OA
ATOM     29  C   UNL     1       4.986   2.090   2.810  0.00  0.00    +0.277 C 
ENDBRANCH  26   4
ENDBRANCH  14  18
ENDBRANCH   5  14
ENDBRANCH   9   5
TORSDOF 8
