REMARK  Name = 25313130
REMARK  8 active torsions:
REMARK  status: ('A' for Active; 'I' for Inactive)
REMARK    1  A    between atoms: O_3  and  C_21
REMARK    2  A    between atoms: N_6  and  C_14
REMARK    3  A    between atoms: N_7  and  C_23
REMARK    4  A    between atoms: C_8  and  C_12
REMARK    5  A    between atoms: C_9  and  C_15
REMARK    6  A    between atoms: C_12  and  C_14
REMARK    7  A    between atoms: C_15  and  C_21
REMARK    8  A    between atoms: C_20  and  C_22
REMARK                            x       y       z     vdW  Elec       q    Type
REMARK                         _______ _______ _______ _____ _____    ______ ____
ROOT
ATOM      2  O   UNL     1      -3.807   2.135  -2.277  0.00  0.00    -0.270 OA
ATOM      5  N   UNL     1      -3.759   0.732  -0.406  0.00  0.00    -0.297 N 
ATOM      8  C   UNL     1      -2.607  -1.000   0.953  0.00  0.00    +0.011 C 
ATOM      9  C   UNL     1      -3.595  -2.049   0.383  0.00  0.00    +0.006 C 
ATOM     10  C   UNL     1      -3.255   0.396   0.933  0.00  0.00    +0.112 C 
ATOM     11  C   UNL     1      -4.130  -1.631  -0.997  0.00  0.00    +0.023 C 
ATOM     13  C   UNL     1      -4.718  -0.223  -0.958  0.00  0.00    +0.108 C 
ATOM     20  C   UNL     1      -3.392   1.853  -1.155  0.00  0.00    +0.247 C 
ENDROOT
BRANCH  20  22
ATOM      1  F   UNL     1       0.291   5.424   1.081  0.00  0.00    -0.205 F 
ATOM     22  C   UNL     1      -2.427   2.789  -0.568  0.00  0.00    +0.037 A 
ATOM     24  C   UNL     1      -1.060   2.606  -0.782  0.00  0.00    +0.016 A 
ATOM     25  C   UNL     1      -2.875   3.861   0.204  0.00  0.00    +0.016 A 
ATOM     28  C   UNL     1      -0.142   3.496  -0.225  0.00  0.00    +0.039 A 
ATOM     29  C   UNL     1      -1.956   4.750   0.761  0.00  0.00    +0.039 A 
ATOM     32  C   UNL     1      -0.590   4.568   0.547  0.00  0.00    +0.123 A 
ENDBRANCH  20  22
BRANCH   8  12
ATOM     12  C   UNL     1      -1.251  -0.969   0.236  0.00  0.00    +0.020 C 
BRANCH  12  14
ATOM     14  C   UNL     1      -0.161  -0.444   1.160  0.00  0.00    +0.085 C 
BRANCH  14   6
ATOM      6  N   UNL     1       1.117  -0.406   0.449  0.00  0.00    -0.299 NA
ATOM      7  N   UNL     1       3.945  -0.676   0.154  0.00  0.00    -0.327 N 
ATOM     16  C   UNL     1       1.740  -1.735   0.440  0.00  0.00    +0.103 C 
ATOM     17  C   UNL     1       2.024   0.566   1.072  0.00  0.00    +0.103 C 
ATOM     18  C   UNL     1       3.051  -1.723  -0.350  0.00  0.00    +0.120 C 
ATOM     19  C   UNL     1       3.344   0.656   0.303  0.00  0.00    +0.120 C 
BRANCH   7  23
ATOM     23  C   UNL     1       5.319  -0.752  -0.104  0.00  0.00    +0.030 A 
ATOM     26  C   UNL     1       5.776  -1.370  -1.267  0.00  0.00    +0.023 A 
ATOM     27  C   UNL     1       6.229  -0.207   0.801  0.00  0.00    +0.023 A 
ATOM     30  C   UNL     1       7.145  -1.443  -1.526  0.00  0.00    +0.002 A 
ATOM     31  C   UNL     1       7.598  -0.280   0.543  0.00  0.00    +0.002 A 
ATOM     33  C   UNL     1       8.056  -0.898  -0.621  0.00  0.00    +0.000 A 
ENDBRANCH   7  23
ENDBRANCH  14   6
ENDBRANCH  12  14
ENDBRANCH   8  12
BRANCH   9  15
ATOM     15  C   UNL     1      -3.009  -3.460   0.327  0.00  0.00    +0.124 C 
BRANCH  15  21
ATOM      4  O   UNL     1      -5.292  -4.313   0.322  0.00  0.00    -0.251 OA
ATOM     21  C   UNL     1      -4.086  -4.508   0.305  0.00  0.00    +0.305 C 
BRANCH  21   3
ATOM      3  O   UNL     1      -3.523  -5.743   0.261  0.00  0.00    -0.481 OA
ATOM     34  H   UNL     1      -4.199  -6.453   0.245  0.00  0.00    +0.295 HD
ENDBRANCH  21   3
ENDBRANCH  15  21
ENDBRANCH   9  15
TORSDOF 8
