REMARK  Name = 40779277
REMARK  8 active torsions:
REMARK  status: ('A' for Active; 'I' for Inactive)
REMARK    1  A    between atoms: O_2  and  C_26
REMARK    2  A    between atoms: O_2  and  C_27
REMARK    3  A    between atoms: N_4  and  C_18
REMARK    4  A    between atoms: N_5  and  C_15
REMARK    5  A    between atoms: C_8  and  C_14
REMARK    6  A    between atoms: C_9  and  C_15
REMARK    7  A    between atoms: C_17  and  C_20
REMARK    8  A    between atoms: C_19  and  C_21
REMARK                            x       y       z     vdW  Elec       q    Type
REMARK                         _______ _______ _______ _____ _____    ______ ____
ROOT
ATOM      3  N   UNL     1      -3.945  -0.465   1.360  0.00  0.00    -0.297 NA
ATOM      7  C   UNL     1      -3.066  -1.311  -0.941  0.00  0.00    +0.002 C 
ATOM      8  C   UNL     1      -2.138  -1.794   0.207  0.00  0.00    +0.055 C 
ATOM      9  C   UNL     1      -3.875   0.665   0.396  0.00  0.00    +0.074 C 
ATOM     10  C   UNL     1      -3.164   0.228  -0.904  0.00  0.00    +0.024 C 
ATOM     11  C   UNL     1      -4.475  -1.863  -0.636  0.00  0.00    +0.019 C 
ATOM     12  C   UNL     1      -2.607  -1.088   1.511  0.00  0.00    +0.094 C 
ATOM     13  C   UNL     1      -4.869  -1.481   0.802  0.00  0.00    +0.085 C 
ENDROOT
BRANCH   8  14
ATOM      4  N   UNL     1       0.112  -2.690  -0.554  0.00  0.00    -0.270 N 
ATOM      6  N   UNL     1       1.422  -2.405  -0.643  0.00  0.00    -0.171 NA
ATOM     14  C   UNL     1      -0.632  -1.693   0.005  0.00  0.00    +0.044 A 
ATOM     16  C   UNL     1       0.253  -0.686   0.304  0.00  0.00    +0.053 A 
ATOM     17  C   UNL     1       1.502  -1.179  -0.117  0.00  0.00    +0.093 A 
ATOM     18  C   UNL     1      -0.367  -3.965  -1.035  0.00  0.00    +0.172 C 
BRANCH  17  20
ATOM     20  C   UNL     1       2.770  -0.504  -0.025  0.00  0.00    +0.002 A 
ATOM     22  C   UNL     1       2.825   0.889  -0.087  0.00  0.00    +0.013 A 
ATOM     23  C   UNL     1       3.944  -1.242   0.124  0.00  0.00    +0.013 A 
ATOM     24  C   UNL     1       4.054   1.543   0.001  0.00  0.00    +0.046 A 
ATOM     25  C   UNL     1       5.173  -0.588   0.212  0.00  0.00    +0.046 A 
ATOM     26  C   UNL     1       5.228   0.804   0.150  0.00  0.00    +0.120 A 
BRANCH  26   2
ATOM      2  O   UNL     1       6.428   1.441   0.236  0.00  0.00    -0.495 OA
ATOM     27  C   UNL     1       7.588   0.624   0.387  0.00  0.00    +0.277 C 
ENDBRANCH  26   2
ENDBRANCH  17  20
ENDBRANCH   8  14
BRANCH   9  15
ATOM     15  C   UNL     1      -3.232   1.912   1.005  0.00  0.00    +0.123 C 
BRANCH  15   5
ATOM      1  O   UNL     1      -0.995   3.394  -0.103  0.00  0.00    -0.276 OA
ATOM      5  N   UNL     1      -3.285   3.012   0.092  0.00  0.00    -0.314 N 
ATOM     19  C   UNL     1      -2.156   3.669  -0.392  0.00  0.00    +0.210 C 
ATOM     21  C   UNL     1      -2.495   4.774  -1.357  0.00  0.00    +0.109 C 
ATOM     28  H   UNL     1      -4.202   3.346  -0.191  0.00  0.00    +0.149 HD
ENDBRANCH  15   5
ENDBRANCH   9  15
TORSDOF 5
