REMARK  Name = 11885190
REMARK  3 active torsions:
REMARK  status: ('A' for Active; 'I' for Inactive)
REMARK    1  A    between atoms: S_1  and  N_7
REMARK    2  A    between atoms: S_1  and  C_20
REMARK    3  A    between atoms: C_18  and  C_21
REMARK                            x       y       z     vdW  Elec       q    Type
REMARK                         _______ _______ _______ _____ _____    ______ ____
ROOT
ATOM      6  O   UNL     1      -3.490   0.836  -1.716  0.00  0.00    -0.267 OA
ATOM      7  N   UNL     1       1.261   0.166  -0.365  0.00  0.00    -0.176 NA
ATOM      8  N   UNL     1      -1.712   1.228  -0.258  0.00  0.00    -0.311 N 
ATOM      9  C   UNL     1       0.426   2.436  -0.984  0.00  0.00    +0.025 C 
ATOM     10  C   UNL     1       0.199   1.644   1.329  0.00  0.00    +0.052 C 
ATOM     11  C   UNL     1       0.509   2.869   0.473  0.00  0.00    +0.017 C 
ATOM     12  C   UNL     1       1.452   1.329  -1.278  0.00  0.00    +0.114 C 
ATOM     13  C   UNL     1       1.261   0.558   1.077  0.00  0.00    +0.119 C 
ATOM     14  C   UNL     1      -1.011   2.000  -1.294  0.00  0.00    +0.130 C 
ATOM     15  C   UNL     1      -1.188   1.106   1.031  0.00  0.00    +0.026 A 
ATOM     16  C   UNL     1      -1.900   0.497   1.992  0.00  0.00    +0.022 A 
ATOM     17  C   UNL     1      -2.979   0.716  -0.600  0.00  0.00    +0.260 A 
ATOM     18  C   UNL     1      -3.738   0.007   0.489  0.00  0.00    +0.053 A 
ATOM     19  C   UNL     1      -3.190  -0.065   1.711  0.00  0.00    +0.016 A 
ENDROOT
BRANCH  18  21
ATOM      2  S   UNL     1      -5.135  -2.240  -0.298  0.00  0.00    -0.096 S 
ATOM     21  C   UNL     1      -5.051  -0.608   0.229  0.00  0.00    +0.024 A 
ATOM     24  C   UNL     1      -6.310  -0.048   0.347  0.00  0.00    +0.016 A 
ATOM     28  C   UNL     1      -7.345  -0.965   0.003  0.00  0.00    +0.008 A 
ATOM     29  C   UNL     1      -6.846  -2.194  -0.366  0.00  0.00    +0.046 A 
ENDBRANCH  18  21
BRANCH   7   1
ATOM      1  S   UNL     1       2.167  -1.234  -0.750  0.00  0.00    +0.061 S 
ATOM      4  O   UNL     1       2.205  -1.376  -2.191  0.00  0.00    -0.153 OA
ATOM      5  O   UNL     1       1.757  -2.319   0.117  0.00  0.00    -0.153 OA
BRANCH   1  20
ATOM      3  F   UNL     1       7.741  -0.217   0.804  0.00  0.00    -0.205 F 
ATOM     20  C   UNL     1       3.864  -0.923  -0.277  0.00  0.00    +0.106 A 
ATOM     22  C   UNL     1       4.260  -1.258   0.996  0.00  0.00    +0.031 A 
ATOM     23  C   UNL     1       4.709  -0.363  -1.203  0.00  0.00    +0.031 A 
ATOM     25  C   UNL     1       5.583  -1.016   1.365  0.00  0.00    +0.040 A 
ATOM     26  C   UNL     1       6.033  -0.121  -0.834  0.00  0.00    +0.040 A 
ATOM     27  C   UNL     1       6.470  -0.448   0.450  0.00  0.00    +0.124 A 
ENDBRANCH   1  20
ENDBRANCH   7   1
TORSDOF 3
