REMARK  Name = 11865837
REMARK  12 active torsions:
REMARK  status: ('A' for Active; 'I' for Inactive)
REMARK    1  A    between atoms: S_1  and  C_19
REMARK    2  A    between atoms: S_1  and  C_28
REMARK    3  A    between atoms: N_7  and  C_11
REMARK    4  A    between atoms: N_8  and  C_17
REMARK    5  A    between atoms: N_9  and  C_22
REMARK    6  A    between atoms: C_12  and  C_15
REMARK    7  A    between atoms: C_16  and  C_19
REMARK    8  A    between atoms: C_17  and  C_20
REMARK    9  A    between atoms: C_17  and  C_21
REMARK   10  A    between atoms: C_20  and  C_23
REMARK   11  A    between atoms: C_22  and  C_24
REMARK   12  A    between atoms: C_22  and  C_25
REMARK                            x       y       z     vdW  Elec       q    Type
REMARK                         _______ _______ _______ _____ _____    ______ ____
ROOT
ATOM      3  O   UNL     1       3.115   1.350  -1.608  0.00  0.00    -0.275 OA
ATOM      6  N   UNL     1       2.616   0.319   0.404  0.00  0.00    -0.287 N 
ATOM     11  C   UNL     1       0.825  -1.051   1.137  0.00  0.00    +0.105 C 
ATOM     12  C   UNL     1       1.240  -0.036   0.072  0.00  0.00    +0.182 C 
ATOM     13  C   UNL     1       1.693  -0.679   2.342  0.00  0.00    +0.043 C 
ATOM     14  C   UNL     1       2.996  -0.196   1.717  0.00  0.00    +0.110 C 
ATOM     16  C   UNL     1       3.468   0.926  -0.506  0.00  0.00    +0.226 C 
ENDROOT
BRANCH  11   7
ATOM      4  O   UNL     1      -1.011  -2.837  -0.193  0.00  0.00    -0.253 OA
ATOM      7  N   UNL     1       1.089  -2.400   0.696  0.00  0.00    -0.294 N 
ATOM      9  N   UNL     1       0.657  -4.448  -0.258  0.00  0.00    -0.297 N 
ATOM     18  C   UNL     1       0.139  -3.195   0.059  0.00  0.00    +0.300 C 
ATOM     32  H   UNL     1       2.030  -2.769   0.798  0.00  0.00    +0.151 HD
ATOM     34  H   UNL     1       1.641  -4.623  -0.076  0.00  0.00    +0.150 HD
BRANCH   9  22
ATOM     22  C   UNL     1      -0.116  -5.469  -0.923  0.00  0.00    +0.068 C 
ATOM     24  C   UNL     1      -0.006  -5.322  -2.436  0.00  0.00    +0.027 C 
ATOM     25  C   UNL     1       0.331  -6.853  -0.469  0.00  0.00    +0.027 C 
ENDBRANCH   9  22
ENDBRANCH  11   7
BRANCH  12  15
ATOM      2  O   UNL     1       0.733   2.120   0.965  0.00  0.00    -0.274 OA
ATOM      8  N   UNL     1      -0.644   1.232  -0.689  0.00  0.00    -0.302 N 
ATOM     15  C   UNL     1       0.438   1.227   0.175  0.00  0.00    +0.236 C 
ATOM     33  H   UNL     1      -0.761   0.458  -1.337  0.00  0.00    +0.150 HD
BRANCH   8  17
ATOM     17  C   UNL     1      -1.587   2.324  -0.768  0.00  0.00    +0.163 C 
BRANCH  17  21
ATOM      5  O   UNL     1      -0.372   3.030  -2.751  0.00  0.00    -0.274 OA
ATOM     10  N   UNL     1      -1.350   4.636  -1.431  0.00  0.00    -0.328 N 
ATOM     21  C   UNL     1      -1.019   3.337  -1.752  0.00  0.00    +0.231 C 
ATOM     35  H   UNL     1      -1.046   5.410  -2.013  0.00  0.00    +0.145 HD
ATOM     36  H   UNL     1      -1.905   4.873  -0.615  0.00  0.00    +0.145 HD
ENDBRANCH  17  21
BRANCH  17  20
ATOM     20  C   UNL     1      -2.975   1.859  -1.222  0.00  0.00    +0.067 C 
BRANCH  20  23
ATOM     23  C   UNL     1      -3.774   1.229  -0.108  0.00  0.00    -0.045 A 
ATOM     26  C   UNL     1      -3.687  -0.144   0.122  0.00  0.00    +0.004 A 
ATOM     27  C   UNL     1      -4.599   2.019   0.693  0.00  0.00    +0.004 A 
ATOM     29  C   UNL     1      -4.425  -0.727   1.153  0.00  0.00    +0.000 A 
ATOM     30  C   UNL     1      -5.337   1.436   1.723  0.00  0.00    +0.000 A 
ATOM     31  C   UNL     1      -5.250   0.063   1.953  0.00  0.00    +0.000 A 
ENDBRANCH  20  23
ENDBRANCH  17  20
ENDBRANCH   8  17
ENDBRANCH  12  15
BRANCH  16  19
ATOM     19  C   UNL     1       4.904   1.059  -0.064  0.00  0.00    +0.164 C 
BRANCH  19   1
ATOM      1  S   UNL     1       5.073   2.640   0.777  0.00  0.00    -0.155 S 
ATOM     28  C   UNL     1       6.833   2.549   1.191  0.00  0.00    +0.085 C 
ENDBRANCH  19   1
ENDBRANCH  16  19
TORSDOF 9
