REMARK  Name = 44715947
REMARK  10 active torsions:
REMARK  status: ('A' for Active; 'I' for Inactive)
REMARK    1  A    between atoms: O_2  and  C_21
REMARK    2  A    between atoms: O_2  and  C_23
REMARK    3  A    between atoms: O_3  and  C_22
REMARK    4  A    between atoms: O_3  and  C_24
REMARK    5  A    between atoms: N_5  and  C_16
REMARK    6  A    between atoms: N_6  and  C_19
REMARK    7  A    between atoms: C_10  and  C_16
REMARK    8  A    between atoms: C_11  and  C_17
REMARK    9  A    between atoms: C_19  and  C_21
REMARK   10  A    between atoms: C_20  and  C_22
REMARK                            x       y       z     vdW  Elec       q    Type
REMARK                         _______ _______ _______ _____ _____    ______ ____
ROOT
ATOM      4  N   UNL     1       1.598   2.302  -1.060  0.00  0.00    -0.297 NA
ATOM      9  C   UNL     1       1.722   1.679   1.464  0.00  0.00    +0.005 C 
ATOM     10  C   UNL     1       0.252   1.905  -0.569  0.00  0.00    +0.078 C 
ATOM     11  C   UNL     1       2.778   0.910   0.647  0.00  0.00    +0.092 C 
ATOM     12  C   UNL     1       0.325   1.384   0.884  0.00  0.00    +0.025 C 
ATOM     13  C   UNL     1       2.000   3.178   1.249  0.00  0.00    +0.020 C 
ATOM     14  C   UNL     1       2.569   1.200  -0.850  0.00  0.00    +0.097 C 
ATOM     15  C   UNL     1       2.047   3.471  -0.263  0.00  0.00    +0.085 C 
ENDROOT
BRANCH  11  17
ATOM      1  O   UNL     1       1.918  -1.048   1.711  0.00  0.00    -0.275 OA
ATOM      6  N   UNL     1       3.711  -1.259   0.241  0.00  0.00    -0.313 N 
ATOM     17  C   UNL     1       2.734  -0.562   0.931  0.00  0.00    +0.218 C 
ATOM     25  H   UNL     1       4.343  -0.755  -0.374  0.00  0.00    +0.149 HD
BRANCH   6  19
ATOM     19  C   UNL     1       3.896  -2.687   0.358  0.00  0.00    +0.132 C 
BRANCH  19  21
ATOM     21  C   UNL     1       3.067  -3.442  -0.666  0.00  0.00    +0.178 C 
BRANCH  21   2
ATOM      2  O   UNL     1       1.688  -3.176  -0.445  0.00  0.00    -0.381 OA
ATOM     23  C   UNL     1       0.868  -3.867  -1.378  0.00  0.00    +0.194 C 
ENDBRANCH  21   2
ENDBRANCH  19  21
ENDBRANCH   6  19
ENDBRANCH  11  17
BRANCH  10  16
ATOM     16  C   UNL     1      -0.436   0.903  -1.499  0.00  0.00    +0.164 C 
BRANCH  16   5
ATOM      5  N   UNL     1      -1.859   0.654  -1.086  0.00  0.00    -0.250 N 
ATOM      7  N   UNL     1      -2.739   1.667  -1.010  0.00  0.00    -0.065 NA
ATOM      8  N   UNL     1      -3.900   1.152  -0.620  0.00  0.00    -0.132 NA
ATOM     18  C   UNL     1      -2.431  -0.533  -0.747  0.00  0.00    +0.136 A 
ATOM     20  C   UNL     1      -3.728  -0.194  -0.454  0.00  0.00    +0.108 A 
BRANCH  20  22
ATOM     22  C   UNL     1      -4.836  -1.056  -0.022  0.00  0.00    +0.218 C 
BRANCH  22   3
ATOM      3  O   UNL     1      -5.088  -0.877   1.374  0.00  0.00    -0.377 OA
ATOM     24  C   UNL     1      -6.155  -1.701   1.812  0.00  0.00    +0.194 C 
ENDBRANCH  22   3
ENDBRANCH  20  22
ENDBRANCH  16   5
ENDBRANCH  10  16
TORSDOF 8
