REMARK  Name = 45783412
REMARK  9 active torsions:
REMARK  status: ('A' for Active; 'I' for Inactive)
REMARK    1  A    between atoms: O_3  and  C_23
REMARK    2  A    between atoms: O_3  and  C_27
REMARK    3  A    between atoms: O_4  and  C_28
REMARK    4  A    between atoms: O_4  and  C_29
REMARK    5  A    between atoms: N_5  and  C_13
REMARK    6  A    between atoms: C_9  and  C_14
REMARK    7  A    between atoms: C_13  and  C_15
REMARK    8  A    between atoms: C_18  and  C_21
REMARK    9  A    between atoms: C_27  and  C_28
REMARK                            x       y       z     vdW  Elec       q    Type
REMARK                         _______ _______ _______ _____ _____    ______ ____
ROOT
ATOM      2  O   UNL     1      -0.823   1.762   1.771  0.00  0.00    -0.336 OA
ATOM      6  N   UNL     1       0.236  -0.133   1.217  0.00  0.00    -0.190 NA
ATOM      7  N   UNL     1       0.511   2.116   1.533  0.00  0.00    -0.056 NA
ATOM     14  C   UNL     1      -0.899   0.421   1.564  0.00  0.00    +0.245 A 
ATOM     18  C   UNL     1       1.071   0.946   1.212  0.00  0.00    +0.207 A 
ENDROOT
BRANCH  18  21
ATOM      8  N   UNL     1       4.224  -0.303  -0.333  0.00  0.00    -0.221 NA
ATOM     21  C   UNL     1       2.461   0.820   0.881  0.00  0.00    +0.084 A 
ATOM     23  C   UNL     1       2.925  -0.149   0.006  0.00  0.00    +0.226 A 
ATOM     24  C   UNL     1       3.391   1.687   1.444  0.00  0.00    +0.018 A 
ATOM     25  C   UNL     1       4.737   1.560   1.119  0.00  0.00    +0.021 A 
ATOM     26  C   UNL     1       5.099   0.558   0.233  0.00  0.00    +0.114 A 
BRANCH  23   3
ATOM      3  O   UNL     1       2.046  -1.028  -0.574  0.00  0.00    -0.474 OA
BRANCH   3  27
ATOM     27  C   UNL     1       2.599  -1.993  -1.460  0.00  0.00    +0.258 C 
BRANCH  27  28
ATOM     28  C   UNL     1       1.487  -2.883  -1.980  0.00  0.00    +0.200 C 
BRANCH  28   4
ATOM      4  O   UNL     1       0.876  -3.552  -0.882  0.00  0.00    -0.380 OA
ATOM     29  C   UNL     1      -0.191  -4.386  -1.310  0.00  0.00    +0.194 C 
ENDBRANCH  28   4
ENDBRANCH  27  28
ENDBRANCH   3  27
ENDBRANCH  23   3
ENDBRANCH  18  21
BRANCH  14   9
ATOM      5  N   UNL     1      -2.732  -0.926   0.555  0.00  0.00    -0.287 NA
ATOM      9  C   UNL     1      -2.258  -0.216   1.760  0.00  0.00    +0.146 C 
ATOM     10  C   UNL     1      -2.260  -1.285   2.869  0.00  0.00    +0.030 C 
ATOM     11  C   UNL     1      -2.806  -2.543   2.209  0.00  0.00    +0.017 C 
ATOM     12  C   UNL     1      -3.591  -2.013   1.026  0.00  0.00    +0.085 C 
BRANCH   5  13
ATOM     13  C   UNL     1      -3.417  -0.057  -0.392  0.00  0.00    +0.123 C 
BRANCH  13  15
ATOM      1  F   UNL     1      -3.392   2.776  -0.458  0.00  0.00    -0.205 F 
ATOM     15  C   UNL     1      -2.448   0.737  -1.227  0.00  0.00    +0.002 A 
ATOM     16  C   UNL     1      -2.491   2.131  -1.213  0.00  0.00    +0.128 A 
ATOM     17  C   UNL     1      -1.507   0.076  -2.016  0.00  0.00    +0.008 A 
ATOM     19  C   UNL     1      -1.592   2.865  -1.988  0.00  0.00    +0.038 A 
ATOM     20  C   UNL     1      -0.608   0.809  -2.791  0.00  0.00    +0.000 A 
ATOM     22  C   UNL     1      -0.650   2.204  -2.776  0.00  0.00    +0.003 A 
ENDBRANCH  13  15
ENDBRANCH   5  13
ENDBRANCH  14   9
TORSDOF 8
