REMARK  Name = 7155401
REMARK  5 active torsions:
REMARK  status: ('A' for Active; 'I' for Inactive)
REMARK    1  A    between atoms: S_1  and  C_28
REMARK    2  A    between atoms: S_1  and  C_30
REMARK    3  A    between atoms: N_4  and  C_13
REMARK    4  A    between atoms: C_13  and  C_18
REMARK    5  A    between atoms: C_14  and  C_19
REMARK                            x       y       z     vdW  Elec       q    Type
REMARK                         _______ _______ _______ _____ _____    ______ ____
ROOT
ATOM      3  O   UNL     1       4.195   1.659  -2.034  0.00  0.00    -0.268 OA
ATOM      4  N   UNL     1       1.867  -1.188   1.319  0.00  0.00    -0.297 NA
ATOM      5  N   UNL     1       2.569   1.414  -0.367  0.00  0.00    -0.311 N 
ATOM      6  C   UNL     1       3.199   0.800   2.044  0.00  0.00    +0.024 C 
ATOM      7  C   UNL     1       0.848   1.095   1.436  0.00  0.00    +0.051 C 
ATOM      8  C   UNL     1       1.932   1.555   2.407  0.00  0.00    +0.017 C 
ATOM      9  C   UNL     1       2.972  -0.720   2.164  0.00  0.00    +0.090 C 
ATOM     10  C   UNL     1       0.636  -0.431   1.587  0.00  0.00    +0.094 C 
ATOM     11  C   UNL     1       3.626   1.218   0.635  0.00  0.00    +0.130 C 
ATOM     12  C   UNL     1       1.204   1.455  -0.012  0.00  0.00    +0.034 A 
ATOM     14  C   UNL     1       0.273   1.787  -0.946  0.00  0.00    +0.002 A 
ATOM     15  C   UNL     1       3.018   1.669  -1.674  0.00  0.00    +0.252 A 
ATOM     16  C   UNL     1       0.701   2.052  -2.307  0.00  0.00    +0.015 A 
ATOM     17  C   UNL     1       1.980   1.990  -2.679  0.00  0.00    +0.071 A 
ENDROOT
BRANCH  14  19
ATOM     19  C   UNL     1      -1.121   1.859  -0.601  0.00  0.00    -0.016 A 
ATOM     22  C   UNL     1      -1.918   0.723  -0.703  0.00  0.00    +0.009 A 
ATOM     23  C   UNL     1      -1.664   3.066  -0.167  0.00  0.00    +0.009 A 
ATOM     24  C   UNL     1      -3.271   0.794  -0.369  0.00  0.00    +0.015 A 
ATOM     25  C   UNL     1      -3.017   3.136   0.167  0.00  0.00    +0.015 A 
ATOM     28  C   UNL     1      -3.820   2.000   0.066  0.00  0.00    +0.008 A 
BRANCH  28   1
ATOM      1  S   UNL     1      -5.548   2.091   0.492  0.00  0.00    -0.129 S 
ATOM     30  C   UNL     1      -5.661   0.878   1.837  0.00  0.00    +0.090 C 
ENDBRANCH  28   1
ENDBRANCH  14  19
BRANCH   4  13
ATOM     13  C   UNL     1       1.647  -2.622   1.491  0.00  0.00    +0.119 C 
BRANCH  13  18
ATOM      2  F   UNL     1      -2.314  -4.562  -1.993  0.00  0.00    -0.205 F 
ATOM     18  C   UNL     1       0.586  -3.142   0.558  0.00  0.00    -0.033 A 
ATOM     20  C   UNL     1      -0.740  -3.149   0.967  0.00  0.00    +0.008 A 
ATOM     21  C   UNL     1       0.949  -3.607  -0.698  0.00  0.00    +0.008 A 
ATOM     26  C   UNL     1      -1.723  -3.631   0.103  0.00  0.00    +0.038 A 
ATOM     27  C   UNL     1      -0.034  -4.088  -1.563  0.00  0.00    +0.038 A 
ATOM     29  C   UNL     1      -1.370  -4.100  -1.162  0.00  0.00    +0.123 A 
ENDBRANCH  13  18
ENDBRANCH   4  13
TORSDOF 4
