REMARK  Name = 71693886
REMARK  9 active torsions:
REMARK  status: ('A' for Active; 'I' for Inactive)
REMARK    1  A    between atoms: O_1  and  C_9
REMARK    2  A    between atoms: O_2  and  C_11
REMARK    3  A    between atoms: O_4  and  C_18
REMARK    4  A    between atoms: O_4  and  C_20
REMARK    5  A    between atoms: O_5  and  C_19
REMARK    6  A    between atoms: O_5  and  C_21
REMARK    7  A    between atoms: N_6  and  C_8
REMARK    8  A    between atoms: C_7  and  C_12
REMARK    9  A    between atoms: C_15  and  C_18
REMARK                            x       y       z     vdW  Elec       q    Type
REMARK                         _______ _______ _______ _____ _____    ______ ____
ROOT
ATOM      7  C   UNL     1       0.213  -1.275   1.032  0.00  0.00    +0.044 C 
ATOM      8  C   UNL     1       1.318  -1.129  -0.039  0.00  0.00    +0.111 C 
ATOM      9  C   UNL     1       2.036  -2.477   0.005  0.00  0.00    +0.164 C 
ATOM     10  C   UNL     1      -0.026  -2.800   1.187  0.00  0.00    +0.044 C 
ATOM     11  C   UNL     1       0.894  -3.472   0.170  0.00  0.00    +0.145 C 
ENDROOT
BRANCH   7  12
ATOM     12  C   UNL     1      -1.034  -0.478   0.709  0.00  0.00    -0.042 A 
ATOM     13  C   UNL     1      -1.738  -0.731  -0.468  0.00  0.00    +0.007 A 
ATOM     14  C   UNL     1      -1.478   0.509   1.589  0.00  0.00    +0.007 A 
ATOM     16  C   UNL     1      -2.885   0.003  -0.766  0.00  0.00    +0.046 A 
ATOM     17  C   UNL     1      -2.626   1.243   1.291  0.00  0.00    +0.046 A 
ATOM     19  C   UNL     1      -3.330   0.990   0.114  0.00  0.00    +0.120 A 
BRANCH  19   5
ATOM      5  O   UNL     1      -4.449   1.707  -0.177  0.00  0.00    -0.495 OA
ATOM     21  C   UNL     1      -5.120   1.396  -1.397  0.00  0.00    +0.277 C 
ENDBRANCH  19   5
ENDBRANCH   7  12
BRANCH   8   6
ATOM      3  O   UNL     1       1.117   1.590  -1.004  0.00  0.00    -0.273 OA
ATOM      6  N   UNL     1       2.209  -0.035   0.251  0.00  0.00    -0.307 N 
ATOM     15  C   UNL     1       2.031   1.243  -0.261  0.00  0.00    +0.239 C 
ATOM     22  H   UNL     1       2.972  -0.198   0.903  0.00  0.00    +0.149 HD
BRANCH  15  18
ATOM     18  C   UNL     1       3.112   2.194   0.206  0.00  0.00    +0.255 C 
BRANCH  18   4
ATOM      4  O   UNL     1       2.900   3.487  -0.318  0.00  0.00    -0.374 OA
ATOM     20  C   UNL     1       3.904   4.404   0.106  0.00  0.00    +0.194 C 
ENDBRANCH  18   4
ENDBRANCH  15  18
ENDBRANCH   8   6
BRANCH   9   1
ATOM      1  O   UNL     1       2.770  -2.732  -1.178  0.00  0.00    -0.387 OA
ATOM     23  H   UNL     1       3.117  -3.639  -1.116  0.00  0.00    +0.210 HD
ENDBRANCH   9   1
BRANCH  11   2
ATOM      2  O   UNL     1       0.181  -3.638  -1.052  0.00  0.00    -0.389 OA
ATOM     24  H   UNL     1      -0.556  -4.249  -0.879  0.00  0.00    +0.210 HD
ENDBRANCH  11   2
TORSDOF 7
