REMARK  Name = 44716170
REMARK  8 active torsions:
REMARK  status: ('A' for Active; 'I' for Inactive)
REMARK    1  A    between atoms: N_4  and  C_15
REMARK    2  A    between atoms: N_7  and  C_23
REMARK    3  A    between atoms: N_7  and  C_24
REMARK    4  A    between atoms: N_7  and  C_25
REMARK    5  A    between atoms: C_9  and  C_16
REMARK    6  A    between atoms: C_10  and  C_15
REMARK    7  A    between atoms: C_22  and  C_23
REMARK    8  A    between atoms: C_24  and  C_26
REMARK                            x       y       z     vdW  Elec       q    Type
REMARK                         _______ _______ _______ _____ _____    ______ ____
ROOT
ATOM     15  C   UNL     1      -0.032   3.228   0.452  0.00  0.00    +0.164 C 
ENDROOT
BRANCH  15  10
ATOM      2  N   UNL     1      -2.503   2.813   0.494  0.00  0.00    -0.297 NA
ATOM      8  C   UNL     1      -2.264   0.245   0.846  0.00  0.00    +0.005 C 
ATOM      9  C   UNL     1      -3.360   0.570  -0.188  0.00  0.00    +0.092 C 
ATOM     10  C   UNL     1      -1.188   2.343  -0.022  0.00  0.00    +0.078 C 
ATOM     11  C   UNL     1      -0.949   0.855   0.325  0.00  0.00    +0.025 C 
ATOM     12  C   UNL     1      -2.582   0.962   2.171  0.00  0.00    +0.020 C 
ATOM     13  C   UNL     1      -3.576   2.095  -0.241  0.00  0.00    +0.097 C 
ATOM     14  C   UNL     1      -2.647   2.478   1.929  0.00  0.00    +0.085 C 
BRANCH   9  16
ATOM      1  O   UNL     1      -5.507   0.374   0.824  0.00  0.00    -0.275 OA
ATOM      3  N   UNL     1      -4.764  -1.419  -0.429  0.00  0.00    -0.301 N 
ATOM     16  C   UNL     1      -4.646  -0.155   0.120  0.00  0.00    +0.220 C 
ATOM     17  C   UNL     1      -5.940  -2.250  -0.220  0.00  0.00    +0.108 C 
ATOM     18  C   UNL     1      -3.785  -2.099  -1.272  0.00  0.00    +0.108 C 
ATOM     19  C   UNL     1      -5.799  -3.372  -1.237  0.00  0.00    +0.020 C 
ATOM     20  C   UNL     1      -4.289  -3.533  -1.356  0.00  0.00    +0.020 C 
ENDBRANCH   9  16
ENDBRANCH  15  10
BRANCH  15   4
ATOM      4  N   UNL     1       1.259   2.855  -0.221  0.00  0.00    -0.250 N 
ATOM      5  N   UNL     1       1.369   2.886  -1.559  0.00  0.00    -0.065 NA
ATOM      6  N   UNL     1       2.606   2.507  -1.861  0.00  0.00    -0.133 NA
ATOM     21  C   UNL     1       2.419   2.457   0.369  0.00  0.00    +0.135 A 
ATOM     22  C   UNL     1       3.262   2.241  -0.691  0.00  0.00    +0.097 A 
BRANCH  22  23
ATOM     23  C   UNL     1       4.661   1.794  -0.686  0.00  0.00    +0.143 C 
BRANCH  23   7
ATOM      7  N   UNL     1       4.850   0.486  -0.036  0.00  0.00    -0.295 NA
ATOM     25  C   UNL     1       6.245   0.320   0.358  0.00  0.00    +0.105 C 
BRANCH   7  24
ATOM     24  C   UNL     1       4.432  -0.585  -0.934  0.00  0.00    +0.119 C 
BRANCH  24  26
ATOM     26  C   UNL     1       4.098  -1.847  -0.184  0.00  0.00    -0.033 A 
ATOM     27  C   UNL     1       5.091  -2.795   0.064  0.00  0.00    +0.005 A 
ATOM     28  C   UNL     1       2.796  -2.068   0.264  0.00  0.00    +0.005 A 
ATOM     29  C   UNL     1       4.781  -3.965   0.758  0.00  0.00    +0.000 A 
ATOM     30  C   UNL     1       2.486  -3.237   0.958  0.00  0.00    +0.000 A 
ATOM     31  C   UNL     1       3.478  -4.185   1.206  0.00  0.00    +0.000 A 
ENDBRANCH  24  26
ENDBRANCH   7  24
ENDBRANCH  23   7
ENDBRANCH  22  23
ENDBRANCH  15   4
TORSDOF 7
