REMARK  Name = 45783383
REMARK  10 active torsions:
REMARK  status: ('A' for Active; 'I' for Inactive)
REMARK    1  A    between atoms: O_2  and  C_24
REMARK    2  A    between atoms: O_2  and  C_25
REMARK    3  A    between atoms: N_3  and  C_12
REMARK    4  A    between atoms: N_6  and  C_22
REMARK    5  A    between atoms: C_8  and  C_14
REMARK    6  A    between atoms: C_12  and  C_13
REMARK    7  A    between atoms: C_13  and  C_15
REMARK    8  A    between atoms: C_13  and  C_16
REMARK    9  A    between atoms: C_17  and  C_18
REMARK   10  A    between atoms: C_22  and  C_24
REMARK                            x       y       z     vdW  Elec       q    Type
REMARK                         _______ _______ _______ _____ _____    ______ ____
ROOT
ATOM      1  O   UNL     1       0.539   2.733  -0.017  0.00  0.00    -0.336 OA
ATOM      4  N   UNL     1      -0.113   0.693  -0.673  0.00  0.00    -0.190 NA
ATOM      5  N   UNL     1      -0.838   2.666   0.229  0.00  0.00    -0.056 NA
ATOM     14  C   UNL     1       0.885   1.531  -0.548  0.00  0.00    +0.245 A 
ATOM     17  C   UNL     1      -1.149   1.434  -0.183  0.00  0.00    +0.205 A 
ENDROOT
BRANCH  17  18
ATOM      6  N   UNL     1      -1.666  -1.337   0.165  0.00  0.00    -0.326 N 
ATOM      7  N   UNL     1      -4.001  -0.955   0.112  0.00  0.00    -0.240 NA
ATOM     18  C   UNL     1      -2.484   0.913  -0.120  0.00  0.00    +0.062 A 
ATOM     19  C   UNL     1      -2.755  -0.436   0.049  0.00  0.00    +0.130 A 
ATOM     20  C   UNL     1      -3.562   1.784  -0.232  0.00  0.00    +0.016 A 
ATOM     21  C   UNL     1      -4.859   1.287  -0.172  0.00  0.00    +0.020 A 
ATOM     23  C   UNL     1      -5.024  -0.078  -0.001  0.00  0.00    +0.113 A 
ATOM     26  H   UNL     1      -0.792  -0.938   0.485  0.00  0.00    +0.148 HD
BRANCH   6  22
ATOM     22  C   UNL     1      -1.846  -2.741   0.341  0.00  0.00    +0.131 C 
BRANCH  22  24
ATOM     24  C   UNL     1      -0.496  -3.426   0.465  0.00  0.00    +0.178 C 
BRANCH  24   2
ATOM      2  O   UNL     1       0.248  -3.226  -0.730  0.00  0.00    -0.381 OA
ATOM     25  C   UNL     1       1.520  -3.857  -0.663  0.00  0.00    +0.194 C 
ENDBRANCH  24   2
ENDBRANCH  22  24
ENDBRANCH   6  22
ENDBRANCH  17  18
BRANCH  14   8
ATOM      3  N   UNL     1       2.956   0.190  -0.222  0.00  0.00    -0.291 NA
ATOM      8  C   UNL     1       2.344   1.347  -0.907  0.00  0.00    +0.146 C 
ATOM      9  C   UNL     1       2.557   1.070  -2.407  0.00  0.00    +0.030 C 
ATOM     10  C   UNL     1       4.015  -0.300  -1.104  0.00  0.00    +0.085 C 
ATOM     11  C   UNL     1       3.349  -0.229  -2.463  0.00  0.00    +0.017 C 
BRANCH   3  12
ATOM     12  C   UNL     1       3.455   0.509   1.109  0.00  0.00    +0.088 C 
BRANCH  12  13
ATOM     13  C   UNL     1       2.347   0.478   2.175  0.00  0.00    -0.003 C 
ATOM     15  C   UNL     1       1.722  -0.918   2.231  0.00  0.00    +0.008 C 
ATOM     16  C   UNL     1       2.857   0.870   3.565  0.00  0.00    +0.008 C 
ENDBRANCH  12  13
ENDBRANCH   3  12
ENDBRANCH  14   8
TORSDOF 7
