REMARK  Name = 11884237
REMARK  3 active torsions:
REMARK  status: ('A' for Active; 'I' for Inactive)
REMARK    1  A    between atoms: C_16  and  C_17
REMARK    2  A    between atoms: C_26  and  C_28
REMARK    3  A    between atoms: C_31  and  C_34
REMARK                            x       y       z     vdW  Elec       q    Type
REMARK                         _______ _______ _______ _____ _____    ______ ____
ROOT
ATOM      5  O   UNL     1       5.867  -0.048   2.023  0.00  0.00    -0.274 OA
ATOM      6  O   UNL     1       3.130  -2.377   0.323  0.00  0.00    -0.273 OA
ATOM      7  O   UNL     1      -0.248   1.061  -1.845  0.00  0.00    -0.270 OA
ATOM      8  N   UNL     1       1.453   0.353  -0.446  0.00  0.00    -0.283 N 
ATOM      9  N   UNL     1       4.212   0.412   0.452  0.00  0.00    -0.296 N 
ATOM     10  N   UNL     1       0.879  -2.513   0.011  0.00  0.00    -0.283 N 
ATOM     12  C   UNL     1       1.855  -0.373   0.751  0.00  0.00    +0.180 C 
ATOM     13  C   UNL     1       3.115   0.210   1.402  0.00  0.00    +0.139 C 
ATOM     14  C   UNL     1       2.417   1.297  -1.014  0.00  0.00    +0.128 C 
ATOM     15  C   UNL     1       3.844   0.780  -0.918  0.00  0.00    +0.127 C 
ATOM     16  C   UNL     1       5.533   0.260   0.882  0.00  0.00    +0.234 C 
ATOM     18  C   UNL     1       2.030  -1.820   0.319  0.00  0.00    +0.239 C 
ATOM     19  C   UNL     1       0.158   0.313  -0.954  0.00  0.00    +0.249 C 
ATOM     20  C   UNL     1      -0.792  -0.701  -0.423  0.00  0.00    +0.059 A 
ATOM     22  C   UNL     1      -0.438  -2.018  -0.087  0.00  0.00    +0.046 A 
ATOM     24  C   UNL     1      -2.151  -0.337  -0.443  0.00  0.00    +0.023 A 
ATOM     25  C   UNL     1      -1.457  -2.957   0.153  0.00  0.00    +0.024 A 
ATOM     26  C   UNL     1      -3.147  -1.270  -0.154  0.00  0.00    -0.017 A 
ATOM     27  C   UNL     1      -2.800  -2.584   0.130  0.00  0.00    +0.010 A 
ATOM     35  H   UNL     1       0.982  -3.523  -0.057  0.00  0.00    +0.155 HD
ENDROOT
BRANCH  16  17
ATOM      1  S   UNL     1       9.187   0.657  -0.621  0.00  0.00    -0.143 S 
ATOM     11  N   UNL     1       6.930   1.933  -0.064  0.00  0.00    -0.296 NA
ATOM     17  C   UNL     1       6.608   0.507  -0.124  0.00  0.00    +0.151 C 
ATOM     21  C   UNL     1       7.876  -0.265   0.218  0.00  0.00    +0.098 C 
ATOM     23  C   UNL     1       8.151   2.126  -0.841  0.00  0.00    +0.151 C 
ATOM     36  H   UNL     1       7.136   2.182   0.905  0.00  0.00    +0.123 HD
ENDBRANCH  16  17
BRANCH  26  28
ATOM     28  C   UNL     1      -4.539  -0.875  -0.175  0.00  0.00    -0.017 A 
ATOM     29  C   UNL     1      -4.899   0.429   0.165  0.00  0.00    +0.021 A 
ATOM     30  C   UNL     1      -5.520  -1.799  -0.533  0.00  0.00    +0.008 A 
ATOM     31  C   UNL     1      -6.242   0.808   0.147  0.00  0.00    +0.055 A 
ATOM     32  C   UNL     1      -6.862  -1.419  -0.552  0.00  0.00    +0.001 A 
ATOM     33  C   UNL     1      -7.223  -0.116  -0.212  0.00  0.00    +0.012 A 
BRANCH  31  34
ATOM      2  F   UNL     1      -7.973   2.431   0.448  0.00  0.00    -0.166 F 
ATOM      3  F   UNL     1      -6.265   2.557   1.778  0.00  0.00    -0.166 F 
ATOM      4  F   UNL     1      -6.060   3.135  -0.308  0.00  0.00    -0.166 F 
ATOM     34  C   UNL     1      -6.628   2.202   0.510  0.00  0.00    +0.417 C 
ENDBRANCH  31  34
ENDBRANCH  26  28
TORSDOF 3
