REMARK  Name = 44716358
REMARK  13 active torsions:
REMARK  status: ('A' for Active; 'I' for Inactive)
REMARK    1  A    between atoms: O_1  and  C_27
REMARK    2  A    between atoms: O_1  and  C_33
REMARK    3  A    between atoms: O_2  and  C_31
REMARK    4  A    between atoms: O_2  and  C_34
REMARK    5  A    between atoms: O_3  and  C_32
REMARK    6  A    between atoms: O_3  and  C_35
REMARK    7  A    between atoms: N_5  and  C_20
REMARK    8  A    between atoms: N_6  and  C_15
REMARK    9  A    between atoms: N_6  and  C_19
REMARK   10  A    between atoms: C_9  and  C_16
REMARK   11  A    between atoms: C_10  and  C_15
REMARK   12  A    between atoms: C_18  and  C_21
REMARK   13  A    between atoms: C_19  and  C_22
REMARK                            x       y       z     vdW  Elec       q    Type
REMARK                         _______ _______ _______ _____ _____    ______ ____
ROOT
ATOM      4  N   UNL     1      -4.791  -0.283   1.054  0.00  0.00    -0.298 NA
ATOM      8  C   UNL     1      -3.895  -1.633  -0.985  0.00  0.00    +0.002 C 
ATOM      9  C   UNL     1      -3.150  -2.050   0.313  0.00  0.00    +0.055 C 
ATOM     10  C   UNL     1      -4.460   0.641  -0.062  0.00  0.00    +0.071 C 
ATOM     11  C   UNL     1      -3.737  -0.113  -1.199  0.00  0.00    +0.024 C 
ATOM     12  C   UNL     1      -5.396  -1.904  -0.743  0.00  0.00    +0.019 C 
ATOM     13  C   UNL     1      -3.591  -1.069   1.436  0.00  0.00    +0.094 C 
ATOM     14  C   UNL     1      -5.827  -1.227   0.570  0.00  0.00    +0.085 C 
ENDROOT
BRANCH   9  16
ATOM      5  N   UNL     1      -1.031  -3.395  -0.067  0.00  0.00    -0.270 N 
ATOM      7  N   UNL     1       0.311  -3.333  -0.065  0.00  0.00    -0.171 NA
ATOM     16  C   UNL     1      -1.638  -2.216   0.252  0.00  0.00    +0.044 A 
ATOM     17  C   UNL     1      -0.622  -1.320   0.478  0.00  0.00    +0.053 A 
ATOM     18  C   UNL     1       0.555  -2.063   0.269  0.00  0.00    +0.093 A 
ATOM     20  C   UNL     1      -1.679  -4.645  -0.389  0.00  0.00    +0.172 C 
BRANCH  18  21
ATOM     21  C   UNL     1       1.908  -1.583   0.383  0.00  0.00    +0.006 A 
ATOM     23  C   UNL     1       2.916  -2.145  -0.401  0.00  0.00    +0.059 A 
ATOM     24  C   UNL     1       2.211  -0.557   1.278  0.00  0.00    +0.014 A 
ATOM     27  C   UNL     1       4.227  -1.680  -0.290  0.00  0.00    +0.162 A 
ATOM     28  C   UNL     1       3.522  -0.093   1.390  0.00  0.00    +0.050 A 
ATOM     31  C   UNL     1       4.529  -0.655   0.605  0.00  0.00    +0.162 A 
BRANCH  27   1
ATOM      1  O   UNL     1       5.202  -2.236  -1.061  0.00  0.00    -0.491 OA
ATOM     33  C   UNL     1       5.439  -1.641  -2.336  0.00  0.00    +0.277 C 
ENDBRANCH  27   1
BRANCH  31   2
ATOM      2  O   UNL     1       5.806  -0.193   0.723  0.00  0.00    -0.491 OA
ATOM     34  C   UNL     1       6.030   0.858   1.661  0.00  0.00    +0.277 C 
ENDBRANCH  31   2
ENDBRANCH  18  21
ENDBRANCH   9  16
BRANCH  10  15
ATOM     15  C   UNL     1      -3.665   1.861   0.408  0.00  0.00    +0.100 C 
BRANCH  15   6
ATOM      6  N   UNL     1      -3.486   2.811  -0.678  0.00  0.00    -0.311 NA
ATOM     36  H   UNL     1      -4.404   3.120  -1.000  0.00  0.00    +0.122 HD
BRANCH   6  19
ATOM     19  C   UNL     1      -2.721   3.971  -0.238  0.00  0.00    +0.116 C 
BRANCH  19  22
ATOM     22  C   UNL     1      -1.243   3.684  -0.195  0.00  0.00    -0.033 A 
ATOM     25  C   UNL     1      -0.540   3.826   1.001  0.00  0.00    +0.008 A 
ATOM     26  C   UNL     1      -0.578   3.277  -1.351  0.00  0.00    +0.008 A 
ATOM     29  C   UNL     1       0.829   3.561   1.041  0.00  0.00    +0.046 A 
ATOM     30  C   UNL     1       0.791   3.012  -1.312  0.00  0.00    +0.046 A 
ATOM     32  C   UNL     1       1.494   3.154  -0.115  0.00  0.00    +0.120 A 
BRANCH  32   3
ATOM      3  O   UNL     1       2.830   2.896  -0.076  0.00  0.00    -0.495 OA
ATOM     35  C   UNL     1       3.448   2.484  -1.295  0.00  0.00    +0.277 C 
ENDBRANCH  32   3
ENDBRANCH  19  22
ENDBRANCH   6  19
ENDBRANCH  15   6
ENDBRANCH  10  15
TORSDOF 9
