REMARK  Name = 28961042
REMARK  7 active torsions:
REMARK  status: ('A' for Active; 'I' for Inactive)
REMARK    1  A    between atoms: S_1  and  N_8
REMARK    2  A    between atoms: S_1  and  C_18
REMARK    3  A    between atoms: N_7  and  C_17
REMARK    4  A    between atoms: N_8  and  C_12
REMARK    5  A    between atoms: C_13  and  C_16
REMARK    6  A    between atoms: C_19  and  C_20
REMARK    7  A    between atoms: C_28  and  C_32
REMARK                            x       y       z     vdW  Elec       q    Type
REMARK                         _______ _______ _______ _____ _____    ______ ____
ROOT
ATOM      7  N   UNL     1      -0.806   1.847  -0.751  0.00  0.00    -0.293 NA
ATOM     12  C   UNL     1      -2.071   0.731   0.861  0.00  0.00    +0.092 C 
ATOM     13  C   UNL     1      -0.087   2.110   0.511  0.00  0.00    +0.147 C 
ATOM     14  C   UNL     1      -0.801   1.224   1.551  0.00  0.00    +0.050 C 
ATOM     15  C   UNL     1      -2.203   1.609  -0.373  0.00  0.00    +0.105 C 
ATOM     17  C   UNL     1      -0.683   2.930  -1.719  0.00  0.00    +0.105 C 
ENDROOT
BRANCH  13  16
ATOM      2  O   UNL     1       2.226   2.865   0.730  0.00  0.00    -0.336 OA
ATOM      9  N   UNL     1       2.018   0.724   0.109  0.00  0.00    -0.190 NA
ATOM     10  N   UNL     1       3.529   2.373   0.588  0.00  0.00    -0.056 NA
ATOM     16  C   UNL     1       1.398   1.831   0.430  0.00  0.00    +0.245 A 
ATOM     19  C   UNL     1       3.324   1.105   0.220  0.00  0.00    +0.202 A 
BRANCH  19  20
ATOM      5  O   UNL     1       8.061  -0.045  -0.111  0.00  0.00    -0.453 OA
ATOM      6  O   UNL     1       7.570  -2.312  -0.765  0.00  0.00    -0.453 OA
ATOM     20  C   UNL     1       4.400   0.194  -0.043  0.00  0.00    +0.026 A 
ATOM     23  C   UNL     1       5.722   0.627   0.083  0.00  0.00    +0.061 A 
ATOM     26  C   UNL     1       4.114  -1.128  -0.425  0.00  0.00    +0.015 A 
ATOM     27  C   UNL     1       6.723  -0.285  -0.180  0.00  0.00    +0.167 A 
ATOM     29  C   UNL     1       6.443  -1.580  -0.554  0.00  0.00    +0.166 A 
ATOM     30  C   UNL     1       5.146  -2.033  -0.685  0.00  0.00    +0.050 A 
ATOM     31  C   UNL     1       8.591  -1.334  -0.482  0.00  0.00    +0.466 C 
ENDBRANCH  19  20
ENDBRANCH  13  16
BRANCH  12   8
ATOM      8  N   UNL     1      -1.907  -0.689   0.459  0.00  0.00    -0.186 NA
ATOM     33  H   UNL     1      -1.296  -0.886  -0.343  0.00  0.00    +0.148 HD
BRANCH   8   1
ATOM      1  S   UNL     1      -2.999  -1.857   1.027  0.00  0.00    +0.059 S 
ATOM      3  O   UNL     1      -3.061  -1.798   2.475  0.00  0.00    -0.153 OA
ATOM      4  O   UNL     1      -2.725  -3.114   0.359  0.00  0.00    -0.153 OA
BRANCH   1  18
ATOM     18  C   UNL     1      -4.537  -1.259   0.392  0.00  0.00    +0.105 A 
ATOM     21  C   UNL     1      -4.978  -1.668  -0.866  0.00  0.00    +0.030 A 
ATOM     22  C   UNL     1      -5.309  -0.378   1.150  0.00  0.00    +0.030 A 
ATOM     24  C   UNL     1      -6.191  -1.197  -1.367  0.00  0.00    +0.021 A 
ATOM     25  C   UNL     1      -6.522   0.094   0.649  0.00  0.00    +0.021 A 
ATOM     28  C   UNL     1      -6.963  -0.316  -0.610  0.00  0.00    +0.052 A 
BRANCH  28  32
ATOM     11  N   UNL     1      -9.216   0.561  -1.540  0.00  0.00    -0.191 NA
ATOM     32  C   UNL     1      -8.206   0.168  -1.123  0.00  0.00    +0.099 C 
ENDBRANCH  28  32
ENDBRANCH   1  18
ENDBRANCH   8   1
ENDBRANCH  12   8
TORSDOF 6
