REMARK  Name = 7686467
REMARK  5 active torsions:
REMARK  status: ('A' for Active; 'I' for Inactive)
REMARK    1  A    between atoms: N_3  and  C_13
REMARK    2  A    between atoms: C_13  and  C_17
REMARK    3  A    between atoms: C_14  and  C_19
REMARK    4  A    between atoms: C_22  and  C_26
REMARK    5  A    between atoms: C_23  and  C_29
REMARK                            x       y       z     vdW  Elec       q    Type
REMARK                         _______ _______ _______ _____ _____    ______ ____
ROOT
ATOM      2  O   UNL     1       4.628  -1.608   2.008  0.00  0.00    -0.268 OA
ATOM      3  N   UNL     1       2.224   1.122  -1.435  0.00  0.00    -0.297 NA
ATOM      4  N   UNL     1       3.078  -1.444   0.261  0.00  0.00    -0.311 N 
ATOM      6  C   UNL     1       3.787  -0.720  -2.097  0.00  0.00    +0.024 C 
ATOM      7  C   UNL     1       1.443  -1.242  -1.634  0.00  0.00    +0.051 C 
ATOM      8  C   UNL     1       2.621  -1.583  -2.544  0.00  0.00    +0.017 C 
ATOM      9  C   UNL     1       3.423   0.775  -2.207  0.00  0.00    +0.090 C 
ATOM     10  C   UNL     1       1.091   0.256  -1.790  0.00  0.00    +0.094 C 
ATOM     11  C   UNL     1       4.169  -1.132  -0.674  0.00  0.00    +0.130 C 
ATOM     12  C   UNL     1       1.741  -1.573  -0.168  0.00  0.00    +0.033 A 
ATOM     14  C   UNL     1       0.773  -1.958   0.708  0.00  0.00    -0.005 A 
ATOM     15  C   UNL     1       3.475  -1.692   1.585  0.00  0.00    +0.252 A 
ATOM     16  C   UNL     1       1.158  -2.224   2.085  0.00  0.00    +0.015 A 
ATOM     18  C   UNL     1       2.409  -2.099   2.525  0.00  0.00    +0.071 A 
ENDROOT
BRANCH  14  19
ATOM     19  C   UNL     1      -0.625  -2.084   0.333  0.00  0.00    +0.010 C 
ATOM     22  C   UNL     1      -1.483  -1.069   0.417  0.00  0.00    +0.008 C 
BRANCH  22  26
ATOM      1 CL   UNL     1      -7.259  -1.400  -1.034  0.00  0.00    -0.084 Cl
ATOM     26  C   UNL     1      -2.909  -1.151   0.058  0.00  0.00    -0.025 A 
ATOM     27  C   UNL     1      -3.526  -2.390   0.004  0.00  0.00    +0.009 A 
ATOM     28  C   UNL     1      -3.608   0.014  -0.218  0.00  0.00    +0.009 A 
ATOM     30  C   UNL     1      -4.876  -2.468  -0.336  0.00  0.00    +0.020 A 
ATOM     31  C   UNL     1      -4.958  -0.063  -0.557  0.00  0.00    +0.020 A 
ATOM     32  C   UNL     1      -5.593  -1.304  -0.616  0.00  0.00    +0.041 A 
ENDBRANCH  22  26
ENDBRANCH  14  19
BRANCH   3  13
ATOM     13  C   UNL     1       1.881   2.532  -1.607  0.00  0.00    +0.119 C 
BRANCH  13  17
ATOM     17  C   UNL     1       0.716   2.935  -0.743  0.00  0.00    -0.032 A 
ATOM     20  C   UNL     1       0.678   2.532   0.585  0.00  0.00    +0.023 A 
ATOM     21  C   UNL     1      -0.303   3.706  -1.285  0.00  0.00    +0.005 A 
ATOM     23  C   UNL     1      -0.401   2.906   1.385  0.00  0.00    +0.052 A 
ATOM     24  C   UNL     1      -1.381   4.080  -0.484  0.00  0.00    +0.002 A 
ATOM     25  C   UNL     1      -1.431   3.681   0.851  0.00  0.00    +0.019 A 
BRANCH  23  29
ATOM      5  N   UNL     1      -0.492   2.167   3.867  0.00  0.00    -0.191 NA
ATOM     29  C   UNL     1      -0.451   2.498   2.754  0.00  0.00    +0.099 C 
ENDBRANCH  23  29
ENDBRANCH  13  17
ENDBRANCH   3  13
TORSDOF 5
