REMARK  Name = 11882989
REMARK  15 active torsions:
REMARK  status: ('A' for Active; 'I' for Inactive)
REMARK    1  A    between atoms: O_2  and  C_14
REMARK    2  A    between atoms: O_3  and  C_19
REMARK    3  A    between atoms: N_7  and  C_25
REMARK    4  A    between atoms: N_7  and  C_26
REMARK    5  A    between atoms: C_9  and  C_17
REMARK    6  A    between atoms: C_11  and  C_19
REMARK    7  A    between atoms: C_11  and  C_20
REMARK    8  A    between atoms: C_12  and  C_22
REMARK    9  A    between atoms: C_22  and  C_23
REMARK   10  A    between atoms: C_25  and  C_28
REMARK   11  A    between atoms: C_27  and  C_29
REMARK   12  A    between atoms: C_33  and  C_36
REMARK   13  A    between atoms: C_36  and  C_37
REMARK   14  A    between atoms: C_36  and  C_38
REMARK   15  A    between atoms: C_36  and  C_39
REMARK                            x       y       z     vdW  Elec       q    Type
REMARK                         _______ _______ _______ _____ _____    ______ ____
ROOT
ATOM      1  S   UNL     1      -0.314   2.507   0.154  0.00  0.00    -0.057 S 
ATOM      5  O   UNL     1       2.539  -1.163  -0.092  0.00  0.00    -0.270 OA
ATOM      6  N   UNL     1      -0.209  -0.072  -0.029  0.00  0.00    -0.229 NA
ATOM      8  N   UNL     1       1.896   1.099   0.068  0.00  0.00    -0.261 N 
ATOM      9  C   UNL     1      -4.046  -0.125   0.348  0.00  0.00    -0.019 C 
ATOM     10  C   UNL     1      -4.214   1.290  -0.362  0.00  0.00    +0.011 C 
ATOM     11  C   UNL     1      -5.668   1.902  -0.404  0.00  0.00    +0.021 C 
ATOM     12  C   UNL     1      -2.641  -0.739  -0.102  0.00  0.00    +0.054 C 
ATOM     13  C   UNL     1      -5.171  -1.079  -0.131  0.00  0.00    +0.010 C 
ATOM     14  C   UNL     1      -6.672   0.805  -0.857  0.00  0.00    +0.123 C 
ATOM     15  C   UNL     1      -3.124   2.296   0.110  0.00  0.00    +0.049 C 
ATOM     16  C   UNL     1      -6.567  -0.480  -0.042  0.00  0.00    +0.032 C 
ATOM     17  C   UNL     1      -4.096  -0.033   1.893  0.00  0.00    +0.012 C 
ATOM     18  C   UNL     1      -1.543   0.289  -0.000  0.00  0.00    +0.058 A 
ATOM     20  C   UNL     1      -5.710   3.035  -1.467  0.00  0.00    +0.016 C 
ATOM     21  C   UNL     1      -1.782   1.647   0.075  0.00  0.00    +0.015 A 
ATOM     24  C   UNL     1       0.529   1.014   0.054  0.00  0.00    +0.165 A 
ATOM     27  C   UNL     1       2.805   0.030  -0.004  0.00  0.00    +0.250 C 
ATOM     42  H   UNL     1       2.243   2.052   0.095  0.00  0.00    +0.157 HD
ENDROOT
BRANCH  27  29
ATOM     29  C   UNL     1       4.241   0.415  -0.000  0.00  0.00    +0.037 A 
ATOM     31  C   UNL     1       5.186  -0.411  -0.608  0.00  0.00    +0.013 A 
ATOM     32  C   UNL     1       4.644   1.603   0.612  0.00  0.00    +0.013 A 
ATOM     33  C   UNL     1       6.936   1.137   0.008  0.00  0.00    -0.042 A 
ATOM     34  C   UNL     1       6.534  -0.050  -0.604  0.00  0.00    +0.005 A 
ATOM     35  C   UNL     1       5.991   1.963   0.616  0.00  0.00    +0.005 A 
BRANCH  33  36
ATOM     36  C   UNL     1       8.376   1.523   0.011  0.00  0.00    -0.013 C 
ATOM     37  C   UNL     1       8.923   1.679  -1.442  0.00  0.00    +0.015 C 
ATOM     38  C   UNL     1       9.249   0.447   0.729  0.00  0.00    +0.015 C 
ATOM     39  C   UNL     1       8.709   2.874   0.727  0.00  0.00    +0.015 C 
ENDBRANCH  33  36
ENDBRANCH  27  29
BRANCH  14   2
ATOM      2  O   UNL     1      -8.013   1.288  -0.781  0.00  0.00    -0.391 OA
ATOM     40  H   UNL     1      -8.598   0.588  -1.116  0.00  0.00    +0.210 HD
ENDBRANCH  14   2
BRANCH  11  19
ATOM     19  C   UNL     1      -6.126   2.556   0.919  0.00  0.00    +0.165 C 
BRANCH  19   3
ATOM      3  O   UNL     1      -7.427   3.061   0.722  0.00  0.00    -0.394 OA
ATOM     41  H   UNL     1      -7.705   3.480   1.554  0.00  0.00    +0.209 HD
ENDBRANCH  19   3
ENDBRANCH  11  19
BRANCH  12  22
ATOM     22  C   UNL     1      -2.256  -2.043   0.610  0.00  0.00    +0.106 C 
BRANCH  22  23
ATOM      4  O   UNL     1      -0.962  -2.532  -1.347  0.00  0.00    -0.276 OA
ATOM      7  N   UNL     1      -0.936  -4.112   0.350  0.00  0.00    -0.301 N 
ATOM     23  C   UNL     1      -1.330  -2.902  -0.229  0.00  0.00    +0.216 C 
ATOM     26  C   UNL     1      -1.384  -4.528   1.674  0.00  0.00    +0.132 C 
BRANCH   7  25
ATOM     25  C   UNL     1      -0.045  -5.052  -0.327  0.00  0.00    +0.134 C 
BRANCH  25  28
ATOM     28  C   UNL     1       1.368  -4.725   0.025  0.00  0.00    -0.016 C 
ATOM     30  C   UNL     1       2.308  -4.415  -0.874  0.00  0.00    +0.005 C 
ENDBRANCH  25  28
ENDBRANCH   7  25
ENDBRANCH  22  23
ENDBRANCH  12  22
TORSDOF 9
