REMARK  Name = 51136963
REMARK  4 active torsions:
REMARK  status: ('A' for Active; 'I' for Inactive)
REMARK    1  A    between atoms: N_3  and  C_8
REMARK    2  A    between atoms: C_9  and  C_17
REMARK    3  A    between atoms: C_18  and  C_19
REMARK    4  A    between atoms: C_23  and  C_24
REMARK                            x       y       z     vdW  Elec       q    Type
REMARK                         _______ _______ _______ _____ _____    ______ ____
ROOT
ATOM      2  O   UNL     1      -1.938  -2.022   1.662  0.00  0.00    -0.336 OA
ATOM      4  N   UNL     1      -1.240  -0.893  -0.142  0.00  0.00    -0.190 NA
ATOM      5  N   UNL     1      -0.555  -1.864   1.813  0.00  0.00    -0.056 NA
ATOM     17  C   UNL     1      -2.259  -1.423   0.486  0.00  0.00    +0.245 A 
ATOM     18  C   UNL     1      -0.216  -1.189   0.711  0.00  0.00    +0.204 A 
ENDROOT
BRANCH  18  19
ATOM      6  N   UNL     1       3.457  -0.763   1.101  0.00  0.00    -0.254 NA
ATOM     19  C   UNL     1       1.135  -0.796   0.430  0.00  0.00    +0.041 A 
ATOM     20  C   UNL     1       1.451  -0.096  -0.728  0.00  0.00    +0.015 A 
ATOM     21  C   UNL     1       2.165  -1.103   1.305  0.00  0.00    +0.123 A 
ATOM     22  C   UNL     1       2.770   0.271  -0.974  0.00  0.00    +0.029 A 
ATOM     23  C   UNL     1       3.727  -0.083  -0.036  0.00  0.00    +0.071 A 
BRANCH  23  24
ATOM      7  N   UNL     1       7.805   0.935  -0.590  0.00  0.00    -0.263 NA
ATOM     24  C   UNL     1       5.115   0.264  -0.225  0.00  0.00    +0.003 A 
ATOM     25  C   UNL     1       5.493   1.598  -0.338  0.00  0.00    +0.030 A 
ATOM     26  C   UNL     1       6.081  -0.734  -0.294  0.00  0.00    +0.030 A 
ATOM     27  C   UNL     1       6.838   1.878  -0.517  0.00  0.00    +0.111 A 
ATOM     28  C   UNL     1       7.399  -0.350  -0.476  0.00  0.00    +0.111 A 
ENDBRANCH  23  24
ENDBRANCH  18  19
BRANCH  17   9
ATOM      3  N   UNL     1      -4.100  -0.319  -0.773  0.00  0.00    -0.288 NA
ATOM      9  C   UNL     1      -3.720  -1.456   0.088  0.00  0.00    +0.146 C 
ATOM     10  C   UNL     1      -5.195  -0.790  -1.621  0.00  0.00    +0.085 C 
ATOM     11  C   UNL     1      -4.083  -2.707  -0.734  0.00  0.00    +0.030 C 
ATOM     12  C   UNL     1      -4.716  -2.173  -2.011  0.00  0.00    +0.017 C 
BRANCH   3   8
ATOM      1  O   UNL     1      -3.986   3.650   0.593  0.00  0.00    -0.380 OA
ATOM      8  C   UNL     1      -4.465   0.878  -0.018  0.00  0.00    +0.062 C 
ATOM     13  C   UNL     1      -4.895   2.011  -0.954  0.00  0.00    +0.047 C 
ATOM     14  C   UNL     1      -3.293   1.335   0.855  0.00  0.00    +0.047 C 
ATOM     15  C   UNL     1      -5.144   3.289  -0.161  0.00  0.00    +0.161 C 
ATOM     16  C   UNL     1      -3.630   2.651   1.548  0.00  0.00    +0.161 C 
ENDBRANCH   3   8
ENDBRANCH  17   9
TORSDOF 4
