REMARK  Name = 45783676
REMARK  7 active torsions:
REMARK  status: ('A' for Active; 'I' for Inactive)
REMARK    1  A    between atoms: N_3  and  C_14
REMARK    2  A    between atoms: N_6  and  C_22
REMARK    3  A    between atoms: N_8  and  C_27
REMARK    4  A    between atoms: C_10  and  C_15
REMARK    5  A    between atoms: C_14  and  C_16
REMARK    6  A    between atoms: C_19  and  C_23
REMARK    7  A    between atoms: C_28  and  C_29
REMARK                            x       y       z     vdW  Elec       q    Type
REMARK                         _______ _______ _______ _____ _____    ______ ____
ROOT
ATOM      3  N   UNL     1      -4.348  -0.433  -0.906  0.00  0.00    -0.287 NA
ATOM     10  C   UNL     1      -4.134  -1.384   0.203  0.00  0.00    +0.146 C 
ATOM     11  C   UNL     1      -4.692  -2.722  -0.316  0.00  0.00    +0.030 C 
ATOM     12  C   UNL     1      -5.252  -2.410  -1.697  0.00  0.00    +0.017 C 
ATOM     13  C   UNL     1      -5.511  -0.918  -1.649  0.00  0.00    +0.085 C 
ENDROOT
BRANCH  10  15
ATOM      1  O   UNL     1      -2.441  -1.828   1.908  0.00  0.00    -0.336 OA
ATOM      4  N   UNL     1      -1.600  -1.268  -0.091  0.00  0.00    -0.190 NA
ATOM      5  N   UNL     1      -1.048  -1.848   2.052  0.00  0.00    -0.056 NA
ATOM     15  C   UNL     1      -2.681  -1.478   0.617  0.00  0.00    +0.245 A 
ATOM     19  C   UNL     1      -0.624  -1.507   0.831  0.00  0.00    +0.204 A 
BRANCH  19  23
ATOM      7  N   UNL     1       3.076  -1.555   1.203  0.00  0.00    -0.237 NA
ATOM     23  C   UNL     1       0.768  -1.397   0.500  0.00  0.00    +0.041 A 
ATOM     24  C   UNL     1       1.175  -1.041  -0.781  0.00  0.00    +0.017 A 
ATOM     25  C   UNL     1       1.749  -1.642   1.448  0.00  0.00    +0.124 A 
ATOM     26  C   UNL     1       2.531  -0.942  -1.071  0.00  0.00    +0.047 A 
ATOM     27  C   UNL     1       3.433  -1.206  -0.053  0.00  0.00    +0.139 A 
BRANCH  27   8
ATOM      8  N   UNL     1       4.786  -1.109  -0.338  0.00  0.00    -0.290 N 
ATOM      9  N   UNL     1       6.986  -1.159  -0.033  0.00  0.00    -0.244 NA
ATOM     30  C   UNL     1       5.338  -0.772  -1.541  0.00  0.00    +0.114 A 
ATOM     31  C   UNL     1       5.814  -1.332   0.536  0.00  0.00    +0.205 A 
ATOM     32  C   UNL     1       6.696  -0.809  -1.329  0.00  0.00    +0.130 A 
ENDBRANCH  27   8
ENDBRANCH  19  23
ENDBRANCH  10  15
BRANCH   3  14
ATOM     14  C   UNL     1      -4.519   0.943  -0.458  0.00  0.00    +0.120 C 
BRANCH  14  16
ATOM     16  C   UNL     1      -3.201   1.597  -0.137  0.00  0.00    -0.033 A 
ATOM     17  C   UNL     1      -2.966   2.102   1.141  0.00  0.00    +0.007 A 
ATOM     18  C   UNL     1      -2.215   1.697  -1.119  0.00  0.00    +0.007 A 
ATOM     20  C   UNL     1      -1.746   2.708   1.439  0.00  0.00    +0.023 A 
ATOM     21  C   UNL     1      -0.994   2.303  -0.822  0.00  0.00    +0.023 A 
ATOM     22  C   UNL     1      -0.760   2.808   0.457  0.00  0.00    +0.033 A 
BRANCH  22   6
ATOM      2  O   UNL     1       1.661   3.276  -1.270  0.00  0.00    -0.276 OA
ATOM      6  N   UNL     1       0.462   3.414   0.754  0.00  0.00    -0.286 N 
ATOM     28  C   UNL     1       1.561   3.605  -0.093  0.00  0.00    +0.214 C 
ATOM     29  C   UNL     1       2.696   4.305   0.612  0.00  0.00    +0.109 C 
ATOM     33  H   UNL     1       0.556   3.757   1.708  0.00  0.00    +0.155 HD
ENDBRANCH  22   6
ENDBRANCH  14  16
ENDBRANCH   3  14
TORSDOF 6
