REMARK  Name = 25389794
REMARK  7 active torsions:
REMARK  status: ('A' for Active; 'I' for Inactive)
REMARK    1  A    between atoms: O_3  and  C_20
REMARK    2  A    between atoms: O_3  and  C_35
REMARK    3  A    between atoms: N_6  and  C_11
REMARK    4  A    between atoms: N_6  and  C_21
REMARK    5  A    between atoms: C_9  and  C_17
REMARK    6  A    between atoms: C_13  and  C_20
REMARK    7  A    between atoms: C_21  and  C_22
REMARK                            x       y       z     vdW  Elec       q    Type
REMARK                         _______ _______ _______ _____ _____    ______ ____
ROOT
ATOM      5  N   UNL     1      -0.505   0.612  -0.205  0.00  0.00    -0.274 NA
ATOM      7  N   UNL     1      -2.410  -2.584   0.309  0.00  0.00    -0.356 N 
ATOM      8  C   UNL     1      -0.673  -0.711   0.473  0.00  0.00    +0.106 C 
ATOM      9  C   UNL     1       0.790   1.252   0.139  0.00  0.00    +0.093 C 
ATOM     10  C   UNL     1       0.474  -1.662   0.099  0.00  0.00    +0.044 C 
ATOM     11  C   UNL     1       1.822  -1.053   0.485  0.00  0.00    +0.057 C 
ATOM     12  C   UNL     1       1.977   0.313  -0.183  0.00  0.00    +0.042 C 
ATOM     13  C   UNL     1      -1.696   1.494  -0.057  0.00  0.00    +0.172 C 
ATOM     14  C   UNL     1      -2.010  -1.291   0.121  0.00  0.00    +0.038 A 
ATOM     15  C   UNL     1      -2.974   0.875  -0.677  0.00  0.00    +0.068 C 
ATOM     16  C   UNL     1      -3.077  -0.582  -0.386  0.00  0.00    -0.016 A 
ATOM     18  C   UNL     1      -4.162  -1.486  -0.548  0.00  0.00    +0.003 A 
ATOM     19  C   UNL     1      -3.716  -2.735  -0.106  0.00  0.00    +0.047 A 
ATOM     25  C   UNL     1      -5.483  -1.367  -1.024  0.00  0.00    +0.010 A 
ATOM     27  C   UNL     1      -4.531  -3.873  -0.118  0.00  0.00    +0.026 A 
ATOM     30  C   UNL     1      -6.307  -2.498  -1.043  0.00  0.00    +0.001 A 
ATOM     33  C   UNL     1      -5.836  -3.731  -0.597  0.00  0.00    +0.002 A 
ATOM     37  H   UNL     1      -1.839  -3.326   0.691  0.00  0.00    +0.166 HD
ENDROOT
BRANCH   9  17
ATOM      1  F   UNL     1       1.212   3.713   1.500  0.00  0.00    -0.205 F 
ATOM     17  C   UNL     1       1.041   2.576  -0.577  0.00  0.00    +0.005 A 
ATOM     23  C   UNL     1       1.239   3.744   0.160  0.00  0.00    +0.128 A 
ATOM     24  C   UNL     1       1.071   2.619  -1.971  0.00  0.00    +0.008 A 
ATOM     31  C   UNL     1       1.468   4.953  -0.496  0.00  0.00    +0.038 A 
ATOM     32  C   UNL     1       1.300   3.828  -2.627  0.00  0.00    +0.000 A 
ATOM     34  C   UNL     1       1.498   4.995  -1.890  0.00  0.00    +0.003 A 
ENDBRANCH   9  17
BRANCH  13  20
ATOM      4  O   UNL     1      -1.210   1.444   2.304  0.00  0.00    -0.249 OA
ATOM     20  C   UNL     1      -1.916   1.843   1.388  0.00  0.00    +0.325 C 
BRANCH  20   3
ATOM      3  O   UNL     1      -3.003   2.658   1.499  0.00  0.00    -0.467 OA
ATOM     35  C   UNL     1      -3.328   3.071   2.830  0.00  0.00    +0.280 C 
ENDBRANCH  20   3
ENDBRANCH  13  20
BRANCH  11   6
ATOM      6  N   UNL     1       2.909  -1.950   0.096  0.00  0.00    -0.311 NA
ATOM     36  H   UNL     1       2.635  -2.917   0.267  0.00  0.00    +0.122 HD
BRANCH   6  21
ATOM     21  C   UNL     1       4.113  -1.662   0.859  0.00  0.00    +0.112 C 
BRANCH  21  22
ATOM      2  O   UNL     1       6.413  -2.295   1.253  0.00  0.00    -0.375 OA
ATOM     22  C   UNL     1       5.237  -2.609   0.488  0.00  0.00    +0.132 C 
ATOM     26  C   UNL     1       5.646  -2.521  -0.972  0.00  0.00    +0.035 C 
ATOM     28  C   UNL     1       7.076  -2.996  -0.913  0.00  0.00    +0.031 C 
ATOM     29  C   UNL     1       7.555  -2.385   0.388  0.00  0.00    +0.160 C 
ENDBRANCH  21  22
ENDBRANCH   6  21
ENDBRANCH  11   6
TORSDOF 6
