REMARK  Name = 51136660
REMARK  10 active torsions:
REMARK  status: ('A' for Active; 'I' for Inactive)
REMARK    1  A    between atoms: O_2  and  C_18
REMARK    2  A    between atoms: O_4  and  C_22
REMARK    3  A    between atoms: O_4  and  C_27
REMARK    4  A    between atoms: O_5  and  C_26
REMARK    5  A    between atoms: O_5  and  C_28
REMARK    6  A    between atoms: C_8  and  C_13
REMARK    7  A    between atoms: C_9  and  C_14
REMARK    8  A    between atoms: C_13  and  C_15
REMARK    9  A    between atoms: C_14  and  C_18
REMARK   10  A    between atoms: C_16  and  C_22
REMARK                            x       y       z     vdW  Elec       q    Type
REMARK                         _______ _______ _______ _____ _____    ______ ____
ROOT
ATOM      1  O   UNL     1      -0.826  -3.916   0.799  0.00  0.00    -0.273 OA
ATOM      6  N   UNL     1      -1.720  -2.110  -0.357  0.00  0.00    -0.299 N 
ATOM      8  C   UNL     1      -1.969   0.333  -0.737  0.00  0.00    +0.016 C 
ATOM      9  C   UNL     1      -3.361   0.258  -0.058  0.00  0.00    +0.006 C 
ATOM     10  C   UNL     1      -3.444  -0.913   0.935  0.00  0.00    +0.023 C 
ATOM     11  C   UNL     1      -1.613  -1.034  -1.350  0.00  0.00    +0.112 C 
ATOM     12  C   UNL     1      -3.032  -2.228   0.279  0.00  0.00    +0.108 C 
ATOM     16  C   UNL     1      -0.703  -3.003  -0.021  0.00  0.00    +0.241 C 
ENDROOT
BRANCH   8  13
ATOM     13  C   UNL     1      -0.847   0.807   0.195  0.00  0.00    +0.061 C 
BRANCH  13  15
ATOM      7  N   UNL     1       0.049   1.845  -1.778  0.00  0.00    -0.287 NA
ATOM     15  C   UNL     1       0.311   1.329  -0.622  0.00  0.00    +0.044 C 
ATOM     17  C   UNL     1       1.684   1.218  -0.068  0.00  0.00    -0.001 A 
ATOM     19  C   UNL     1       2.743   1.343  -0.977  0.00  0.00    -0.033 A 
ATOM     20  C   UNL     1       2.427   1.560  -2.427  0.00  0.00    +0.059 C 
ATOM     21  C   UNL     1       1.166   2.407  -2.545  0.00  0.00    +0.146 C 
ATOM     23  C   UNL     1       1.936   0.988   1.286  0.00  0.00    +0.013 A 
ATOM     24  C   UNL     1       4.059   1.208  -0.525  0.00  0.00    +0.050 A 
ATOM     25  C   UNL     1       3.254   0.871   1.729  0.00  0.00    +0.046 A 
ATOM     26  C   UNL     1       4.312   0.978   0.827  0.00  0.00    +0.120 A 
BRANCH  26   5
ATOM      5  O   UNL     1       5.595   0.854   1.266  0.00  0.00    -0.495 OA
ATOM     28  C   UNL     1       5.783   0.617   2.660  0.00  0.00    +0.277 C 
ENDBRANCH  26   5
ENDBRANCH  13  15
ENDBRANCH   8  13
BRANCH   9  14
ATOM     14  C   UNL     1      -3.772   1.567   0.616  0.00  0.00    +0.124 C 
BRANCH  14  18
ATOM      3  O   UNL     1      -6.088   0.831   0.433  0.00  0.00    -0.251 OA
ATOM     18  C   UNL     1      -5.263   1.665   0.776  0.00  0.00    +0.305 C 
BRANCH  18   2
ATOM      2  O   UNL     1      -5.584   2.842   1.373  0.00  0.00    -0.481 OA
ATOM     29  H   UNL     1      -6.552   2.939   1.493  0.00  0.00    +0.295 HD
ENDBRANCH  18   2
ENDBRANCH  14  18
ENDBRANCH   9  14
BRANCH  16  22
ATOM     22  C   UNL     1       0.621  -2.813  -0.718  0.00  0.00    +0.255 C 
BRANCH  22   4
ATOM      4  O   UNL     1       1.492  -3.790  -0.202  0.00  0.00    -0.374 OA
ATOM     27  C   UNL     1       2.790  -3.715  -0.788  0.00  0.00    +0.194 C 
ENDBRANCH  22   4
ENDBRANCH  16  22
TORSDOF 8
