REMARK  Name = 11885333
REMARK  7 active torsions:
REMARK  status: ('A' for Active; 'I' for Inactive)
REMARK    1  A    between atoms: S_1  and  C_29
REMARK    2  A    between atoms: S_1  and  C_30
REMARK    3  A    between atoms: O_4  and  C_26
REMARK    4  A    between atoms: N_5  and  C_14
REMARK    5  A    between atoms: C_14  and  C_19
REMARK    6  A    between atoms: C_17  and  C_20
REMARK    7  A    between atoms: C_22  and  C_26
REMARK                            x       y       z     vdW  Elec       q    Type
REMARK                         _______ _______ _______ _____ _____    ______ ____
ROOT
ATOM      2  O   UNL     1      -1.530   1.963  -1.391  0.00  0.00    -0.267 OA
ATOM      5  N   UNL     1       3.293   0.751  -0.752  0.00  0.00    -0.294 NA
ATOM      6  N   UNL     1       0.412   1.954  -0.101  0.00  0.00    -0.311 N 
ATOM      7  C   UNL     1       2.561   3.148  -0.827  0.00  0.00    +0.024 C 
ATOM      8  C   UNL     1       2.503   1.937   1.300  0.00  0.00    +0.050 C 
ATOM      9  C   UNL     1       2.811   3.292   0.668  0.00  0.00    +0.017 C 
ATOM     10  C   UNL     1       3.474   2.050  -1.413  0.00  0.00    +0.090 C 
ATOM     11  C   UNL     1       3.445   0.865   0.707  0.00  0.00    +0.094 C 
ATOM     12  C   UNL     1       1.071   2.859  -1.054  0.00  0.00    +0.130 C 
ATOM     13  C   UNL     1       1.053   1.554   1.074  0.00  0.00    +0.026 A 
ATOM     15  C   UNL     1       0.393   0.820   1.984  0.00  0.00    +0.022 A 
ATOM     16  C   UNL     1      -0.922   1.601  -0.383  0.00  0.00    +0.259 A 
ATOM     17  C   UNL     1      -1.625   0.749   0.640  0.00  0.00    +0.047 A 
ATOM     18  C   UNL     1      -0.964   0.408   1.757  0.00  0.00    +0.015 A 
ENDROOT
BRANCH  17  20
ATOM     20  C   UNL     1      -3.007   0.284   0.427  0.00  0.00    -0.013 A 
ATOM     24  C   UNL     1      -4.080   1.055   0.876  0.00  0.00    +0.010 A 
ATOM     25  C   UNL     1      -3.244  -0.928  -0.222  0.00  0.00    +0.010 A 
ATOM     27  C   UNL     1      -5.388   0.615   0.675  0.00  0.00    +0.015 A 
ATOM     28  C   UNL     1      -4.552  -1.368  -0.423  0.00  0.00    +0.015 A 
ATOM     29  C   UNL     1      -5.624  -0.597   0.026  0.00  0.00    +0.008 A 
BRANCH  29   1
ATOM      1  S   UNL     1      -7.295  -1.160  -0.230  0.00  0.00    -0.129 S 
ATOM     30  C   UNL     1      -7.375  -1.272  -2.039  0.00  0.00    +0.090 C 
ENDBRANCH  29   1
ENDBRANCH  17  20
BRANCH   5  14
ATOM     14  C   UNL     1       4.211  -0.246  -1.297  0.00  0.00    +0.158 C 
BRANCH  14  19
ATOM      3  O   UNL     1       2.677  -1.975  -0.640  0.00  0.00    -0.461 OA
ATOM     19  C   UNL     1       3.969  -1.612  -0.710  0.00  0.00    +0.119 A 
ATOM     21  C   UNL     1       4.810  -2.555  -0.234  0.00  0.00    +0.046 A 
ATOM     22  C   UNL     1       2.685  -3.218  -0.090  0.00  0.00    +0.131 A 
ATOM     23  C   UNL     1       3.973  -3.619   0.178  0.00  0.00    +0.047 A 
BRANCH  22  26
ATOM     26  C   UNL     1       1.374  -3.854   0.099  0.00  0.00    +0.230 C 
BRANCH  26   4
ATOM      4  O   UNL     1       0.891  -3.497   1.396  0.00  0.00    -0.387 OA
ATOM     31  H   UNL     1       0.022  -3.920   1.501  0.00  0.00    +0.210 HD
ENDBRANCH  26   4
ENDBRANCH  22  26
ENDBRANCH  14  19
ENDBRANCH   5  14
TORSDOF 6
