REMARK  Name = 7134479
REMARK  14 active torsions:
REMARK  status: ('A' for Active; 'I' for Inactive)
REMARK    1  A    between atoms: S_1  and  N_12
REMARK    2  A    between atoms: S_1  and  C_24
REMARK    3  A    between atoms: O_5  and  C_15
REMARK    4  A    between atoms: O_6  and  C_18
REMARK    5  A    between atoms: O_7  and  C_20
REMARK    6  A    between atoms: N_12  and  C_16
REMARK    7  A    between atoms: N_13  and  C_22
REMARK    8  A    between atoms: C_15  and  C_21
REMARK    9  A    between atoms: C_22  and  C_23
REMARK   10  A    between atoms: C_22  and  C_26
REMARK   11  A    between atoms: C_23  and  C_25
REMARK   12  A    between atoms: C_25  and  C_29
REMARK   13  A    between atoms: C_25  and  C_30
REMARK   14  A    between atoms: C_31  and  C_34
REMARK                            x       y       z     vdW  Elec       q    Type
REMARK                         _______ _______ _______ _____ _____    ______ ____
ROOT
ATOM     15  C   UNL     1      -0.898  -2.285   0.280  0.00  0.00    +0.145 C 
ATOM     16  C   UNL     1       1.595  -2.054  -0.127  0.00  0.00    +0.111 C 
ATOM     17  C   UNL     1       0.195  -1.571  -0.517  0.00  0.00    +0.067 C 
ATOM     18  C   UNL     1       1.732  -3.577  -0.224  0.00  0.00    +0.162 C 
ATOM     19  C   UNL     1      -0.769  -3.802   0.158  0.00  0.00    +0.078 C 
ATOM     20  C   UNL     1       0.624  -4.297   0.553  0.00  0.00    +0.148 C 
ENDROOT
BRANCH  15  21
ATOM      8  O   UNL     1      -3.071  -2.634  -0.648  0.00  0.00    -0.273 OA
ATOM     13  N   UNL     1      -2.450  -0.482  -0.012  0.00  0.00    -0.302 N 
ATOM     21  C   UNL     1      -2.259  -1.844  -0.174  0.00  0.00    +0.245 C 
ATOM     39  H   UNL     1      -1.745   0.072   0.463  0.00  0.00    +0.150 HD
BRANCH  13  22
ATOM     22  C   UNL     1      -3.668   0.196  -0.394  0.00  0.00    +0.159 C 
BRANCH  22  26
ATOM     11  O   UNL     1      -4.267   0.111   1.961  0.00  0.00    -0.274 OA
ATOM     14  N   UNL     1      -5.947   0.021   0.397  0.00  0.00    -0.328 N 
ATOM     26  C   UNL     1      -4.625   0.091   0.786  0.00  0.00    +0.231 C 
ATOM     40  H   UNL     1      -6.230   0.029  -0.578  0.00  0.00    +0.145 HD
ATOM     41  H   UNL     1      -6.689  -0.038   1.086  0.00  0.00    +0.145 HD
ENDBRANCH  22  26
BRANCH  22  23
ATOM     23  C   UNL     1      -3.426   1.667  -0.752  0.00  0.00    +0.034 C 
BRANCH  23  25
ATOM     25  C   UNL     1      -2.412   1.898  -1.892  0.00  0.00    -0.015 C 
ATOM     29  C   UNL     1      -2.217   3.400  -2.114  0.00  0.00    +0.007 C 
ATOM     30  C   UNL     1      -2.847   1.236  -3.201  0.00  0.00    +0.007 C 
ENDBRANCH  23  25
ENDBRANCH  22  23
ENDBRANCH  13  22
ENDBRANCH  15  21
BRANCH  15   5
ATOM      5  O   UNL     1      -0.832  -1.920   1.653  0.00  0.00    -0.379 OA
ATOM     36  H   UNL     1      -0.665  -0.966   1.721  0.00  0.00    +0.211 HD
ENDBRANCH  15   5
BRANCH  18   6
ATOM      6  O   UNL     1       2.995  -3.942   0.337  0.00  0.00    -0.388 OA
ATOM     37  H   UNL     1       3.007  -3.657   1.267  0.00  0.00    +0.210 HD
ENDBRANCH  18   6
BRANCH  20   7
ATOM      7  O   UNL     1       0.678  -5.697   0.279  0.00  0.00    -0.389 OA
ATOM     38  H   UNL     1      -0.015  -6.127   0.809  0.00  0.00    +0.210 HD
ENDBRANCH  20   7
BRANCH  16  12
ATOM     12  N   UNL     1       2.586  -1.417  -1.038  0.00  0.00    -0.184 NA
ATOM     35  H   UNL     1       2.665  -1.792  -1.990  0.00  0.00    +0.148 HD
BRANCH  12   1
ATOM      1  S   UNL     1       3.782  -0.404  -0.396  0.00  0.00    +0.059 S 
ATOM      9  O   UNL     1       4.920  -0.366  -1.295  0.00  0.00    -0.153 OA
ATOM     10  O   UNL     1       3.969  -0.737   1.003  0.00  0.00    -0.153 OA
BRANCH   1  24
ATOM     24  C   UNL     1       2.993   1.177  -0.449  0.00  0.00    +0.106 A 
ATOM     27  C   UNL     1       2.241   1.618   0.640  0.00  0.00    +0.041 A 
ATOM     28  C   UNL     1       3.121   1.983  -1.580  0.00  0.00    +0.028 A 
ATOM     31  C   UNL     1       1.618   2.865   0.599  0.00  0.00    +0.057 A 
ATOM     32  C   UNL     1       2.499   3.231  -1.622  0.00  0.00    +0.002 A 
ATOM     33  C   UNL     1       1.747   3.672  -0.532  0.00  0.00    +0.012 A 
BRANCH  31  34
ATOM      2  F   UNL     1       0.264   4.574   1.583  0.00  0.00    -0.166 F 
ATOM      3  F   UNL     1      -0.237   2.521   2.069  0.00  0.00    -0.166 F 
ATOM      4  F   UNL     1       1.552   3.429   2.908  0.00  0.00    -0.166 F 
ATOM     34  C   UNL     1       0.815   3.337   1.763  0.00  0.00    +0.417 C 
ENDBRANCH  31  34
ENDBRANCH   1  24
ENDBRANCH  12   1
ENDBRANCH  16  12
TORSDOF 12
