REMARK  Name = 45783635
REMARK  9 active torsions:
REMARK  status: ('A' for Active; 'I' for Inactive)
REMARK    1  A    between atoms: O_4  and  C_31
REMARK    2  A    between atoms: O_4  and  C_32
REMARK    3  A    between atoms: N_6  and  C_16
REMARK    4  A    between atoms: N_9  and  C_24
REMARK    5  A    between atoms: N_11  and  C_29
REMARK    6  A    between atoms: C_12  and  C_17
REMARK    7  A    between atoms: C_16  and  C_18
REMARK    8  A    between atoms: C_21  and  C_25
REMARK    9  A    between atoms: C_30  and  C_31
REMARK                            x       y       z     vdW  Elec       q    Type
REMARK                         _______ _______ _______ _____ _____    ______ ____
ROOT
ATOM      1  O   UNL     1      -2.810  -1.500   2.010  0.00  0.00    -0.336 OA
ATOM      7  N   UNL     1      -1.712  -1.237   0.076  0.00  0.00    -0.190 NA
ATOM      8  N   UNL     1      -1.451  -1.427   2.341  0.00  0.00    -0.056 NA
ATOM     17  C   UNL     1      -2.875  -1.381   0.658  0.00  0.00    +0.245 A 
ATOM     21  C   UNL     1      -0.869  -1.272   1.148  0.00  0.00    +0.204 A 
ENDROOT
BRANCH  21  25
ATOM     10  N   UNL     1       2.743  -1.076   2.014  0.00  0.00    -0.239 NA
ATOM     25  C   UNL     1       0.552  -1.150   0.993  0.00  0.00    +0.041 A 
ATOM     26  C   UNL     1       1.125  -0.991  -0.264  0.00  0.00    +0.016 A 
ATOM     27  C   UNL     1       1.397  -1.186   2.091  0.00  0.00    +0.124 A 
ATOM     28  C   UNL     1       2.506  -0.875  -0.383  0.00  0.00    +0.044 A 
ATOM     29  C   UNL     1       3.263  -0.923   0.776  0.00  0.00    +0.125 A 
BRANCH  29  11
ATOM      5  O   UNL     1       4.969  -0.569  -1.677  0.00  0.00    -0.273 OA
ATOM     11  N   UNL     1       4.652  -0.805   0.645  0.00  0.00    -0.268 N 
ATOM     30  C   UNL     1       5.395  -0.641  -0.528  0.00  0.00    +0.244 C 
ATOM     33  H   UNL     1       5.162  -0.847   1.524  0.00  0.00    +0.156 HD
BRANCH  30  31
ATOM     31  C   UNL     1       6.881  -0.561  -0.254  0.00  0.00    +0.255 C 
BRANCH  31   4
ATOM      4  O   UNL     1       7.563  -0.402  -1.480  0.00  0.00    -0.374 OA
ATOM     32  C   UNL     1       8.973  -0.319  -1.296  0.00  0.00    +0.194 C 
ENDBRANCH  31   4
ENDBRANCH  30  31
ENDBRANCH  29  11
ENDBRANCH  21  25
BRANCH  17  12
ATOM      6  N   UNL     1      -4.338  -0.687  -1.231  0.00  0.00    -0.287 NA
ATOM     12  C   UNL     1      -4.258  -1.429   0.043  0.00  0.00    +0.146 C 
ATOM     13  C   UNL     1      -4.702  -2.861  -0.310  0.00  0.00    +0.030 C 
ATOM     14  C   UNL     1      -5.069  -2.811  -1.786  0.00  0.00    +0.017 C 
ATOM     15  C   UNL     1      -5.372  -1.346  -2.029  0.00  0.00    +0.085 C 
BRANCH   6  16
ATOM     16  C   UNL     1      -4.607   0.734  -1.052  0.00  0.00    +0.120 C 
BRANCH  16  18
ATOM     18  C   UNL     1      -3.365   1.496  -0.674  0.00  0.00    -0.033 A 
ATOM     19  C   UNL     1      -3.325   2.218   0.519  0.00  0.00    +0.007 A 
ATOM     20  C   UNL     1      -2.254   1.481  -1.518  0.00  0.00    +0.007 A 
ATOM     22  C   UNL     1      -2.174   2.924   0.869  0.00  0.00    +0.033 A 
ATOM     23  C   UNL     1      -1.103   2.187  -1.168  0.00  0.00    +0.033 A 
ATOM     24  C   UNL     1      -1.063   2.909   0.025  0.00  0.00    +0.126 A 
BRANCH  24   9
ATOM      2  O   UNL     1       0.124   4.271   1.458  0.00  0.00    -0.126 OA
ATOM      3  O   UNL     1       1.097   3.601  -0.392  0.00  0.00    -0.126 OA
ATOM      9  N   UNL     1       0.109   3.628   0.381  0.00  0.00    +0.056 N 
ENDBRANCH  24   9
ENDBRANCH  16  18
ENDBRANCH   6  16
ENDBRANCH  17  12
TORSDOF 8
