REMARK  Name = 56775375
REMARK  3 active torsions:
REMARK  status: ('A' for Active; 'I' for Inactive)
REMARK    1  A    between atoms: N_5  and  C_12
REMARK    2  A    between atoms: N_6  and  C_19
REMARK    3  A    between atoms: C_19  and  C_20
REMARK                            x       y       z     vdW  Elec       q    Type
REMARK                         _______ _______ _______ _____ _____    ______ ____
ROOT
ATOM      1  O   UNL     1       0.784   2.413  -0.150  0.00  0.00    -0.364 OA
ATOM      3  O   UNL     1       3.748   1.116  -1.547  0.00  0.00    -0.273 OA
ATOM      5  N   UNL     1      -1.424   0.071   0.553  0.00  0.00    -0.295 NA
ATOM      6  N   UNL     1       2.127   0.012  -0.294  0.00  0.00    -0.284 N 
ATOM      8  C   UNL     1       0.885   0.084   0.472  0.00  0.00    +0.121 C 
ATOM      9  C   UNL     1       0.464   1.490   0.887  0.00  0.00    +0.154 C 
ATOM     10  C   UNL     1      -0.337  -0.400  -0.304  0.00  0.00    +0.110 C 
ATOM     11  C   UNL     1      -1.062   1.423   1.000  0.00  0.00    +0.118 C 
ATOM     15  C   UNL     1       2.753   1.138  -0.821  0.00  0.00    +0.242 C 
ATOM     16  C   UNL     1       2.174   2.462  -0.371  0.00  0.00    +0.256 C 
ENDROOT
BRANCH   5  12
ATOM      2  O   UNL     1      -5.425  -0.984  -0.162  0.00  0.00    -0.380 OA
ATOM     12  C   UNL     1      -2.727   0.020  -0.107  0.00  0.00    +0.061 C 
ATOM     13  C   UNL     1      -3.828   0.573   0.803  0.00  0.00    +0.047 C 
ATOM     14  C   UNL     1      -3.060  -1.417  -0.517  0.00  0.00    +0.047 C 
ATOM     17  C   UNL     1      -5.195   0.389   0.153  0.00  0.00    +0.161 C 
ATOM     18  C   UNL     1      -4.469  -1.491  -1.094  0.00  0.00    +0.161 C 
ENDBRANCH   5  12
BRANCH   6  19
ATOM     19  C   UNL     1       2.653  -1.316  -0.579  0.00  0.00    +0.203 C 
BRANCH  19  20
ATOM      4  O   UNL     1       4.048  -0.943   1.365  0.00  0.00    -0.274 OA
ATOM      7  N   UNL     1       4.207  -2.948   0.252  0.00  0.00    -0.328 N 
ATOM     20  C   UNL     1       3.683  -1.690   0.462  0.00  0.00    +0.228 C 
ATOM     21  H   UNL     1       4.921  -3.325   0.866  0.00  0.00    +0.145 HD
ATOM     22  H   UNL     1       3.901  -3.543  -0.511  0.00  0.00    +0.145 HD
ENDBRANCH  19  20
ENDBRANCH   6  19
TORSDOF 3
