REMARK  Name = 11879546
REMARK  9 active torsions:
REMARK  status: ('A' for Active; 'I' for Inactive)
REMARK    1  A    between atoms: O_3  and  C_15
REMARK    2  A    between atoms: O_3  and  C_19
REMARK    3  A    between atoms: N_5  and  C_14
REMARK    4  A    between atoms: N_9  and  C_26
REMARK    5  A    between atoms: N_10  and  C_25
REMARK    6  A    between atoms: N_10  and  C_29
REMARK    7  A    between atoms: N_10  and  C_30
REMARK    8  A    between atoms: C_18  and  C_20
REMARK    9  A    between atoms: C_31  and  C_34
REMARK                            x       y       z     vdW  Elec       q    Type
REMARK                         _______ _______ _______ _____ _____    ______ ____
ROOT
ATOM      1  O   UNL     1       0.672   0.293  -1.124  0.00  0.00    -0.368 OA
ATOM      2  O   UNL     1      -1.262  -1.841  -0.001  0.00  0.00    -0.368 OA
ATOM     12  C   UNL     1      -1.114  -0.429   0.267  0.00  0.00    +0.177 C 
ATOM     13  C   UNL     1       0.371  -0.127   0.216  0.00  0.00    +0.192 C 
ATOM     14  C   UNL     1      -1.704   0.369  -0.879  0.00  0.00    +0.168 C 
ATOM     15  C   UNL     1       0.994  -1.465   0.534  0.00  0.00    +0.235 C 
ATOM     16  C   UNL     1      -0.546   0.445  -1.868  0.00  0.00    +0.190 C 
ATOM     17  C   UNL     1       0.041  -2.427  -0.137  0.00  0.00    +0.207 C 
ENDROOT
BRANCH  14   5
ATOM      5  N   UNL     1      -2.243   1.660  -0.444  0.00  0.00    -0.217 N 
ATOM      6  N   UNL     1      -1.456   2.740  -0.389  0.00  0.00    -0.043 NA
ATOM      7  N   UNL     1      -3.530   3.254   0.249  0.00  0.00    -0.108 NA
ATOM      8  N   UNL     1      -2.251   3.715   0.037  0.00  0.00    -0.023 NA
ATOM     18  C   UNL     1      -3.501   1.977  -0.056  0.00  0.00    +0.182 A 
BRANCH  18  20
ATOM     20  C   UNL     1      -4.600   1.047   0.002  0.00  0.00    +0.021 A 
ATOM     21  C   UNL     1      -5.420   0.862  -1.113  0.00  0.00    +0.013 A 
ATOM     22  C   UNL     1      -4.846   0.328   1.173  0.00  0.00    +0.013 A 
ATOM     23  C   UNL     1      -6.482  -0.040  -1.056  0.00  0.00    +0.024 A 
ATOM     24  C   UNL     1      -5.909  -0.574   1.229  0.00  0.00    +0.024 A 
ATOM     25  C   UNL     1      -6.727  -0.758   0.114  0.00  0.00    +0.029 A 
BRANCH  25  10
ATOM     10  N   UNL     1      -7.802  -1.669   0.171  0.00  0.00    -0.336 N 
ATOM     29  C   UNL     1      -8.472  -1.936   1.429  0.00  0.00    +0.129 C 
ATOM     30  C   UNL     1      -8.243  -2.360  -1.024  0.00  0.00    +0.129 C 
ENDBRANCH  25  10
ENDBRANCH  18  20
ENDBRANCH  14   5
BRANCH  15   3
ATOM      3  O   UNL     1       2.312  -1.602   0.054  0.00  0.00    -0.442 OA
BRANCH   3  19
ATOM      4  O   UNL     1       2.988   0.110   1.411  0.00  0.00    -0.226 OA
ATOM      9  N   UNL     1       4.487  -1.007   0.002  0.00  0.00    -0.251 N 
ATOM     19  C   UNL     1       3.257  -0.741   0.573  0.00  0.00    +0.405 C 
ATOM     35  H   UNL     1       4.511  -1.760  -0.682  0.00  0.00    +0.158 HD
BRANCH   9  26
ATOM     26  C   UNL     1       5.719  -0.361   0.249  0.00  0.00    +0.038 A 
ATOM     27  C   UNL     1       6.853  -0.776  -0.430  0.00  0.00    +0.042 A 
ATOM     28  C   UNL     1       5.769   0.676   1.168  0.00  0.00    +0.023 A 
ATOM     31  C   UNL     1       8.069  -0.138  -0.185  0.00  0.00    +0.054 A 
ATOM     32  C   UNL     1       6.985   1.314   1.413  0.00  0.00    +0.003 A 
ATOM     33  C   UNL     1       8.135   0.907   0.736  0.00  0.00    +0.019 A 
BRANCH  31  34
ATOM     11  N   UNL     1      10.206  -0.893  -1.441  0.00  0.00    -0.191 NA
ATOM     34  C   UNL     1       9.248  -0.554  -0.878  0.00  0.00    +0.099 C 
ENDBRANCH  31  34
ENDBRANCH   9  26
ENDBRANCH   3  19
ENDBRANCH  15   3
TORSDOF 7
