REMARK  Name = 75536755
REMARK  7 active torsions:
REMARK  status: ('A' for Active; 'I' for Inactive)
REMARK    1  A    between atoms: O_2  and  C_10
REMARK    2  A    between atoms: O_5  and  C_21
REMARK    3  A    between atoms: N_6  and  C_9
REMARK    4  A    between atoms: N_6  and  C_14
REMARK    5  A    between atoms: N_7  and  C_13
REMARK    6  A    between atoms: C_11  and  C_13
REMARK    7  A    between atoms: C_14  and  C_16
REMARK                            x       y       z     vdW  Elec       q    Type
REMARK                         _______ _______ _______ _____ _____    ______ ____
ROOT
ATOM      1  O   UNL     1      -0.559   0.881  -0.255  0.00  0.00    -0.371 OA
ATOM      9  C   UNL     1       1.466  -0.358  -0.334  0.00  0.00    +0.111 C 
ATOM     10  C   UNL     1       0.518  -1.020   0.650  0.00  0.00    +0.164 C 
ATOM     11  C   UNL     1      -0.821  -0.461   0.189  0.00  0.00    +0.165 C 
ATOM     12  C   UNL     1       0.858   1.030  -0.448  0.00  0.00    +0.181 C 
ENDROOT
BRANCH  10   2
ATOM      2  O   UNL     1       0.553  -2.432   0.576  0.00  0.00    -0.388 OA
ATOM     28  H   UNL     1       0.356  -2.696  -0.339  0.00  0.00    +0.210 HD
ENDBRANCH  10   2
BRANCH   9   6
ATOM      6  N   UNL     1       2.849  -0.336   0.113  0.00  0.00    -0.305 NA
ATOM     26  H   UNL     1       3.095  -1.256   0.479  0.00  0.00    +0.123 HD
BRANCH   6  14
ATOM     14  C   UNL     1       3.750  -0.007  -0.985  0.00  0.00    +0.120 C 
BRANCH  14  16
ATOM     16  C   UNL     1       5.187   0.037  -0.536  0.00  0.00    +0.008 A 
ATOM     21  C   UNL     1       5.675   1.125   0.187  0.00  0.00    +0.121 A 
ATOM     22  C   UNL     1       6.032  -1.027  -0.852  0.00  0.00    +0.008 A 
ATOM     23  C   UNL     1       7.009   1.150   0.594  0.00  0.00    +0.046 A 
ATOM     24  C   UNL     1       7.366  -1.002  -0.444  0.00  0.00    +0.001 A 
ATOM     25  C   UNL     1       7.854   0.087   0.279  0.00  0.00    +0.004 A 
BRANCH  21   5
ATOM      5  O   UNL     1       4.863   2.173   0.503  0.00  0.00    -0.506 OA
ATOM     29  H   UNL     1       5.374   2.831   1.004  0.00  0.00    +0.292 HD
ENDBRANCH  21   5
ENDBRANCH  14  16
ENDBRANCH   6  14
ENDBRANCH   9   6
BRANCH  11  13
ATOM     13  C   UNL     1      -1.873  -0.443   1.283  0.00  0.00    +0.140 C 
BRANCH  13   7
ATOM      3  O   UNL     1      -7.854   1.075  -0.485  0.00  0.00    -0.377 OA
ATOM      4  O   UNL     1      -3.967  -1.926   0.127  0.00  0.00    -0.253 OA
ATOM      7  N   UNL     1      -3.126   0.098   0.805  0.00  0.00    -0.297 N 
ATOM      8  N   UNL     1      -5.271  -0.032  -0.180  0.00  0.00    -0.281 N 
ATOM     15  C   UNL     1      -4.112  -0.705   0.244  0.00  0.00    +0.302 C 
ATOM     17  C   UNL     1      -6.359  -0.800  -0.789  0.00  0.00    +0.137 C 
ATOM     18  C   UNL     1      -5.463   1.425  -0.217  0.00  0.00    +0.137 C 
ATOM     19  C   UNL     1      -7.711  -0.331  -0.274  0.00  0.00    +0.179 C 
ATOM     20  C   UNL     1      -6.865   1.799   0.249  0.00  0.00    +0.179 C 
ATOM     27  H   UNL     1      -3.235   1.099   0.885  0.00  0.00    +0.150 HD
ENDBRANCH  13   7
ENDBRANCH  11  13
TORSDOF 7
