REMARK  Name = 51136975
REMARK  9 active torsions:
REMARK  status: ('A' for Active; 'I' for Inactive)
REMARK    1  A    between atoms: O_2  and  C_12
REMARK    2  A    between atoms: O_3  and  C_19
REMARK    3  A    between atoms: N_5  and  C_10
REMARK    4  A    between atoms: N_6  and  C_20
REMARK    5  A    between atoms: N_7  and  C_16
REMARK    6  A    between atoms: N_8  and  C_30
REMARK    7  A    between atoms: C_11  and  C_16
REMARK    8  A    between atoms: C_13  and  C_19
REMARK    9  A    between atoms: C_21  and  C_24
REMARK                            x       y       z     vdW  Elec       q    Type
REMARK                         _______ _______ _______ _____ _____    ______ ____
ROOT
ATOM      1  O   UNL     1      -2.042  -2.304   0.561  0.00  0.00    -0.365 OA
ATOM     10  C   UNL     1       0.293  -1.856   0.688  0.00  0.00    +0.118 C 
ATOM     11  C   UNL     1      -1.093  -1.214   0.550  0.00  0.00    +0.155 C 
ATOM     12  C   UNL     1       0.083  -3.251   0.120  0.00  0.00    +0.165 C 
ATOM     13  C   UNL     1      -1.324  -3.551   0.625  0.00  0.00    +0.174 C 
ENDROOT
BRANCH  10   5
ATOM      5  N   UNL     1       1.404  -1.115   0.117  0.00  0.00    -0.292 NA
ATOM      6  N   UNL     1       3.908   0.259   0.139  0.00  0.00    -0.327 N 
ATOM     14  C   UNL     1       2.658  -1.859   0.282  0.00  0.00    +0.104 C 
ATOM     15  C   UNL     1       1.520   0.206   0.747  0.00  0.00    +0.104 C 
ATOM     17  C   UNL     1       3.829  -1.115  -0.366  0.00  0.00    +0.120 C 
ATOM     18  C   UNL     1       2.651   1.019   0.114  0.00  0.00    +0.120 C 
BRANCH   6  20
ATOM     20  C   UNL     1       5.108   0.970   0.032  0.00  0.00    +0.030 A 
ATOM     22  C   UNL     1       5.434   1.938   0.983  0.00  0.00    +0.023 A 
ATOM     23  C   UNL     1       5.979   0.712  -1.026  0.00  0.00    +0.023 A 
ATOM     25  C   UNL     1       6.630   2.646   0.876  0.00  0.00    +0.002 A 
ATOM     26  C   UNL     1       7.176   1.420  -1.133  0.00  0.00    +0.002 A 
ATOM     27  C   UNL     1       7.501   2.388  -0.182  0.00  0.00    +0.000 A 
ENDBRANCH   6  20
ENDBRANCH  10   5
BRANCH  12   2
ATOM      2  O   UNL     1       0.107  -3.243  -1.302  0.00  0.00    -0.388 OA
ATOM     31  H   UNL     1       0.076  -4.167  -1.602  0.00  0.00    +0.210 HD
ENDBRANCH  12   2
BRANCH  11  16
ATOM     16  C   UNL     1      -1.349  -0.405  -0.718  0.00  0.00    +0.137 C 
BRANCH  16   7
ATOM      4  O   UNL     1      -2.170   2.139   0.328  0.00  0.00    -0.270 OA
ATOM      7  N   UNL     1      -2.675   0.135  -0.726  0.00  0.00    -0.309 N 
ATOM     21  C   UNL     1      -2.986   1.384  -0.194  0.00  0.00    +0.247 C 
ATOM     32  H   UNL     1      -3.416  -0.438  -1.118  0.00  0.00    +0.149 HD
BRANCH  21  24
ATOM      8  N   UNL     1      -6.337   2.733   0.171  0.00  0.00    -0.274 N 
ATOM      9  N   UNL     1      -6.594   1.978  -0.911  0.00  0.00    -0.179 NA
ATOM     24  C   UNL     1      -4.413   1.790  -0.256  0.00  0.00    +0.074 A 
ATOM     28  C   UNL     1      -5.045   2.655   0.603  0.00  0.00    +0.121 A 
ATOM     29  C   UNL     1      -5.415   1.405  -1.167  0.00  0.00    +0.147 A 
ATOM     30  C   UNL     1      -7.390   3.525   0.760  0.00  0.00    +0.172 C 
ENDBRANCH  21  24
ENDBRANCH  16   7
ENDBRANCH  11  16
BRANCH  13  19
ATOM     19  C   UNL     1      -2.086  -4.608  -0.154  0.00  0.00    +0.190 C 
BRANCH  19   3
ATOM      3  O   UNL     1      -3.362  -4.783   0.439  0.00  0.00    -0.392 OA
ATOM     33  H   UNL     1      -3.826  -5.466  -0.076  0.00  0.00    +0.210 HD
ENDBRANCH  19   3
ENDBRANCH  13  19
TORSDOF 8
