REMARK  Name = 38027656
REMARK  13 active torsions:
REMARK  status: ('A' for Active; 'I' for Inactive)
REMARK    1  A    between atoms: O_3  and  C_23
REMARK    2  A    between atoms: O_3  and  C_28
REMARK    3  A    between atoms: N_4  and  C_14
REMARK    4  A    between atoms: N_5  and  C_21
REMARK    5  A    between atoms: C_7  and  C_11
REMARK    6  A    between atoms: C_8  and  C_14
REMARK    7  A    between atoms: C_10  and  C_15
REMARK    8  A    between atoms: C_11  and  C_16
REMARK    9  A    between atoms: C_11  and  C_17
REMARK   10  A    between atoms: C_12  and  C_18
REMARK   11  A    between atoms: C_15  and  C_19
REMARK   12  A    between atoms: C_20  and  C_22
REMARK   13  A    between atoms: C_21  and  C_23
REMARK                            x       y       z     vdW  Elec       q    Type
REMARK                         _______ _______ _______ _____ _____    ______ ____
ROOT
ATOM      7  C   UNL     1      -0.495  -1.843   0.606  0.00  0.00    +0.000 C 
ATOM      8  C   UNL     1       0.422  -2.851  -0.130  0.00  0.00    +0.032 C 
ATOM      9  C   UNL     1      -1.812  -1.656  -0.163  0.00  0.00    +0.012 C 
ATOM     10  C   UNL     1      -1.582  -1.149  -1.599  0.00  0.00    +0.023 C 
ATOM     12  C   UNL     1      -0.492  -1.930  -2.304  0.00  0.00    -0.073 C 
ATOM     13  C   UNL     1       0.386  -2.696  -1.633  0.00  0.00    -0.022 C 
ATOM     18  C   UNL     1      -0.462  -1.847  -3.805  0.00  0.00    +0.039 C 
ENDROOT
BRANCH   7  11
ATOM     11  C   UNL     1      -0.790  -2.285   2.042  0.00  0.00    -0.013 C 
ATOM     16  C   UNL     1      -1.149  -1.081   2.907  0.00  0.00    +0.007 C 
ATOM     17  C   UNL     1      -1.913  -3.318   2.060  0.00  0.00    +0.007 C 
ENDBRANCH   7  11
BRANCH   8  14
ATOM     14  C   UNL     1       1.871  -2.741   0.360  0.00  0.00    +0.112 C 
BRANCH  14   4
ATOM      2  O   UNL     1       2.892  -0.760   2.170  0.00  0.00    -0.270 OA
ATOM      4  N   UNL     1       2.430  -1.473   0.010  0.00  0.00    -0.311 N 
ATOM     20  C   UNL     1       2.905  -0.566   0.958  0.00  0.00    +0.244 C 
ATOM     29  H   UNL     1       2.557  -1.279  -0.977  0.00  0.00    +0.149 HD
BRANCH  20  22
ATOM      6  N   UNL     1       4.420   3.143  -0.549  0.00  0.00    -0.263 NA
ATOM     22  C   UNL     1       3.432   0.720   0.434  0.00  0.00    +0.040 A 
ATOM     24  C   UNL     1       4.394   1.423   1.150  0.00  0.00    +0.033 A 
ATOM     25  C   UNL     1       2.962   1.227  -0.773  0.00  0.00    +0.033 A 
ATOM     26  C   UNL     1       4.851   2.619   0.620  0.00  0.00    +0.111 A 
ATOM     27  C   UNL     1       3.484   2.432  -1.216  0.00  0.00    +0.111 A 
ENDBRANCH  20  22
ENDBRANCH  14   4
ENDBRANCH   8  14
BRANCH  10  15
ATOM     15  C   UNL     1      -1.277   0.353  -1.612  0.00  0.00    +0.103 C 
BRANCH  15  19
ATOM      1  O   UNL     1      -3.645   0.845  -1.677  0.00  0.00    -0.276 OA
ATOM      5  N   UNL     1      -2.185   2.370  -0.705  0.00  0.00    -0.313 N 
ATOM     19  C   UNL     1      -2.511   1.186  -1.351  0.00  0.00    +0.214 C 
ATOM     30  H   UNL     1      -1.215   2.566  -0.477  0.00  0.00    +0.149 HD
BRANCH   5  21
ATOM     21  C   UNL     1      -3.167   3.362  -0.332  0.00  0.00    +0.132 C 
BRANCH  21  23
ATOM     23  C   UNL     1      -3.714   3.109   1.061  0.00  0.00    +0.178 C 
BRANCH  23   3
ATOM      3  O   UNL     1      -4.360   1.843   1.093  0.00  0.00    -0.381 OA
ATOM     28  C   UNL     1      -4.894   1.563   2.379  0.00  0.00    +0.194 C 
ENDBRANCH  23   3
ENDBRANCH  21  23
ENDBRANCH   5  21
ENDBRANCH  15  19
ENDBRANCH  10  15
TORSDOF 9
