REMARK  Name = 25390225
REMARK  7 active torsions:
REMARK  status: ('A' for Active; 'I' for Inactive)
REMARK    1  A    between atoms: O_2  and  C_11
REMARK    2  A    between atoms: O_3  and  C_13
REMARK    3  A    between atoms: N_7  and  C_15
REMARK    4  A    between atoms: N_8  and  C_16
REMARK    5  A    between atoms: C_10  and  C_14
REMARK    6  A    between atoms: C_12  and  C_15
REMARK    7  A    between atoms: C_14  and  C_22
REMARK                            x       y       z     vdW  Elec       q    Type
REMARK                         _______ _______ _______ _____ _____    ______ ____
ROOT
ATOM      1  O   UNL     1      -2.790   0.159  -0.941  0.00  0.00    -0.366 OA
ATOM     10  C   UNL     1      -2.956  -0.467   0.352  0.00  0.00    +0.159 C 
ATOM     11  C   UNL     1      -3.299   0.652   1.330  0.00  0.00    +0.175 C 
ATOM     12  C   UNL     1      -2.850   1.587  -0.780  0.00  0.00    +0.167 C 
ATOM     13  C   UNL     1      -2.610   1.844   0.698  0.00  0.00    +0.176 C 
ENDROOT
BRANCH  11   2
ATOM      2  O   UNL     1      -4.714   0.834   1.316  0.00  0.00    -0.387 OA
ATOM     30  H   UNL     1      -5.113   0.038   1.706  0.00  0.00    +0.210 HD
ENDBRANCH  11   2
BRANCH  13   3
ATOM      3  O   UNL     1      -3.143   3.083   1.114  0.00  0.00    -0.387 OA
ATOM     31  H   UNL     1      -3.067   3.123   2.083  0.00  0.00    +0.210 HD
ENDBRANCH  13   3
BRANCH  10  14
ATOM     14  C   UNL     1      -1.656  -1.181   0.695  0.00  0.00    +0.130 C 
BRANCH  14  22
ATOM      4  O   UNL     1       2.163  -4.385  -0.104  0.00  0.00    -0.377 OA
ATOM      5  O   UNL     1      -2.473  -2.816  -0.815  0.00  0.00    -0.276 OA
ATOM      9  N   UNL     1      -0.394  -3.226   0.134  0.00  0.00    -0.297 N 
ATOM     22  C   UNL     1      -1.553  -2.479  -0.065  0.00  0.00    +0.218 C 
ATOM     24  C   UNL     1      -0.211  -4.496  -0.568  0.00  0.00    +0.136 C 
ATOM     25  C   UNL     1       0.658  -2.920   1.110  0.00  0.00    +0.136 C 
ATOM     26  C   UNL     1       1.197  -4.588  -1.139  0.00  0.00    +0.179 C 
ATOM     27  C   UNL     1       2.032  -3.083   0.472  0.00  0.00    +0.179 C 
ENDBRANCH  14  22
ENDBRANCH  10  14
BRANCH  12  15
ATOM     15  C   UNL     1      -1.821   2.247  -1.681  0.00  0.00    +0.140 C 
BRANCH  15   7
ATOM      6  O   UNL     1       0.421   3.828  -0.821  0.00  0.00    -0.253 OA
ATOM      7  N   UNL     1      -0.500   1.774  -1.391  0.00  0.00    -0.297 N 
ATOM      8  N   UNL     1       1.718   1.903  -0.762  0.00  0.00    -0.297 N 
ATOM     23  C   UNL     1       0.540   2.613  -0.976  0.00  0.00    +0.300 C 
ATOM     28  H   UNL     1      -0.295   0.791  -1.541  0.00  0.00    +0.150 HD
ATOM     29  H   UNL     1       1.684   0.892  -0.844  0.00  0.00    +0.151 HD
BRANCH   8  16
ATOM     16  C   UNL     1       2.949   2.525  -0.327  0.00  0.00    +0.074 C 
ATOM     17  C   UNL     1       3.018   2.600   1.202  0.00  0.00    +0.022 C 
ATOM     18  C   UNL     1       4.168   1.796  -0.904  0.00  0.00    +0.022 C 
ATOM     19  C   UNL     1       3.244   1.232   1.845  0.00  0.00    +0.002 C 
ATOM     20  C   UNL     1       4.391   0.429  -0.257  0.00  0.00    +0.002 C 
ATOM     21  C   UNL     1       4.468   0.531   1.263  0.00  0.00    +0.000 C 
ENDBRANCH   8  16
ENDBRANCH  15   7
ENDBRANCH  12  15
TORSDOF 7
