REMARK  Name = 40777837
REMARK  11 active torsions:
REMARK  status: ('A' for Active; 'I' for Inactive)
REMARK    1  A    between atoms: O_3  and  C_8
REMARK    2  A    between atoms: O_4  and  C_9
REMARK    3  A    between atoms: N_6  and  C_12
REMARK    4  A    between atoms: N_6  and  C_15
REMARK    5  A    between atoms: N_7  and  C_16
REMARK    6  A    between atoms: C_10  and  C_12
REMARK    7  A    between atoms: C_11  and  C_13
REMARK    8  A    between atoms: C_13  and  C_14
REMARK    9  A    between atoms: C_15  and  C_17
REMARK   10  A    between atoms: C_16  and  C_18
REMARK   11  A    between atoms: C_16  and  C_19
REMARK                            x       y       z     vdW  Elec       q    Type
REMARK                         _______ _______ _______ _____ _____    ______ ____
ROOT
ATOM      2  O   UNL     1      -1.650   0.193  -1.038  0.00  0.00    -0.366 OA
ATOM      8  C   UNL     1      -0.127   1.866  -0.305  0.00  0.00    +0.175 C 
ATOM      9  C   UNL     1      -1.243   1.723   0.709  0.00  0.00    +0.175 C 
ATOM     10  C   UNL     1      -0.257   0.575  -1.105  0.00  0.00    +0.163 C 
ATOM     11  C   UNL     1      -2.333   1.073  -0.128  0.00  0.00    +0.158 C 
ENDROOT
BRANCH   8   3
ATOM      3  O   UNL     1      -0.392   2.960  -1.183  0.00  0.00    -0.387 OA
ATOM     25  H   UNL     1       0.330   2.992  -1.833  0.00  0.00    +0.210 HD
ENDBRANCH   8   3
BRANCH   9   4
ATOM      4  O   UNL     1      -1.661   2.954   1.258  0.00  0.00    -0.387 OA
ATOM     26  H   UNL     1      -0.885   3.364   1.678  0.00  0.00    +0.210 HD
ENDBRANCH   9   4
BRANCH  10  12
ATOM     12  C   UNL     1       0.567  -0.569  -0.530  0.00  0.00    +0.115 C 
BRANCH  12   6
ATOM      6  N   UNL     1       1.981  -0.223  -0.482  0.00  0.00    -0.309 NA
ATOM     27  H   UNL     1       2.308  -0.011  -1.424  0.00  0.00    +0.122 HD
BRANCH   6  15
ATOM     15  C   UNL     1       2.766  -1.314   0.079  0.00  0.00    +0.116 C 
BRANCH  15  17
ATOM      1  F   UNL     1       8.248  -0.038   0.338  0.00  0.00    -0.205 F 
ATOM     17  C   UNL     1       4.231  -0.973   0.148  0.00  0.00    -0.033 A 
ATOM     20  C   UNL     1       5.067  -1.270  -0.928  0.00  0.00    +0.008 A 
ATOM     21  C   UNL     1       4.751  -0.360   1.288  0.00  0.00    +0.008 A 
ATOM     22  C   UNL     1       6.425  -0.954  -0.864  0.00  0.00    +0.038 A 
ATOM     23  C   UNL     1       6.108  -0.045   1.352  0.00  0.00    +0.038 A 
ATOM     24  C   UNL     1       6.945  -0.342   0.277  0.00  0.00    +0.123 A 
ENDBRANCH  15  17
ENDBRANCH   6  15
ENDBRANCH  12   6
ENDBRANCH  10  12
BRANCH  11  13
ATOM     13  C   UNL     1      -3.333   0.282   0.696  0.00  0.00    +0.130 C 
BRANCH  13  14
ATOM      5  O   UNL     1      -4.800   0.344  -1.226  0.00  0.00    -0.276 OA
ATOM      7  N   UNL     1      -5.487  -0.782   0.688  0.00  0.00    -0.313 N 
ATOM     14  C   UNL     1      -4.603  -0.032  -0.074  0.00  0.00    +0.216 C 
ATOM     28  H   UNL     1      -5.199  -1.090   1.612  0.00  0.00    +0.149 HD
BRANCH   7  16
ATOM     16  C   UNL     1      -6.775  -1.218   0.200  0.00  0.00    +0.067 C 
ATOM     18  C   UNL     1      -7.778  -1.291   1.344  0.00  0.00    +0.027 C 
ATOM     19  C   UNL     1      -6.651  -2.559  -0.512  0.00  0.00    +0.027 C 
ENDBRANCH   7  16
ENDBRANCH  13  14
ENDBRANCH  11  13
TORSDOF 9
