REMARK  Name = 45783965
REMARK  11 active torsions:
REMARK  status: ('A' for Active; 'I' for Inactive)
REMARK    1  A    between atoms: O_2  and  C_36
REMARK    2  A    between atoms: O_2  and  C_37
REMARK    3  A    between atoms: N_3  and  C_14
REMARK    4  A    between atoms: C_9  and  C_13
REMARK    5  A    between atoms: C_10  and  C_14
REMARK    6  A    between atoms: C_12  and  C_17
REMARK    7  A    between atoms: C_13  and  C_18
REMARK    8  A    between atoms: C_13  and  C_19
REMARK    9  A    between atoms: C_16  and  C_22
REMARK   10  A    between atoms: C_17  and  C_25
REMARK   11  A    between atoms: C_27  and  C_29
REMARK                            x       y       z     vdW  Elec       q    Type
REMARK                         _______ _______ _______ _____ _____    ______ ____
ROOT
ATOM      9  C   UNL     1      -0.702  -1.032  -0.870  0.00  0.00    +0.000 C 
ATOM     10  C   UNL     1      -1.560  -2.304  -0.683  0.00  0.00    +0.029 C 
ATOM     11  C   UNL     1       0.411  -0.974   0.185  0.00  0.00    +0.012 C 
ATOM     12  C   UNL     1       1.327  -2.217   0.175  0.00  0.00    +0.024 C 
ATOM     15  C   UNL     1      -0.726  -3.533  -0.425  0.00  0.00    -0.023 C 
ATOM     16  C   UNL     1       0.567  -3.515  -0.052  0.00  0.00    -0.073 C 
ATOM     22  C   UNL     1       1.331  -4.802   0.095  0.00  0.00    +0.039 C 
ENDROOT
BRANCH   9  13
ATOM     13  C   UNL     1      -0.126  -0.948  -2.290  0.00  0.00    -0.013 C 
ATOM     18  C   UNL     1       1.037   0.037  -2.335  0.00  0.00    +0.007 C 
ATOM     19  C   UNL     1      -1.213  -0.548  -3.283  0.00  0.00    +0.007 C 
ENDBRANCH   9  13
BRANCH  10  14
ATOM     14  C   UNL     1      -2.579  -2.139   0.449  0.00  0.00    +0.092 C 
BRANCH  14   3
ATOM      3  N   UNL     1      -3.424  -0.968   0.218  0.00  0.00    -0.299 NA
ATOM      4  N   UNL     1      -5.864   0.516   0.159  0.00  0.00    -0.312 N 
ATOM      7  N   UNL     1      -7.187   2.088  -1.034  0.00  0.00    -0.237 NA
ATOM      8  N   UNL     1      -8.999   2.097   1.107  0.00  0.00    -0.258 NA
ATOM     20  C   UNL     1      -4.063  -0.539   1.468  0.00  0.00    +0.103 C 
ATOM     21  C   UNL     1      -4.448  -1.264  -0.792  0.00  0.00    +0.103 C 
ATOM     23  C   UNL     1      -4.907   0.720   1.251  0.00  0.00    +0.122 C 
ATOM     24  C   UNL     1      -5.303  -0.028  -1.084  0.00  0.00    +0.122 C 
ATOM     26  C   UNL     1      -6.995   1.334   0.067  0.00  0.00    +0.140 A 
ATOM     28  C   UNL     1      -7.886   1.338   1.118  0.00  0.00    +0.154 A 
ATOM     30  C   UNL     1      -8.300   2.848  -1.045  0.00  0.00    +0.132 A 
ATOM     31  C   UNL     1      -9.191   2.852   0.006  0.00  0.00    +0.130 A 
ENDBRANCH  14   3
ENDBRANCH  10  14
BRANCH  12  17
ATOM     17  C   UNL     1       2.151  -2.228   1.469  0.00  0.00    +0.105 C 
BRANCH  17  25
ATOM      1  O   UNL     1       4.005  -0.745   0.902  0.00  0.00    -0.420 OA
ATOM      5  N   UNL     1       2.625   0.069   2.463  0.00  0.00    -0.112 NA
ATOM      6  N   UNL     1       3.619   1.004   2.242  0.00  0.00    -0.107 NA
ATOM     25  C   UNL     1       2.890  -0.934   1.660  0.00  0.00    +0.218 A 
ATOM     27  C   UNL     1       4.401   0.487   1.324  0.00  0.00    +0.248 A 
BRANCH  27  29
ATOM     29  C   UNL     1       5.586   1.010   0.708  0.00  0.00    +0.039 A 
ATOM     32  C   UNL     1       6.068   2.266   1.077  0.00  0.00    +0.017 A 
ATOM     33  C   UNL     1       6.258   0.262  -0.259  0.00  0.00    +0.017 A 
ATOM     34  C   UNL     1       7.221   2.774   0.478  0.00  0.00    +0.046 A 
ATOM     35  C   UNL     1       7.411   0.770  -0.858  0.00  0.00    +0.046 A 
ATOM     36  C   UNL     1       7.892   2.026  -0.489  0.00  0.00    +0.120 A 
BRANCH  36   2
ATOM      2  O   UNL     1       9.019   2.520  -1.071  0.00  0.00    -0.495 OA
ATOM     37  C   UNL     1       9.655   1.702  -2.052  0.00  0.00    +0.277 C 
ENDBRANCH  36   2
ENDBRANCH  27  29
ENDBRANCH  17  25
ENDBRANCH  12  17
TORSDOF 7
