REMARK  Name = 45360397
REMARK  11 active torsions:
REMARK  status: ('A' for Active; 'I' for Inactive)
REMARK    1  A    between atoms: O_4  and  C_15
REMARK    2  A    between atoms: O_7  and  C_30
REMARK    3  A    between atoms: O_7  and  C_34
REMARK    4  A    between atoms: O_8  and  C_33
REMARK    5  A    between atoms: O_8  and  C_40
REMARK    6  A    between atoms: N_11  and  C_14
REMARK    7  A    between atoms: N_12  and  C_23
REMARK    8  A    between atoms: C_21  and  C_22
REMARK    9  A    between atoms: C_34  and  C_35
REMARK   10  A    between atoms: C_36  and  C_38
REMARK   11  A    between atoms: C_37  and  C_39
REMARK                            x       y       z     vdW  Elec       q    Type
REMARK                         _______ _______ _______ _____ _____    ______ ____
ROOT
ATOM      5  O   UNL     1      -4.544  -2.814   0.248  0.00  0.00    -0.252 OA
ATOM     10  N   UNL     1      -5.295  -0.661   0.624  0.00  0.00    -0.284 N 
ATOM     12  N   UNL     1      -3.130  -1.310   1.314  0.00  0.00    -0.269 N 
ATOM     14  C   UNL     1      -4.484   1.635  -0.021  0.00  0.00    +0.119 C 
ATOM     15  C   UNL     1      -4.912   1.376  -1.477  0.00  0.00    +0.136 C 
ATOM     16  C   UNL     1      -6.379   0.984  -1.680  0.00  0.00    +0.035 C 
ATOM     17  C   UNL     1      -5.116   0.734   1.048  0.00  0.00    +0.134 C 
ATOM     18  C   UNL     1      -6.642  -0.508  -1.462  0.00  0.00    +0.022 C 
ATOM     19  C   UNL     1      -6.584  -0.953  -0.006  0.00  0.00    +0.109 C 
ATOM     20  C   UNL     1      -4.324  -1.688   0.700  0.00  0.00    +0.307 C 
ATOM     43  H   UNL     1      -3.160  -0.549   1.983  0.00  0.00    +0.156 HD
ENDROOT
BRANCH  12  23
ATOM     23  C   UNL     1      -1.826  -1.809   1.064  0.00  0.00    +0.035 A 
ATOM     26  C   UNL     1      -0.739  -1.308   1.781  0.00  0.00    +0.027 A 
ATOM     27  C   UNL     1      -1.631  -2.800   0.102  0.00  0.00    +0.027 A 
ATOM     31  C   UNL     1       0.543  -1.799   1.535  0.00  0.00    +0.048 A 
ATOM     32  C   UNL     1      -0.348  -3.290  -0.144  0.00  0.00    +0.048 A 
ATOM     33  C   UNL     1       0.739  -2.789   0.573  0.00  0.00    +0.130 A 
BRANCH  33   8
ATOM      8  O   UNL     1       1.991  -3.268   0.334  0.00  0.00    -0.406 OA
BRANCH   8  40
ATOM      1  F   UNL     1       2.170  -4.205  -1.712  0.00  0.00    -0.133 F 
ATOM      2  F   UNL     1       2.036  -2.027  -1.588  0.00  0.00    -0.133 F 
ATOM      3  F   UNL     1       3.875  -3.072  -0.948  0.00  0.00    -0.133 F 
ATOM     40  C   UNL     1       2.527  -3.127  -0.977  0.00  0.00    +0.575 C 
ENDBRANCH   8  40
ENDBRANCH  33   8
ENDBRANCH  12  23
BRANCH  14  11
ATOM      6  O   UNL     1      -2.734   3.802   0.670  0.00  0.00    -0.270 OA
ATOM     11  N   UNL     1      -3.037   1.587   0.061  0.00  0.00    -0.305 N 
ATOM     21  C   UNL     1      -2.281   2.692   0.404  0.00  0.00    +0.244 C 
ATOM     41  H   UNL     1      -2.600   0.687  -0.104  0.00  0.00    +0.149 HD
BRANCH  21  22
ATOM     22  C   UNL     1      -0.810   2.485   0.417  0.00  0.00    +0.037 A 
ATOM     24  C   UNL     1      -0.003   3.269   1.242  0.00  0.00    +0.016 A 
ATOM     25  C   UNL     1      -0.236   1.509  -0.397  0.00  0.00    +0.016 A 
ATOM     28  C   UNL     1       1.378   3.077   1.252  0.00  0.00    +0.046 A 
ATOM     29  C   UNL     1       1.145   1.316  -0.386  0.00  0.00    +0.046 A 
ATOM     30  C   UNL     1       1.952   2.100   0.438  0.00  0.00    +0.121 A 
BRANCH  30   7
ATOM      7  O   UNL     1       3.301   1.912   0.449  0.00  0.00    -0.487 OA
BRANCH   7  34
ATOM     34  C   UNL     1       3.821   0.896  -0.408  0.00  0.00    +0.269 C 
BRANCH  34  35
ATOM      9  O   UNL     1       7.353   0.162   0.366  0.00  0.00    -0.359 OA
ATOM     13  N   UNL     1       7.524   1.330  -0.366  0.00  0.00    -0.083 NA
ATOM     35  C   UNL     1       5.309   0.821  -0.232  0.00  0.00    +0.054 A 
ATOM     36  C   UNL     1       6.029  -0.132   0.439  0.00  0.00    +0.141 A 
ATOM     37  C   UNL     1       6.290   1.705  -0.713  0.00  0.00    +0.087 A 
ATOM     38  C   UNL     1       5.670  -1.345   1.185  0.00  0.00    +0.089 C 
ATOM     39  C   UNL     1       6.097   2.928  -1.511  0.00  0.00    +0.069 C 
ENDBRANCH  34  35
ENDBRANCH   7  34
ENDBRANCH  30   7
ENDBRANCH  21  22
ENDBRANCH  14  11
BRANCH  15   4
ATOM      4  O   UNL     1      -4.695   2.585  -2.217  0.00  0.00    -0.390 OA
ATOM     42  H   UNL     1      -4.839   2.385  -3.158  0.00  0.00    +0.210 HD
ENDBRANCH  15   4
TORSDOF 9
