REMARK  Name = 45783977
REMARK  14 active torsions:
REMARK  status: ('A' for Active; 'I' for Inactive)
REMARK    1  A    between atoms: N_2  and  C_14
REMARK    2  A    between atoms: N_2  and  C_20
REMARK    3  A    between atoms: N_6  and  C_32
REMARK    4  A    between atoms: N_6  and  C_33
REMARK    5  A    between atoms: N_6  and  C_34
REMARK    6  A    between atoms: C_7  and  C_11
REMARK    7  A    between atoms: C_8  and  C_14
REMARK    8  A    between atoms: C_10  and  C_15
REMARK    9  A    between atoms: C_11  and  C_16
REMARK   10  A    between atoms: C_11  and  C_17
REMARK   11  A    between atoms: C_12  and  C_18
REMARK   12  A    between atoms: C_15  and  C_19
REMARK   13  A    between atoms: C_20  and  C_21
REMARK   14  A    between atoms: C_22  and  C_24
REMARK                            x       y       z     vdW  Elec       q    Type
REMARK                         _______ _______ _______ _____ _____    ______ ____
ROOT
ATOM      7  C   UNL     1       3.781  -0.500  -0.843  0.00  0.00    +0.000 C 
ATOM      8  C   UNL     1       3.917  -0.628   0.692  0.00  0.00    +0.029 C 
ATOM      9  C   UNL     1       2.766   0.594  -1.204  0.00  0.00    +0.012 C 
ATOM     10  C   UNL     1       3.113   1.972  -0.602  0.00  0.00    +0.024 C 
ATOM     12  C   UNL     1       3.657   1.884   0.816  0.00  0.00    -0.073 C 
ATOM     13  C   UNL     1       4.000   0.711   1.380  0.00  0.00    -0.023 C 
ATOM     18  C   UNL     1       3.862   3.173   1.563  0.00  0.00    +0.039 C 
ENDROOT
BRANCH   7  11
ATOM     11  C   UNL     1       5.140  -0.236  -1.505  0.00  0.00    -0.013 C 
ATOM     16  C   UNL     1       5.976  -1.511  -1.531  0.00  0.00    +0.007 C 
ATOM     17  C   UNL     1       4.947   0.313  -2.915  0.00  0.00    +0.007 C 
ENDBRANCH   7  11
BRANCH   8  14
ATOM     14  C   UNL     1       2.764  -1.435   1.297  0.00  0.00    +0.089 C 
BRANCH  14   2
ATOM      2  N   UNL     1       2.670  -2.743   0.673  0.00  0.00    -0.310 NA
ATOM     35  H   UNL     1       3.543  -3.246   0.830  0.00  0.00    +0.122 HD
BRANCH   2  20
ATOM     20  C   UNL     1       1.568  -3.515   1.236  0.00  0.00    +0.136 C 
BRANCH  20  21
ATOM      5  N   UNL     1      -0.690  -2.660   1.534  0.00  0.00    -0.259 NA
ATOM     21  C   UNL     1       0.241  -3.101   0.658  0.00  0.00    +0.055 A 
ATOM     23  C   UNL     1       0.040  -3.186  -0.710  0.00  0.00    +0.024 A 
ATOM     25  C   UNL     1      -1.196  -2.795  -1.211  0.00  0.00    +0.003 A 
ATOM     28  C   UNL     1      -1.879  -2.289   1.010  0.00  0.00    +0.111 A 
ATOM     29  C   UNL     1      -2.180  -2.336  -0.342  0.00  0.00    +0.020 A 
ENDBRANCH  20  21
ENDBRANCH   2  20
ENDBRANCH  14   2
ENDBRANCH   8  14
BRANCH  10  15
ATOM     15  C   UNL     1       1.880   2.878  -0.712  0.00  0.00    +0.105 C 
BRANCH  15  19
ATOM      1  O   UNL     1      -0.417   2.087  -0.480  0.00  0.00    -0.420 OA
ATOM      3  N   UNL     1       0.720   2.177   1.445  0.00  0.00    -0.112 NA
ATOM      4  N   UNL     1      -0.554   1.716   1.722  0.00  0.00    -0.107 NA
ATOM     19  C   UNL     1       0.754   2.380   0.149  0.00  0.00    +0.218 A 
ATOM     22  C   UNL     1      -1.182   1.680   0.570  0.00  0.00    +0.248 A 
BRANCH  22  24
ATOM     24  C   UNL     1      -2.523   1.284   0.253  0.00  0.00    +0.039 A 
ATOM     26  C   UNL     1      -3.381   0.851   1.264  0.00  0.00    +0.015 A 
ATOM     27  C   UNL     1      -2.971   1.332  -1.068  0.00  0.00    +0.015 A 
ATOM     30  C   UNL     1      -4.685   0.467   0.956  0.00  0.00    +0.024 A 
ATOM     31  C   UNL     1      -4.275   0.948  -1.376  0.00  0.00    +0.024 A 
ATOM     32  C   UNL     1      -5.133   0.515  -0.365  0.00  0.00    +0.029 A 
BRANCH  32   6
ATOM      6  N   UNL     1      -6.452   0.125  -0.677  0.00  0.00    -0.336 N 
ATOM     33  C   UNL     1      -6.929   0.178  -2.044  0.00  0.00    +0.129 C 
ATOM     34  C   UNL     1      -7.350  -0.328   0.367  0.00  0.00    +0.129 C 
ENDBRANCH  32   6
ENDBRANCH  22  24
ENDBRANCH  15  19
ENDBRANCH  10  15
TORSDOF 9
