REMARK  Name = 45783415
REMARK  11 active torsions:
REMARK  status: ('A' for Active; 'I' for Inactive)
REMARK    1  A    between atoms: O_3  and  C_23
REMARK    2  A    between atoms: O_3  and  C_27
REMARK    3  A    between atoms: O_4  and  C_22
REMARK    4  A    between atoms: O_5  and  C_28
REMARK    5  A    between atoms: O_5  and  C_29
REMARK    6  A    between atoms: N_6  and  C_14
REMARK    7  A    between atoms: C_10  and  C_15
REMARK    8  A    between atoms: C_14  and  C_16
REMARK    9  A    between atoms: C_18  and  C_21
REMARK   10  A    between atoms: C_19  and  C_22
REMARK   11  A    between atoms: C_27  and  C_28
REMARK                            x       y       z     vdW  Elec       q    Type
REMARK                         _______ _______ _______ _____ _____    ______ ____
ROOT
ATOM      1  O   UNL     1      -0.723  -0.174   2.740  0.00  0.00    -0.336 OA
ATOM      7  N   UNL     1      -0.005  -1.018   0.793  0.00  0.00    -0.190 NA
ATOM      8  N   UNL     1       0.664   0.020   2.719  0.00  0.00    -0.056 NA
ATOM     15  C   UNL     1      -1.034  -0.791   1.570  0.00  0.00    +0.245 A 
ATOM     18  C   UNL     1       1.014  -0.503   1.540  0.00  0.00    +0.207 A 
ENDROOT
BRANCH  18  21
ATOM      9  N   UNL     1       3.958  -0.501  -0.746  0.00  0.00    -0.221 NA
ATOM     21  C   UNL     1       2.372  -0.528   1.079  0.00  0.00    +0.084 A 
ATOM     23  C   UNL     1       2.693  -0.480  -0.268  0.00  0.00    +0.226 A 
ATOM     24  C   UNL     1       3.416  -0.603   1.995  0.00  0.00    +0.018 A 
ATOM     25  C   UNL     1       4.731  -0.626   1.542  0.00  0.00    +0.021 A 
ATOM     26  C   UNL     1       4.946  -0.574   0.174  0.00  0.00    +0.114 A 
BRANCH  23   3
ATOM      3  O   UNL     1       1.698  -0.406  -1.209  0.00  0.00    -0.474 OA
BRANCH   3  27
ATOM     27  C   UNL     1       1.971  -0.996  -2.474  0.00  0.00    +0.258 C 
BRANCH  27  28
ATOM     28  C   UNL     1       0.755  -0.837  -3.366  0.00  0.00    +0.200 C 
BRANCH  28   5
ATOM      5  O   UNL     1      -0.350  -1.504  -2.769  0.00  0.00    -0.380 OA
ATOM     29  C   UNL     1      -1.526  -1.368  -3.554  0.00  0.00    +0.194 C 
ENDBRANCH  28   5
ENDBRANCH  27  28
ENDBRANCH   3  27
ENDBRANCH  23   3
ENDBRANCH  18  21
BRANCH  15  10
ATOM      6  N   UNL     1      -3.030  -0.509   0.111  0.00  0.00    -0.284 NA
ATOM     10  C   UNL     1      -2.496  -1.116   1.347  0.00  0.00    +0.146 C 
ATOM     11  C   UNL     1      -2.752  -2.625   1.184  0.00  0.00    +0.030 C 
ATOM     12  C   UNL     1      -3.486  -2.763  -0.142  0.00  0.00    +0.017 C 
ATOM     13  C   UNL     1      -4.098  -1.393  -0.356  0.00  0.00    +0.085 C 
BRANCH   6  14
ATOM     14  C   UNL     1      -3.494   0.860   0.296  0.00  0.00    +0.159 C 
BRANCH  14  16
ATOM      2  O   UNL     1      -1.578   1.868  -0.818  0.00  0.00    -0.461 OA
ATOM     16  C   UNL     1      -2.353   1.843   0.299  0.00  0.00    +0.119 A 
ATOM     17  C   UNL     1      -1.902   2.759   1.221  0.00  0.00    +0.046 A 
ATOM     19  C   UNL     1      -0.623   2.811  -0.606  0.00  0.00    +0.131 A 
ATOM     20  C   UNL     1      -0.779   3.388   0.633  0.00  0.00    +0.047 A 
BRANCH  19  22
ATOM     22  C   UNL     1       0.341   3.015  -1.697  0.00  0.00    +0.230 C 
BRANCH  22   4
ATOM      4  O   UNL     1       1.669   2.752  -1.238  0.00  0.00    -0.387 OA
ATOM     30  H   UNL     1       2.264   2.894  -1.994  0.00  0.00    +0.210 HD
ENDBRANCH  22   4
ENDBRANCH  19  22
ENDBRANCH  14  16
ENDBRANCH   6  14
ENDBRANCH  15  10
TORSDOF 10
