REMARK  Name = 45784039
REMARK  11 active torsions:
REMARK  status: ('A' for Active; 'I' for Inactive)
REMARK    1  A    between atoms: O_3  and  C_29
REMARK    2  A    between atoms: O_3  and  C_33
REMARK    3  A    between atoms: N_4  and  C_15
REMARK    4  A    between atoms: C_10  and  C_14
REMARK    5  A    between atoms: C_11  and  C_15
REMARK    6  A    between atoms: C_13  and  C_18
REMARK    7  A    between atoms: C_14  and  C_19
REMARK    8  A    between atoms: C_14  and  C_20
REMARK    9  A    between atoms: C_17  and  C_23
REMARK   10  A    between atoms: C_18  and  C_26
REMARK   11  A    between atoms: C_28  and  C_29
REMARK                            x       y       z     vdW  Elec       q    Type
REMARK                         _______ _______ _______ _____ _____    ______ ____
ROOT
ATOM     10  C   UNL     1      -0.102  -3.197   0.517  0.00  0.00    +0.000 C 
ATOM     11  C   UNL     1       0.251  -1.934   1.337  0.00  0.00    +0.029 C 
ATOM     12  C   UNL     1       0.968  -3.460  -0.552  0.00  0.00    +0.012 C 
ATOM     13  C   UNL     1       2.391  -3.605   0.029  0.00  0.00    +0.024 C 
ATOM     16  C   UNL     1       1.707  -1.881   1.722  0.00  0.00    -0.023 C 
ATOM     17  C   UNL     1       2.675  -2.627   1.159  0.00  0.00    -0.073 C 
ATOM     23  C   UNL     1       4.085  -2.558   1.680  0.00  0.00    +0.039 C 
ENDROOT
BRANCH  10  14
ATOM     14  C   UNL     1      -0.290  -4.419   1.425  0.00  0.00    -0.013 C 
ATOM     19  C   UNL     1      -1.331  -4.127   2.502  0.00  0.00    +0.007 C 
ATOM     20  C   UNL     1      -0.692  -5.638   0.601  0.00  0.00    +0.007 C 
ENDBRANCH  10  14
BRANCH  11  15
ATOM     15  C   UNL     1      -0.119  -0.651   0.586  0.00  0.00    +0.092 C 
BRANCH  15   4
ATOM      4  N   UNL     1      -1.534  -0.657   0.217  0.00  0.00    -0.299 NA
ATOM      5  N   UNL     1      -4.130   0.467  -0.180  0.00  0.00    -0.297 N 
ATOM      8  N   UNL     1      -6.355   0.524   0.527  0.00  0.00    -0.223 NA
ATOM      9  N   UNL     1      -5.663   1.644  -1.491  0.00  0.00    -0.223 NA
ATOM     21  C   UNL     1      -2.368  -0.290   1.368  0.00  0.00    +0.103 C 
ATOM     22  C   UNL     1      -1.781   0.270  -0.894  0.00  0.00    +0.103 C 
ATOM     24  C   UNL     1      -3.854  -0.348   1.010  0.00  0.00    +0.123 C 
ATOM     25  C   UNL     1      -3.248   0.232  -1.327  0.00  0.00    +0.123 C 
ATOM     27  C   UNL     1      -5.444   0.898  -0.391  0.00  0.00    +0.218 A 
ATOM     30  C   UNL     1      -7.611   0.957   0.293  0.00  0.00    +0.116 A 
ATOM     31  C   UNL     1      -6.940   2.042  -1.664  0.00  0.00    +0.116 A 
ATOM     32  C   UNL     1      -7.966   1.727  -0.797  0.00  0.00    +0.039 A 
ENDBRANCH  15   4
ENDBRANCH  11  15
BRANCH  13  18
ATOM     18  C   UNL     1       3.402  -3.500  -1.119  0.00  0.00    +0.105 C 
BRANCH  18  26
ATOM      2  O   UNL     1       3.680  -1.085  -0.901  0.00  0.00    -0.421 OA
ATOM      6  N   UNL     1       3.160  -1.764  -2.968  0.00  0.00    -0.112 NA
ATOM      7  N   UNL     1       3.287  -0.387  -2.989  0.00  0.00    -0.109 NA
ATOM     26  C   UNL     1       3.398  -2.128  -1.730  0.00  0.00    +0.218 A 
ATOM     28  C   UNL     1       3.591  -0.035  -1.762  0.00  0.00    +0.254 A 
BRANCH  28  29
ATOM     29  C   UNL     1       3.844   1.300  -1.208  0.00  0.00    +0.326 C 
BRANCH  29   3
ATOM      3  O   UNL     1       2.723   1.736  -0.433  0.00  0.00    -0.483 OA
BRANCH   3  33
ATOM      1  F   UNL     1       3.023   6.803   1.675  0.00  0.00    -0.205 F 
ATOM     33  C   UNL     1       2.798   2.996   0.091  0.00  0.00    +0.121 A 
ATOM     34  C   UNL     1       3.926   3.783  -0.142  0.00  0.00    +0.048 A 
ATOM     35  C   UNL     1       1.746   3.495   0.859  0.00  0.00    +0.048 A 
ATOM     36  C   UNL     1       4.002   5.069   0.393  0.00  0.00    +0.042 A 
ATOM     37  C   UNL     1       1.821   4.781   1.393  0.00  0.00    +0.042 A 
ATOM     38  C   UNL     1       2.950   5.568   1.161  0.00  0.00    +0.124 A 
ENDBRANCH   3  33
ENDBRANCH  29   3
ENDBRANCH  28  29
ENDBRANCH  18  26
ENDBRANCH  13  18
TORSDOF 8
