REMARK  Name = 11884596
REMARK  9 active torsions:
REMARK  status: ('A' for Active; 'I' for Inactive)
REMARK    1  A    between atoms: O_3  and  C_10
REMARK    2  A    between atoms: O_3  and  C_16
REMARK    3  A    between atoms: N_5  and  C_9
REMARK    4  A    between atoms: N_5  and  C_13
REMARK    5  A    between atoms: N_6  and  C_19
REMARK    6  A    between atoms: C_13  and  C_14
REMARK    7  A    between atoms: C_14  and  C_15
REMARK    8  A    between atoms: C_15  and  C_17
REMARK    9  A    between atoms: C_15  and  C_18
REMARK                            x       y       z     vdW  Elec       q    Type
REMARK                         _______ _______ _______ _____ _____    ______ ____
ROOT
ATOM      3  O   UNL     1      -0.477   1.508   0.826  0.00  0.00    -0.442 OA
ENDROOT
BRANCH   3  10
ATOM      1  O   UNL     1       1.400   1.056  -1.172  0.00  0.00    -0.369 OA
ATOM      2  O   UNL     1       2.891   2.724   0.908  0.00  0.00    -0.369 OA
ATOM      7  C   UNL     1       3.123   1.385   0.419  0.00  0.00    +0.170 C 
ATOM      8  C   UNL     1       1.760   0.763   0.189  0.00  0.00    +0.191 C 
ATOM      9  C   UNL     1       3.743   1.439  -0.960  0.00  0.00    +0.111 C 
ATOM     10  C   UNL     1       0.890   1.512   1.170  0.00  0.00    +0.235 C 
ATOM     11  C   UNL     1       2.521   1.656  -1.841  0.00  0.00    +0.181 C 
ATOM     12  C   UNL     1       1.484   2.902   1.127  0.00  0.00    +0.207 C 
BRANCH   9   5
ATOM      5  N   UNL     1       4.388   0.174  -1.308  0.00  0.00    -0.309 NA
ATOM     29  H   UNL     1       4.669   0.192  -2.288  0.00  0.00    +0.122 HD
BRANCH   5  13
ATOM     13  C   UNL     1       5.554  -0.059  -0.470  0.00  0.00    +0.081 C 
BRANCH  13  14
ATOM     14  C   UNL     1       6.231  -1.373  -0.862  0.00  0.00    +0.018 C 
BRANCH  14  15
ATOM     15  C   UNL     1       7.483  -1.689  -0.021  0.00  0.00    -0.016 C 
ATOM     17  C   UNL     1       7.115  -1.725   1.464  0.00  0.00    +0.007 C 
ATOM     18  C   UNL     1       8.138  -3.012  -0.422  0.00  0.00    +0.007 C 
ENDBRANCH  14  15
ENDBRANCH  13  14
ENDBRANCH   5  13
ENDBRANCH   9   5
ENDBRANCH   3  10
BRANCH   3  16
ATOM      4  O   UNL     1      -0.531  -0.767   1.049  0.00  0.00    -0.226 OA
ATOM      6  N   UNL     1      -2.434   0.454   0.443  0.00  0.00    -0.251 N 
ATOM     16  C   UNL     1      -1.109   0.282   0.794  0.00  0.00    +0.405 C 
ATOM     30  H   UNL     1      -2.698   1.417   0.277  0.00  0.00    +0.158 HD
BRANCH   6  19
ATOM     19  C   UNL     1      -3.430  -0.537   0.295  0.00  0.00    +0.044 A 
ATOM     20  C   UNL     1      -4.738  -0.204  -0.067  0.00  0.00    +0.003 A 
ATOM     21  C   UNL     1      -3.051  -1.853   0.527  0.00  0.00    +0.024 A 
ATOM     22  C   UNL     1      -5.694  -1.240  -0.200  0.00  0.00    -0.016 A 
ATOM     23  C   UNL     1      -5.128   1.125  -0.303  0.00  0.00    +0.010 A 
ATOM     24  C   UNL     1      -3.991  -2.872   0.396  0.00  0.00    +0.002 A 
ATOM     25  C   UNL     1      -5.304  -2.568   0.036  0.00  0.00    +0.008 A 
ATOM     26  C   UNL     1      -7.011  -0.916  -0.563  0.00  0.00    +0.008 A 
ATOM     27  C   UNL     1      -6.441   1.428  -0.663  0.00  0.00    +0.001 A 
ATOM     28  C   UNL     1      -7.381   0.410  -0.793  0.00  0.00    +0.001 A 
ENDBRANCH   6  19
ENDBRANCH   3  16
TORSDOF 7
