REMARK  Name = 26743534
REMARK  7 active torsions:
REMARK  status: ('A' for Active; 'I' for Inactive)
REMARK    1  A    between atoms: S_1  and  C_23
REMARK    2  A    between atoms: S_1  and  C_25
REMARK    3  A    between atoms: O_2  and  C_13
REMARK    4  A    between atoms: N_6  and  C_15
REMARK    5  A    between atoms: C_11  and  C_16
REMARK    6  A    between atoms: C_15  and  C_17
REMARK    7  A    between atoms: C_20  and  C_24
REMARK                            x       y       z     vdW  Elec       q    Type
REMARK                         _______ _______ _______ _____ _____    ______ ____
ROOT
ATOM      6  N   UNL     1       3.243  -0.691   0.085  0.00  0.00    -0.285 NA
ATOM     11  C   UNL     1       2.890   0.656   0.579  0.00  0.00    +0.149 C 
ATOM     12  C   UNL     1       4.055   1.558   0.129  0.00  0.00    +0.061 C 
ATOM     13  C   UNL     1       5.033   0.620  -0.568  0.00  0.00    +0.130 C 
ATOM     14  C   UNL     1       4.702  -0.738   0.020  0.00  0.00    +0.116 C 
ENDROOT
BRANCH  11  16
ATOM      3  O   UNL     1       1.400   1.180  -1.287  0.00  0.00    -0.336 OA
ATOM      7  N   UNL     1       0.489   1.513   0.732  0.00  0.00    -0.189 NA
ATOM      8  N   UNL     1       0.099   1.644  -1.518  0.00  0.00    -0.054 NA
ATOM     16  C   UNL     1       1.548   1.132   0.063  0.00  0.00    +0.245 A 
ATOM     20  C   UNL     1      -0.373   1.817  -0.280  0.00  0.00    +0.222 A 
BRANCH  20  24
ATOM      9  N   UNL     1      -2.469   2.562  -1.096  0.00  0.00    -0.249 NA
ATOM     10  N   UNL     1      -3.410   2.905   1.524  0.00  0.00    -0.260 NA
ATOM     24  C   UNL     1      -1.702   2.291  -0.021  0.00  0.00    +0.129 A 
ATOM     26  C   UNL     1      -2.164   2.460   1.266  0.00  0.00    +0.142 A 
ATOM     27  C   UNL     1      -3.715   3.007  -0.838  0.00  0.00    +0.131 A 
ATOM     28  C   UNL     1      -4.177   3.176   0.449  0.00  0.00    +0.130 A 
ENDBRANCH  20  24
ENDBRANCH  11  16
BRANCH  13   2
ATOM      2  O   UNL     1       6.369   0.998  -0.297  0.00  0.00    -0.390 OA
ATOM     29  H   UNL     1       6.490   1.903  -0.632  0.00  0.00    +0.210 HD
ENDBRANCH  13   2
BRANCH   6  15
ATOM     15  C   UNL     1       2.695  -1.764   0.904  0.00  0.00    +0.120 C 
BRANCH  15  17
ATOM     17  C   UNL     1       1.244  -2.019   0.597  0.00  0.00    -0.033 A 
ATOM     18  C   UNL     1       0.287  -1.906   1.606  0.00  0.00    +0.007 A 
ATOM     19  C   UNL     1       0.855  -2.369  -0.696  0.00  0.00    +0.007 A 
ATOM     21  C   UNL     1      -1.058  -2.142   1.321  0.00  0.00    +0.027 A 
ATOM     22  C   UNL     1      -0.490  -2.605  -0.981  0.00  0.00    +0.027 A 
ATOM     23  C   UNL     1      -1.446  -2.491   0.028  0.00  0.00    +0.088 A 
BRANCH  23   1
ATOM      1  S   UNL     1      -3.130  -2.784  -0.328  0.00  0.00    -0.006 S 
ATOM      4  O   UNL     1      -3.222  -3.646  -1.499  0.00  0.00    -0.170 OA
ATOM      5  O   UNL     1      -3.789  -3.174   0.910  0.00  0.00    -0.170 OA
ATOM     25  C   UNL     1      -3.764  -1.192  -0.807  0.00  0.00    +0.200 C 
ENDBRANCH  23   1
ENDBRANCH  15  17
ENDBRANCH   6  15
TORSDOF 6
