REMARK  Name = 38029018
REMARK  9 active torsions:
REMARK  status: ('A' for Active; 'I' for Inactive)
REMARK    1  A    between atoms: N_3  and  C_14
REMARK    2  A    between atoms: C_7  and  C_11
REMARK    3  A    between atoms: C_8  and  C_14
REMARK    4  A    between atoms: C_10  and  C_16
REMARK    5  A    between atoms: C_11  and  C_19
REMARK    6  A    between atoms: C_11  and  C_20
REMARK    7  A    between atoms: C_12  and  C_22
REMARK    8  A    between atoms: C_15  and  C_21
REMARK    9  A    between atoms: C_16  and  C_23
REMARK                            x       y       z     vdW  Elec       q    Type
REMARK                         _______ _______ _______ _____ _____    ______ ____
ROOT
ATOM      7  C   UNL     1      -3.493   0.502   0.885  0.00  0.00    +0.000 C 
ATOM      8  C   UNL     1      -4.633   0.230  -0.128  0.00  0.00    +0.032 C 
ATOM      9  C   UNL     1      -2.870   1.883   0.633  0.00  0.00    +0.012 C 
ATOM     10  C   UNL     1      -2.298   2.012  -0.791  0.00  0.00    +0.023 C 
ATOM     12  C   UNL     1      -3.271   1.508  -1.837  0.00  0.00    -0.073 C 
ATOM     13  C   UNL     1      -4.317   0.724  -1.520  0.00  0.00    -0.022 C 
ATOM     22  C   UNL     1      -3.042   1.964  -3.252  0.00  0.00    +0.039 C 
ENDROOT
BRANCH   7  11
ATOM     11  C   UNL     1      -3.986   0.412   2.333  0.00  0.00    -0.013 C 
ATOM     19  C   UNL     1      -4.663   1.715   2.746  0.00  0.00    +0.007 C 
ATOM     20  C   UNL     1      -2.828   0.083   3.270  0.00  0.00    +0.007 C 
ENDBRANCH   7  11
BRANCH   8  14
ATOM     14  C   UNL     1      -4.981  -1.262  -0.182  0.00  0.00    +0.112 C 
BRANCH  14   3
ATOM      1  O   UNL     1      -3.518  -3.404   1.132  0.00  0.00    -0.276 OA
ATOM      3  N   UNL     1      -3.887  -2.019  -0.706  0.00  0.00    -0.315 N 
ATOM     21  C   UNL     1      -3.244  -3.032  -0.003  0.00  0.00    +0.216 C 
ATOM     33  H   UNL     1      -3.599  -1.841  -1.664  0.00  0.00    +0.149 HD
BRANCH  21  15
ATOM     15  C   UNL     1      -2.129  -3.691  -0.745  0.00  0.00    +0.075 C 
ATOM     17  C   UNL     1      -1.017  -2.846  -1.294  0.00  0.00    +0.013 C 
ATOM     18  C   UNL     1      -0.766  -3.744  -0.119  0.00  0.00    +0.013 C 
ENDBRANCH  21  15
ENDBRANCH  14   3
ENDBRANCH   8  14
BRANCH  10  16
ATOM     16  C   UNL     1      -0.946   1.299  -0.911  0.00  0.00    +0.103 C 
BRANCH  16  23
ATOM      2  O   UNL     1      -0.168   3.188   0.300  0.00  0.00    -0.276 OA
ATOM      4  N   UNL     1       1.414   1.577  -0.249  0.00  0.00    -0.298 N 
ATOM      5  N   UNL     1       4.076   0.459  -0.044  0.00  0.00    -0.312 N 
ATOM      6  N   UNL     1       6.040  -0.395  -1.040  0.00  0.00    -0.240 NA
ATOM     23  C   UNL     1       0.126   2.113  -0.229  0.00  0.00    +0.216 C 
ATOM     24  C   UNL     1       1.760   0.295  -0.869  0.00  0.00    +0.126 C 
ATOM     25  C   UNL     1       2.508   2.308   0.386  0.00  0.00    +0.126 C 
ATOM     26  C   UNL     1       3.244   0.189  -1.219  0.00  0.00    +0.125 C 
ATOM     27  C   UNL     1       3.553   1.367   0.981  0.00  0.00    +0.125 C 
ATOM     28  C   UNL     1       5.345  -0.101   0.082  0.00  0.00    +0.121 A 
ATOM     29  C   UNL     1       5.816  -0.321   1.366  0.00  0.00    +0.043 A 
ATOM     30  C   UNL     1       7.081  -0.880   1.509  0.00  0.00    +0.005 A 
ATOM     31  C   UNL     1       7.266  -0.937  -0.862  0.00  0.00    +0.113 A 
ATOM     32  C   UNL     1       7.827  -1.196   0.378  0.00  0.00    +0.020 A 
ENDBRANCH  16  23
ENDBRANCH  10  16
TORSDOF 6
