REMARK  Name = 75366993
REMARK  13 active torsions:
REMARK  status: ('A' for Active; 'I' for Inactive)
REMARK    1  A    between atoms: O_2  and  C_8
REMARK    2  A    between atoms: N_4  and  C_12
REMARK    3  A    between atoms: N_4  and  C_15
REMARK    4  A    between atoms: N_6  and  C_20
REMARK    5  A    between atoms: N_6  and  C_21
REMARK    6  A    between atoms: N_6  and  C_22
REMARK    7  A    between atoms: C_7  and  C_12
REMARK    8  A    between atoms: C_9  and  C_13
REMARK    9  A    between atoms: C_13  and  C_14
REMARK   10  A    between atoms: C_15  and  C_17
REMARK   11  A    between atoms: C_15  and  C_18
REMARK   12  A    between atoms: C_19  and  C_20
REMARK   13  A    between atoms: C_21  and  C_23
REMARK                            x       y       z     vdW  Elec       q    Type
REMARK                         _______ _______ _______ _____ _____    ______ ____
ROOT
ATOM     13  C   UNL     1       1.927  -3.022  -0.390  0.00  0.00    +0.090 C 
ENDROOT
BRANCH  13   9
ATOM      1  O   UNL     1       2.804  -1.123   0.749  0.00  0.00    -0.369 OA
ATOM      7  C   UNL     1       3.367   0.196   0.784  0.00  0.00    +0.161 C 
ATOM      8  C   UNL     1       4.634   0.285  -0.076  0.00  0.00    +0.145 C 
ATOM      9  C   UNL     1       2.513  -1.625  -0.557  0.00  0.00    +0.125 C 
ATOM     10  C   UNL     1       4.428  -0.286  -1.476  0.00  0.00    +0.036 C 
ATOM     11  C   UNL     1       3.778  -1.665  -1.413  0.00  0.00    +0.034 C 
BRANCH   8   2
ATOM      2  O   UNL     1       5.672  -0.471   0.554  0.00  0.00    -0.389 OA
ATOM     30  H   UNL     1       6.477  -0.371   0.018  0.00  0.00    +0.210 HD
ENDBRANCH   8   2
BRANCH   7  12
ATOM     12  C   UNL     1       2.323   1.249   0.418  0.00  0.00    +0.115 C 
BRANCH  12   4
ATOM      4  N   UNL     1       2.865   2.590   0.568  0.00  0.00    -0.311 NA
ATOM     29  H   UNL     1       3.159   2.719   1.536  0.00  0.00    +0.122 HD
BRANCH   4  15
ATOM     15  C   UNL     1       1.875   3.598   0.210  0.00  0.00    +0.048 C 
ATOM     17  C   UNL     1       1.791   3.741  -1.307  0.00  0.00    +0.023 C 
ATOM     18  C   UNL     1       2.240   4.925   0.867  0.00  0.00    +0.023 C 
ENDBRANCH   4  15
ENDBRANCH  12   4
ENDBRANCH   7  12
ENDBRANCH  13   9
BRANCH  13  14
ATOM      3  O   UNL     1      -1.216  -2.911   1.369  0.00  0.00    -0.358 OA
ATOM      5  N   UNL     1       0.172  -2.957   1.333  0.00  0.00    -0.083 NA
ATOM     14  C   UNL     1       0.483  -2.974   0.034  0.00  0.00    +0.086 A 
ATOM     16  C   UNL     1      -0.656  -2.940  -0.788  0.00  0.00    +0.072 A 
ATOM     19  C   UNL     1      -1.698  -2.901   0.100  0.00  0.00    +0.151 A 
BRANCH  19  20
ATOM     20  C   UNL     1      -3.157  -2.853  -0.047  0.00  0.00    +0.161 C 
BRANCH  20   6
ATOM      6  N   UNL     1      -3.659  -1.522  -0.429  0.00  0.00    -0.294 NA
ATOM     22  C   UNL     1      -4.993  -1.638  -1.008  0.00  0.00    +0.105 C 
BRANCH   6  21
ATOM     21  C   UNL     1      -3.672  -0.639   0.732  0.00  0.00    +0.119 C 
BRANCH  21  23
ATOM     23  C   UNL     1      -3.653   0.812   0.332  0.00  0.00    -0.033 A 
ATOM     24  C   UNL     1      -2.438   1.476   0.167  0.00  0.00    +0.005 A 
ATOM     25  C   UNL     1      -4.853   1.494   0.127  0.00  0.00    +0.005 A 
ATOM     26  C   UNL     1      -2.421   2.821  -0.203  0.00  0.00    +0.000 A 
ATOM     27  C   UNL     1      -4.836   2.839  -0.243  0.00  0.00    +0.000 A 
ATOM     28  C   UNL     1      -3.620   3.502  -0.408  0.00  0.00    +0.000 A 
ENDBRANCH  21  23
ENDBRANCH   6  21
ENDBRANCH  20   6
ENDBRANCH  19  20
ENDBRANCH  13  14
TORSDOF 10
