REMARK  Name = 44715929
REMARK  7 active torsions:
REMARK  status: ('A' for Active; 'I' for Inactive)
REMARK    1  A    between atoms: N_4  and  C_15
REMARK    2  A    between atoms: N_5  and  C_17
REMARK    3  A    between atoms: C_9  and  C_16
REMARK    4  A    between atoms: C_10  and  C_15
REMARK    5  A    between atoms: C_17  and  C_20
REMARK    6  A    between atoms: C_17  and  C_21
REMARK    7  A    between atoms: C_19  and  C_22
REMARK                            x       y       z     vdW  Elec       q    Type
REMARK                         _______ _______ _______ _____ _____    ______ ____
ROOT
ATOM      3  N   UNL     1      -2.304  -1.829  -0.161  0.00  0.00    -0.297 NA
ATOM      8  C   UNL     1      -2.359   0.610  -1.067  0.00  0.00    +0.005 C 
ATOM      9  C   UNL     1      -3.372   0.414   0.078  0.00  0.00    +0.092 C 
ATOM     10  C   UNL     1      -1.028  -1.133   0.161  0.00  0.00    +0.078 C 
ATOM     11  C   UNL     1      -0.966   0.259  -0.510  0.00  0.00    +0.025 C 
ATOM     12  C   UNL     1      -2.649  -0.407  -2.186  0.00  0.00    +0.020 C 
ATOM     13  C   UNL     1      -3.419  -1.075   0.469  0.00  0.00    +0.097 C 
ATOM     14  C   UNL     1      -2.541  -1.833  -1.623  0.00  0.00    +0.085 C 
ENDROOT
BRANCH   9  16
ATOM      2  O   UNL     1      -4.962   1.404  -1.402  0.00  0.00    -0.275 OA
ATOM      5  N   UNL     1      -5.640   0.802   0.742  0.00  0.00    -0.313 N 
ATOM     16  C   UNL     1      -4.732   0.924  -0.295  0.00  0.00    +0.218 C 
ATOM     28  H   UNL     1      -5.348   0.352   1.605  0.00  0.00    +0.149 HD
BRANCH   5  17
ATOM     17  C   UNL     1      -7.014   1.240   0.645  0.00  0.00    +0.067 C 
ATOM     20  C   UNL     1      -7.892   0.127   0.087  0.00  0.00    +0.027 C 
ATOM     21  C   UNL     1      -7.517   1.710   2.004  0.00  0.00    +0.027 C 
ENDBRANCH   5  17
ENDBRANCH   9  16
BRANCH  10  15
ATOM     15  C   UNL     1       0.196  -1.983  -0.184  0.00  0.00    +0.164 C 
BRANCH  15   4
ATOM      4  N   UNL     1       1.465  -1.349   0.312  0.00  0.00    -0.250 N 
ATOM      6  N   UNL     1       1.632  -1.081   1.617  0.00  0.00    -0.065 NA
ATOM      7  N   UNL     1       2.833  -0.530   1.756  0.00  0.00    -0.130 NA
ATOM     18  C   UNL     1       2.551  -0.979  -0.419  0.00  0.00    +0.138 A 
ATOM     19  C   UNL     1       3.409  -0.461   0.518  0.00  0.00    +0.113 A 
BRANCH  19  22
ATOM      1  F   UNL     1       8.460   1.614  -0.512  0.00  0.00    -0.205 F 
ATOM     22  C   UNL     1       4.707   0.072   0.254  0.00  0.00    +0.004 A 
ATOM     23  C   UNL     1       4.976   0.674  -0.976  0.00  0.00    +0.013 A 
ATOM     24  C   UNL     1       5.705  -0.008   1.224  0.00  0.00    +0.013 A 
ATOM     25  C   UNL     1       6.244   1.195  -1.234  0.00  0.00    +0.039 A 
ATOM     26  C   UNL     1       6.973   0.512   0.966  0.00  0.00    +0.039 A 
ATOM     27  C   UNL     1       7.243   1.114  -0.264  0.00  0.00    +0.123 A 
ENDBRANCH  19  22
ENDBRANCH  15   4
ENDBRANCH  10  15
TORSDOF 5
