REMARK  Name = 7144226
REMARK  7 active torsions:
REMARK  status: ('A' for Active; 'I' for Inactive)
REMARK    1  A    between atoms: S_1  and  C_28
REMARK    2  A    between atoms: S_1  and  C_29
REMARK    3  A    between atoms: O_4  and  C_27
REMARK    4  A    between atoms: C_15  and  C_20
REMARK    5  A    between atoms: C_17  and  C_21
REMARK    6  A    between atoms: C_21  and  C_22
REMARK    7  A    between atoms: C_22  and  C_27
REMARK                            x       y       z     vdW  Elec       q    Type
REMARK                         _______ _______ _______ _____ _____    ______ ____
ROOT
ATOM      2  O   UNL     1      -2.791   2.908   2.231  0.00  0.00    -0.268 OA
ATOM      3  O   UNL     1      -3.833  -1.148  -0.965  0.00  0.00    -0.276 OA
ATOM      6  N   UNL     1      -1.901  -0.069  -1.672  0.00  0.00    -0.301 N 
ATOM      7  N   UNL     1      -1.384   2.201   0.497  0.00  0.00    -0.311 N 
ATOM      8  C   UNL     1      -2.082   2.398  -1.962  0.00  0.00    +0.027 C 
ATOM      9  C   UNL     1       0.087   1.400  -1.378  0.00  0.00    +0.054 C 
ATOM     10  C   UNL     1      -0.587   2.474  -2.230  0.00  0.00    +0.018 C 
ATOM     11  C   UNL     1      -2.634   1.012  -2.332  0.00  0.00    +0.113 C 
ATOM     12  C   UNL     1      -2.329   2.738  -0.491  0.00  0.00    +0.130 C 
ATOM     13  C   UNL     1      -0.440   0.010  -1.793  0.00  0.00    +0.117 C 
ATOM     14  C   UNL     1      -0.152   1.632   0.116  0.00  0.00    +0.034 A 
ATOM     15  C   UNL     1       0.756   1.288   1.066  0.00  0.00    +0.002 A 
ATOM     16  C   UNL     1      -1.737   2.404   1.843  0.00  0.00    +0.252 A 
ATOM     17  C   UNL     1      -2.604  -1.103  -1.054  0.00  0.00    +0.216 C 
ATOM     18  C   UNL     1       0.425   1.479   2.465  0.00  0.00    +0.015 A 
ATOM     19  C   UNL     1      -0.743   1.986   2.858  0.00  0.00    +0.071 A 
ENDROOT
BRANCH  15  20
ATOM     20  C   UNL     1       2.069   0.705   0.714  0.00  0.00    -0.016 A 
ATOM     23  C   UNL     1       2.200  -0.675   0.586  0.00  0.00    +0.009 A 
ATOM     24  C   UNL     1       3.165   1.539   0.513  0.00  0.00    +0.009 A 
ATOM     25  C   UNL     1       3.439  -1.225   0.255  0.00  0.00    +0.015 A 
ATOM     26  C   UNL     1       4.403   0.989   0.183  0.00  0.00    +0.015 A 
ATOM     28  C   UNL     1       4.540  -0.393   0.053  0.00  0.00    +0.008 A 
BRANCH  28   1
ATOM      1  S   UNL     1       6.122  -1.095  -0.370  0.00  0.00    -0.129 S 
ATOM     29  C   UNL     1       5.743  -1.950  -1.925  0.00  0.00    +0.090 C 
ENDBRANCH  28   1
ENDBRANCH  15  20
BRANCH  17  21
ATOM     21  C   UNL     1      -1.780  -2.218  -0.459  0.00  0.00    +0.107 C 
BRANCH  21  22
ATOM     22  C   UNL     1      -2.693  -3.252   0.169  0.00  0.00    +0.129 C 
BRANCH  22  27
ATOM      5  O   UNL     1      -0.674  -4.399   0.841  0.00  0.00    -0.251 OA
ATOM     27  C   UNL     1      -1.897  -4.348   0.834  0.00  0.00    +0.305 C 
BRANCH  27   4
ATOM      4  O   UNL     1      -2.686  -5.290   1.409  0.00  0.00    -0.481 OA
ATOM     30  H   UNL     1      -2.159  -6.002   1.829  0.00  0.00    +0.295 HD
ENDBRANCH  27   4
ENDBRANCH  22  27
ENDBRANCH  21  22
ENDBRANCH  17  21
TORSDOF 6
