REMARK  Name = 45361572
REMARK  8 active torsions:
REMARK  status: ('A' for Active; 'I' for Inactive)
REMARK    1  A    between atoms: O_1  and  C_10
REMARK    2  A    between atoms: N_4  and  C_14
REMARK    3  A    between atoms: C_7  and  C_17
REMARK    4  A    between atoms: C_9  and  C_19
REMARK    5  A    between atoms: C_12  and  C_18
REMARK    6  A    between atoms: C_18  and  C_20
REMARK    7  A    between atoms: C_18  and  C_21
REMARK    8  A    between atoms: C_22  and  C_27
REMARK                            x       y       z     vdW  Elec       q    Type
REMARK                         _______ _______ _______ _____ _____    ______ ____
ROOT
ATOM      7  C   UNL     1       0.235  -1.524   1.018  0.00  0.00    -0.027 C 
ATOM      8  C   UNL     1       0.148  -0.297   0.050  0.00  0.00    +0.028 C 
ATOM      9  C   UNL     1      -1.302  -0.150  -0.536  0.00  0.00    +0.012 C 
ATOM     10  C   UNL     1       1.294  -0.325  -1.001  0.00  0.00    +0.122 C 
ATOM     11  C   UNL     1       1.640  -1.573   1.663  0.00  0.00    +0.007 C 
ATOM     12  C   UNL     1       2.691  -0.479  -0.354  0.00  0.00    +0.029 C 
ATOM     13  C   UNL     1      -0.799  -1.345   2.153  0.00  0.00    +0.009 C 
ATOM     14  C   UNL     1      -2.341  -0.046   0.615  0.00  0.00    +0.076 C 
ATOM     15  C   UNL     1       2.764  -1.641   0.638  0.00  0.00    +0.007 C 
ATOM     16  C   UNL     1      -2.222  -1.171   1.644  0.00  0.00    +0.023 C 
ATOM     17  C   UNL     1      -0.028  -2.870   0.296  0.00  0.00    +0.011 C 
ATOM     19  C   UNL     1      -1.467   1.057  -1.476  0.00  0.00    +0.010 C 
ENDROOT
BRANCH  14   4
ATOM      3  O   UNL     1      -4.580   1.324   1.778  0.00  0.00    -0.270 OA
ATOM      4  N   UNL     1      -3.699  -0.026   0.112  0.00  0.00    -0.308 N 
ATOM     22  C   UNL     1      -4.714   0.668   0.749  0.00  0.00    +0.244 C 
ATOM     33  H   UNL     1      -3.907  -0.637  -0.671  0.00  0.00    +0.149 HD
BRANCH  22  27
ATOM      6  N   UNL     1      -8.583   0.373  -1.059  0.00  0.00    -0.263 NA
ATOM     27  C   UNL     1      -6.056   0.567   0.121  0.00  0.00    +0.040 A 
ATOM     29  C   UNL     1      -7.202   0.710   0.896  0.00  0.00    +0.033 A 
ATOM     30  C   UNL     1      -6.173   0.328  -1.244  0.00  0.00    +0.033 A 
ATOM     31  C   UNL     1      -8.430   0.605   0.264  0.00  0.00    +0.111 A 
ATOM     32  C   UNL     1      -7.447   0.240  -1.780  0.00  0.00    +0.111 A 
ENDBRANCH  22  27
ENDBRANCH  14   4
BRANCH  10   1
ATOM      1  O   UNL     1       1.312   0.908  -1.721  0.00  0.00    -0.391 OA
ATOM     34  H   UNL     1       1.462   1.627  -1.084  0.00  0.00    +0.210 HD
ENDBRANCH  10   1
BRANCH  12  18
ATOM     18  C   UNL     1       3.793  -0.636  -1.409  0.00  0.00    +0.078 C 
ATOM     20  C   UNL     1       3.570  -1.878  -2.253  0.00  0.00    +0.017 C 
BRANCH  18  21
ATOM      2  O   UNL     1       5.577  -1.827  -0.402  0.00  0.00    -0.275 OA
ATOM      5  N   UNL     1       5.767   0.489  -0.440  0.00  0.00    -0.301 N 
ATOM     21  C   UNL     1       5.124  -0.720  -0.706  0.00  0.00    +0.219 C 
ATOM     23  C   UNL     1       5.275   1.817  -0.828  0.00  0.00    +0.108 C 
ATOM     24  C   UNL     1       7.063   0.490   0.242  0.00  0.00    +0.108 C 
ATOM     25  C   UNL     1       5.210   2.746   0.382  0.00  0.00    +0.019 C 
ATOM     26  C   UNL     1       7.031   1.393   1.472  0.00  0.00    +0.019 C 
ATOM     28  C   UNL     1       6.549   2.798   1.115  0.00  0.00    +0.003 C 
ENDBRANCH  18  21
ENDBRANCH  12  18
TORSDOF 5
