REMARK  Name = 25388909
REMARK  8 active torsions:
REMARK  status: ('A' for Active; 'I' for Inactive)
REMARK    1  A    between atoms: O_2  and  C_22
REMARK    2  A    between atoms: O_2  and  C_27
REMARK    3  A    between atoms: N_4  and  C_18
REMARK    4  A    between atoms: N_5  and  C_15
REMARK    5  A    between atoms: C_8  and  C_14
REMARK    6  A    between atoms: C_9  and  C_15
REMARK    7  A    between atoms: C_17  and  C_20
REMARK    8  A    between atoms: C_19  and  C_21
REMARK                            x       y       z     vdW  Elec       q    Type
REMARK                         _______ _______ _______ _____ _____    ______ ____
ROOT
ATOM      3  N   UNL     1      -3.149  -1.315   1.216  0.00  0.00    -0.297 NA
ATOM      7  C   UNL     1      -1.959  -1.816  -1.046  0.00  0.00    +0.002 C 
ATOM      8  C   UNL     1      -1.016  -2.135   0.146  0.00  0.00    +0.055 C 
ATOM      9  C   UNL     1      -3.283  -0.150   0.303  0.00  0.00    +0.074 C 
ATOM     10  C   UNL     1      -2.413  -0.343  -0.958  0.00  0.00    +0.024 C 
ATOM     11  C   UNL     1      -3.219  -2.690  -0.864  0.00  0.00    +0.019 C 
ATOM     12  C   UNL     1      -1.714  -1.625   1.439  0.00  0.00    +0.094 C 
ATOM     13  C   UNL     1      -3.777  -2.485   0.555  0.00  0.00    +0.085 C 
ENDROOT
BRANCH   8  14
ATOM      4  N   UNL     1       1.421  -2.452  -0.486  0.00  0.00    -0.270 N 
ATOM      6  N   UNL     1       2.633  -1.871  -0.470  0.00  0.00    -0.171 NA
ATOM     14  C   UNL     1       0.434  -1.682   0.056  0.00  0.00    +0.044 A 
ATOM     16  C   UNL     1       1.043  -0.517   0.455  0.00  0.00    +0.053 A 
ATOM     17  C   UNL     1       2.396  -0.690   0.106  0.00  0.00    +0.096 A 
ATOM     18  C   UNL     1       1.280  -3.776  -1.047  0.00  0.00    +0.172 C 
BRANCH  17  20
ATOM     20  C   UNL     1       3.466   0.251   0.314  0.00  0.00    +0.044 A 
ATOM     22  C   UNL     1       3.425   1.520  -0.263  0.00  0.00    +0.129 A 
ATOM     23  C   UNL     1       4.553  -0.121   1.105  0.00  0.00    +0.014 A 
ATOM     24  C   UNL     1       4.471   2.417  -0.049  0.00  0.00    +0.046 A 
ATOM     25  C   UNL     1       5.599   0.776   1.318  0.00  0.00    +0.001 A 
ATOM     26  C   UNL     1       5.559   2.045   0.741  0.00  0.00    +0.004 A 
BRANCH  22   2
ATOM      2  O   UNL     1       2.375   1.911  -1.040  0.00  0.00    -0.494 OA
ATOM     27  C   UNL     1       2.472   1.647  -2.438  0.00  0.00    +0.277 C 
ENDBRANCH  22   2
ENDBRANCH  17  20
ENDBRANCH   8  14
BRANCH   9  15
ATOM     15  C   UNL     1      -2.983   1.177   1.004  0.00  0.00    +0.123 C 
BRANCH  15   5
ATOM      1  O   UNL     1      -5.471   2.637   0.675  0.00  0.00    -0.276 OA
ATOM      5  N   UNL     1      -3.233   2.283   0.131  0.00  0.00    -0.314 N 
ATOM     19  C   UNL     1      -4.464   2.928   0.036  0.00  0.00    +0.210 C 
ATOM     21  C   UNL     1      -4.445   4.075  -0.939  0.00  0.00    +0.109 C 
ATOM     28  H   UNL     1      -2.464   2.612  -0.445  0.00  0.00    +0.149 HD
ENDBRANCH  15   5
ENDBRANCH   9  15
TORSDOF 5
