REMARK  Name = 45361209
REMARK  8 active torsions:
REMARK  status: ('A' for Active; 'I' for Inactive)
REMARK    1  A    between atoms: O_3  and  C_25
REMARK    2  A    between atoms: N_4  and  C_17
REMARK    3  A    between atoms: N_5  and  C_16
REMARK    4  A    between atoms: C_12  and  C_15
REMARK    5  A    between atoms: C_15  and  C_18
REMARK    6  A    between atoms: C_16  and  C_19
REMARK    7  A    between atoms: C_18  and  C_20
REMARK    8  A    between atoms: C_30  and  C_31
REMARK                            x       y       z     vdW  Elec       q    Type
REMARK                         _______ _______ _______ _____ _____    ______ ____
ROOT
ATOM      1  O   UNL     1       0.778  -0.699   1.030  0.00  0.00    -0.274 OA
ATOM      4  N   UNL     1      -0.560   2.534  -0.626  0.00  0.00    -0.296 NA
ATOM      5  N   UNL     1       2.672   0.956   0.047  0.00  0.00    -0.286 NA
ATOM      6  N   UNL     1      -0.574   0.977   1.803  0.00  0.00    -0.312 N 
ATOM      8  C   UNL     1       0.902   2.556  -0.400  0.00  0.00    +0.084 C 
ATOM      9  C   UNL     1       1.500   1.598   0.672  0.00  0.00    +0.161 C 
ATOM     10  C   UNL     1       1.733   2.200  -1.647  0.00  0.00    +0.036 C 
ATOM     11  C   UNL     1       3.075   1.799  -1.073  0.00  0.00    +0.087 C 
ATOM     12  C   UNL     1      -1.372   2.958   0.548  0.00  0.00    +0.074 C 
ATOM     13  C   UNL     1       0.554   0.503   1.160  0.00  0.00    +0.232 C 
ATOM     14  C   UNL     1      -0.906   2.385   1.901  0.00  0.00    +0.123 C 
ATOM     17  C   UNL     1      -0.918   3.334  -1.810  0.00  0.00    +0.105 C 
ATOM     32  H   UNL     1      -1.204   0.300   2.220  0.00  0.00    +0.149 HD
ENDROOT
BRANCH  12  15
ATOM     15  C   UNL     1      -2.849   2.554   0.357  0.00  0.00    +0.029 C 
BRANCH  15  18
ATOM     18  C   UNL     1      -2.991   1.104  -0.063  0.00  0.00    +0.097 C 
BRANCH  18  20
ATOM      2  O   UNL     1      -5.314   1.564  -0.003  0.00  0.00    -0.276 OA
ATOM      7  N   UNL     1      -4.701  -0.595  -0.604  0.00  0.00    -0.301 N 
ATOM     20  C   UNL     1      -4.441   0.720  -0.219  0.00  0.00    +0.216 C 
ATOM     21  C   UNL     1      -3.682  -1.620  -0.868  0.00  0.00    +0.110 C 
ATOM     22  C   UNL     1      -6.083  -1.031  -0.821  0.00  0.00    +0.110 C 
ATOM     23  C   UNL     1      -3.955  -2.877  -0.046  0.00  0.00    +0.050 C 
ATOM     24  C   UNL     1      -6.397  -2.275   0.003  0.00  0.00    +0.050 C 
ATOM     25  C   UNL     1      -5.380  -3.385  -0.264  0.00  0.00    +0.118 C 
BRANCH  25   3
ATOM      3  O   UNL     1      -5.616  -4.478   0.617  0.00  0.00    -0.392 OA
ATOM     33  H   UNL     1      -6.527  -4.782   0.467  0.00  0.00    +0.210 HD
ENDBRANCH  25   3
ENDBRANCH  18  20
ENDBRANCH  15  18
ENDBRANCH  12  15
BRANCH   5  16
ATOM     16  C   UNL     1       3.767   0.722   0.980  0.00  0.00    +0.120 C 
BRANCH  16  19
ATOM     19  C   UNL     1       4.701  -0.353   0.489  0.00  0.00    -0.033 A 
ATOM     26  C   UNL     1       4.329  -1.695   0.580  0.00  0.00    +0.005 A 
ATOM     27  C   UNL     1       5.938  -0.008  -0.054  0.00  0.00    +0.005 A 
ATOM     28  C   UNL     1       5.195  -2.690   0.128  0.00  0.00    +0.003 A 
ATOM     29  C   UNL     1       6.804  -1.004  -0.506  0.00  0.00    +0.003 A 
ATOM     30  C   UNL     1       6.432  -2.345  -0.415  0.00  0.00    -0.050 A 
ATOM     31  C   UNL     1       7.358  -3.410  -0.897  0.00  0.00    +0.044 C 
ENDBRANCH  16  19
ENDBRANCH   5  16
TORSDOF 6
