REMARK  Name = 75536178
REMARK  11 active torsions:
REMARK  status: ('A' for Active; 'I' for Inactive)
REMARK    1  A    between atoms: O_2  and  C_10
REMARK    2  A    between atoms: N_5  and  C_12
REMARK    3  A    between atoms: N_6  and  C_23
REMARK    4  A    between atoms: N_7  and  C_33
REMARK    5  A    between atoms: C_9  and  C_10
REMARK    6  A    between atoms: C_10  and  C_15
REMARK    7  A    between atoms: C_12  and  C_14
REMARK    8  A    between atoms: C_14  and  C_17
REMARK    9  A    between atoms: C_17  and  C_20
REMARK   10  A    between atoms: C_29  and  C_30
REMARK   11  A    between atoms: C_32  and  C_34
REMARK                            x       y       z     vdW  Elec       q    Type
REMARK                         _______ _______ _______ _____ _____    ______ ____
ROOT
ATOM     10  C   UNL     1      -0.846   1.903  -0.845  0.00  0.00    +0.167 C 
ENDROOT
BRANCH  10   9
ATOM      1  O   UNL     1      -1.757   2.485   1.883  0.00  0.00    -0.369 OA
ATOM      3  O   UNL     1      -4.941   2.878   0.224  0.00  0.00    -0.273 OA
ATOM      5  N   UNL     1      -3.196   1.420  -0.275  0.00  0.00    -0.292 N 
ATOM      9  C   UNL     1      -1.802   1.038  -0.019  0.00  0.00    +0.135 C 
ATOM     11  C   UNL     1      -1.496   1.149   1.470  0.00  0.00    +0.185 C 
ATOM     13  C   UNL     1      -3.840   2.391   0.490  0.00  0.00    +0.242 C 
ATOM     16  C   UNL     1      -3.131   2.786   1.780  0.00  0.00    +0.255 C 
BRANCH   5  12
ATOM     12  C   UNL     1      -3.833   0.885  -1.471  0.00  0.00    +0.108 C 
BRANCH  12  14
ATOM     14  C   UNL     1      -5.163   0.198  -1.172  0.00  0.00    +0.024 C 
BRANCH  14  17
ATOM     17  C   UNL     1      -5.058  -1.007  -0.227  0.00  0.00    +0.036 C 
BRANCH  17  20
ATOM     20  C   UNL     1      -6.374  -1.697   0.029  0.00  0.00    -0.047 A 
ATOM     24  C   UNL     1      -7.179  -1.292   1.094  0.00  0.00    +0.003 A 
ATOM     25  C   UNL     1      -6.786  -2.742  -0.799  0.00  0.00    +0.003 A 
ATOM     26  C   UNL     1      -8.396  -1.931   1.331  0.00  0.00    +0.000 A 
ATOM     27  C   UNL     1      -8.003  -3.381  -0.562  0.00  0.00    +0.000 A 
ATOM     28  C   UNL     1      -8.808  -2.976   0.503  0.00  0.00    +0.000 A 
ENDBRANCH  17  20
ENDBRANCH  14  17
ENDBRANCH  12  14
ENDBRANCH   5  12
ENDBRANCH  10   9
BRANCH  10  15
ATOM     15  C   UNL     1       0.593   1.508  -0.630  0.00  0.00    -0.017 A 
ATOM     18  C   UNL     1       1.009   0.207  -0.914  0.00  0.00    +0.008 A 
ATOM     19  C   UNL     1       1.509   2.443  -0.148  0.00  0.00    +0.008 A 
ATOM     21  C   UNL     1       2.340  -0.159  -0.716  0.00  0.00    +0.023 A 
ATOM     22  C   UNL     1       2.841   2.077   0.050  0.00  0.00    +0.023 A 
ATOM     23  C   UNL     1       3.256   0.776  -0.234  0.00  0.00    +0.034 A 
BRANCH  23   6
ATOM      4  O   UNL     1       4.631  -1.849  -0.684  0.00  0.00    -0.268 OA
ATOM      6  N   UNL     1       4.588   0.410  -0.036  0.00  0.00    -0.280 N 
ATOM     29  C   UNL     1       5.183  -0.838  -0.263  0.00  0.00    +0.266 C 
ATOM     36  H   UNL     1       5.186   1.151   0.323  0.00  0.00    +0.155 HD
BRANCH  29  30
ATOM      7  N   UNL     1       7.312  -2.022   0.433  0.00  0.00    -0.262 N 
ATOM      8  N   UNL     1       8.628  -1.825   0.618  0.00  0.00    -0.176 NA
ATOM     30  C   UNL     1       6.640  -0.910   0.018  0.00  0.00    +0.124 A 
ATOM     31  C   UNL     1       7.583   0.085  -0.075  0.00  0.00    +0.057 A 
ATOM     32  C   UNL     1       8.788  -0.536   0.306  0.00  0.00    +0.061 A 
ATOM     33  C   UNL     1       6.753  -3.332   0.679  0.00  0.00    +0.173 C 
ATOM     34  C   UNL     1      10.125   0.076   0.385  0.00  0.00    +0.067 C 
ENDBRANCH  29  30
ENDBRANCH  23   6
ENDBRANCH  10  15
BRANCH  10   2
ATOM      2  O   UNL     1      -1.172   1.780  -2.225  0.00  0.00    -0.385 OA
ATOM     35  H   UNL     1      -1.032   0.858  -2.500  0.00  0.00    +0.210 HD
ENDBRANCH  10   2
TORSDOF 9
