REMARK  Name = 56775692
REMARK  8 active torsions:
REMARK  status: ('A' for Active; 'I' for Inactive)
REMARK    1  A    between atoms: O_3  and  C_21
REMARK    2  A    between atoms: O_3  and  C_26
REMARK    3  A    between atoms: N_4  and  C_7
REMARK    4  A    between atoms: N_4  and  C_11
REMARK    5  A    between atoms: C_7  and  C_10
REMARK    6  A    between atoms: C_10  and  C_12
REMARK    7  A    between atoms: C_11  and  C_13
REMARK    8  A    between atoms: C_15  and  C_18
REMARK                            x       y       z     vdW  Elec       q    Type
REMARK                         _______ _______ _______ _____ _____    ______ ____
ROOT
ATOM      1  O   UNL     1      -1.031  -4.302   1.184  0.00  0.00    -0.376 OA
ATOM      7  C   UNL     1      -0.458  -2.632  -0.016  0.00  0.00    +0.072 C 
ATOM      8  C   UNL     1      -1.483  -3.760  -0.078  0.00  0.00    +0.184 C 
ATOM      9  C   UNL     1       0.025  -3.317   1.258  0.00  0.00    +0.184 C 
ENDROOT
BRANCH   7   4
ATOM      4  N   UNL     1      -1.145  -1.390   0.346  0.00  0.00    -0.302 NA
ATOM     27  H   UNL     1      -0.551  -0.672   0.760  0.00  0.00    +0.123 HD
BRANCH   4  11
ATOM     11  C   UNL     1      -1.820  -0.853  -0.837  0.00  0.00    +0.117 C 
BRANCH  11  13
ATOM     13  C   UNL     1      -2.969   0.029  -0.482  0.00  0.00    -0.033 A 
ATOM     16  C   UNL     1      -4.172  -0.531  -0.053  0.00  0.00    +0.008 A 
ATOM     17  C   UNL     1      -2.840   1.415  -0.580  0.00  0.00    +0.008 A 
ATOM     19  C   UNL     1      -5.247   0.294   0.279  0.00  0.00    +0.046 A 
ATOM     20  C   UNL     1      -3.915   2.240  -0.249  0.00  0.00    +0.046 A 
ATOM     21  C   UNL     1      -5.118   1.680   0.180  0.00  0.00    +0.120 A 
BRANCH  21   3
ATOM      3  O   UNL     1      -6.166   2.485   0.504  0.00  0.00    -0.495 OA
ATOM     26  C   UNL     1      -5.966   3.892   0.381  0.00  0.00    +0.277 C 
ENDBRANCH  21   3
ENDBRANCH  11  13
ENDBRANCH   4  11
ENDBRANCH   7   4
BRANCH   7  10
ATOM     10  C   UNL     1       0.499  -2.459  -1.156  0.00  0.00    +0.085 C 
BRANCH  10  12
ATOM      2  O   UNL     1       3.686  -1.263   0.057  0.00  0.00    -0.353 OA
ATOM      5  N   UNL     1       2.782  -2.278  -0.230  0.00  0.00    -0.083 NA
ATOM     12  C   UNL     1       1.708  -1.655  -0.726  0.00  0.00    +0.086 A 
ATOM     14  C   UNL     1       1.876  -0.261  -0.775  0.00  0.00    +0.077 A 
ATOM     15  C   UNL     1       3.135  -0.066  -0.272  0.00  0.00    +0.186 A 
BRANCH  15  18
ATOM      6  N   UNL     1       5.173   0.808   0.492  0.00  0.00    -0.252 NA
ATOM     18  C   UNL     1       3.958   1.084  -0.033  0.00  0.00    +0.109 A 
ATOM     22  C   UNL     1       3.512   2.362  -0.328  0.00  0.00    +0.031 A 
ATOM     23  C   UNL     1       4.369   3.426  -0.068  0.00  0.00    +0.004 A 
ATOM     24  C   UNL     1       5.978   1.868   0.731  0.00  0.00    +0.111 A 
ATOM     25  C   UNL     1       5.627   3.183   0.471  0.00  0.00    +0.020 A 
ENDBRANCH  15  18
ENDBRANCH  10  12
ENDBRANCH   7  10
TORSDOF 7
