REMARK  Name = 71693735
REMARK  3 active torsions:
REMARK  status: ('A' for Active; 'I' for Inactive)
REMARK    1  A    between atoms: N_5  and  C_14
REMARK    2  A    between atoms: C_14  and  C_16
REMARK    3  A    between atoms: C_15  and  C_17
REMARK                            x       y       z     vdW  Elec       q    Type
REMARK                         _______ _______ _______ _____ _____    ______ ____
ROOT
ATOM      1  O   UNL     1      -0.211  -2.979   0.003  0.00  0.00    -0.364 OA
ATOM      2  O   UNL     1      -2.659  -1.738  -2.261  0.00  0.00    -0.273 OA
ATOM      3  O   UNL     1       3.888  -1.290   1.850  0.00  0.00    -0.270 OA
ATOM      4  N   UNL     1       1.806  -0.940   0.881  0.00  0.00    -0.293 N 
ATOM      5  N   UNL     1      -1.511  -0.595  -0.591  0.00  0.00    -0.288 N 
ATOM      8  C   UNL     1      -0.500  -0.634   0.459  0.00  0.00    +0.124 C 
ATOM      9  C   UNL     1      -0.283  -2.022   1.057  0.00  0.00    +0.158 C 
ATOM     10  C   UNL     1       0.898  -0.265  -0.044  0.00  0.00    +0.133 C 
ATOM     11  C   UNL     1       1.091  -1.910   1.704  0.00  0.00    +0.141 C 
ATOM     12  C   UNL     1      -1.913  -1.736  -1.281  0.00  0.00    +0.242 C 
ATOM     13  C   UNL     1      -1.435  -3.051  -0.691  0.00  0.00    +0.256 C 
ATOM     15  C   UNL     1       3.159  -0.696   1.057  0.00  0.00    +0.247 C 
ENDROOT
BRANCH  15  17
ATOM      7  N   UNL     1       4.929   2.377  -1.315  0.00  0.00    -0.263 NA
ATOM     17  C   UNL     1       3.771   0.364   0.240  0.00  0.00    +0.040 A 
ATOM     20  C   UNL     1       3.805   1.673   0.706  0.00  0.00    +0.033 A 
ATOM     21  C   UNL     1       4.315   0.060  -1.004  0.00  0.00    +0.033 A 
ATOM     23  C   UNL     1       4.390   2.634  -0.102  0.00  0.00    +0.111 A 
ATOM     24  C   UNL     1       4.877   1.093  -1.735  0.00  0.00    +0.111 A 
ENDBRANCH  15  17
BRANCH   5  14
ATOM     14  C   UNL     1      -1.974   0.720  -1.011  0.00  0.00    +0.145 C 
BRANCH  14  16
ATOM      6  N   UNL     1      -5.623   0.904  -0.035  0.00  0.00    -0.263 NA
ATOM     16  C   UNL     1      -3.230   1.128  -0.297  0.00  0.00    -0.012 A 
ATOM     18  C   UNL     1      -3.200   2.070   0.726  0.00  0.00    +0.008 A 
ATOM     19  C   UNL     1      -4.457   0.580  -0.636  0.00  0.00    +0.115 A 
ATOM     22  C   UNL     1      -4.379   2.430   1.368  0.00  0.00    +0.020 A 
ATOM     25  C   UNL     1      -5.554   1.823   0.954  0.00  0.00    +0.111 A 
ENDBRANCH  14  16
ENDBRANCH   5  14
TORSDOF 3
