REMARK  Name = 11883065
REMARK  9 active torsions:
REMARK  status: ('A' for Active; 'I' for Inactive)
REMARK    1  A    between atoms: O_3  and  C_15
REMARK    2  A    between atoms: O_4  and  C_20
REMARK    3  A    between atoms: O_5  and  C_24
REMARK    4  A    between atoms: C_10  and  C_18
REMARK    5  A    between atoms: C_12  and  C_20
REMARK    6  A    between atoms: C_12  and  C_21
REMARK    7  A    between atoms: C_13  and  C_23
REMARK    8  A    between atoms: C_23  and  C_24
REMARK    9  A    between atoms: C_26  and  C_27
REMARK                            x       y       z     vdW  Elec       q    Type
REMARK                         _______ _______ _______ _____ _____    ______ ____
ROOT
ATOM      1  S   UNL     1       0.476   2.071   0.160  0.00  0.00    -0.057 S 
ATOM      7  O   UNL     1       3.492  -1.461  -0.146  0.00  0.00    -0.270 OA
ATOM      8  N   UNL     1       0.697  -0.497  -0.055  0.00  0.00    -0.229 NA
ATOM      9  N   UNL     1       2.747   0.767   0.045  0.00  0.00    -0.261 N 
ATOM     10  C   UNL     1      -3.131  -0.730   0.340  0.00  0.00    -0.019 C 
ATOM     11  C   UNL     1      -3.368   0.684  -0.351  0.00  0.00    +0.011 C 
ATOM     12  C   UNL     1      -4.848   1.229  -0.379  0.00  0.00    +0.021 C 
ATOM     13  C   UNL     1      -1.702  -1.273  -0.124  0.00  0.00    +0.055 C 
ATOM     14  C   UNL     1      -4.214  -1.729  -0.145  0.00  0.00    +0.010 C 
ATOM     15  C   UNL     1      -5.803   0.093  -0.840  0.00  0.00    +0.123 C 
ATOM     16  C   UNL     1      -2.322   1.733   0.127  0.00  0.00    +0.049 C 
ATOM     17  C   UNL     1      -5.636  -1.195  -0.041  0.00  0.00    +0.032 C 
ATOM     18  C   UNL     1      -3.177  -0.659   1.886  0.00  0.00    +0.012 C 
ATOM     19  C   UNL     1      -0.652  -0.198  -0.016  0.00  0.00    +0.058 A 
ATOM     21  C   UNL     1      -4.948   2.373  -1.428  0.00  0.00    +0.016 C 
ATOM     22  C   UNL     1      -0.952   1.146   0.078  0.00  0.00    +0.015 A 
ATOM     25  C   UNL     1       1.386   0.620   0.037  0.00  0.00    +0.165 A 
ATOM     26  C   UNL     1       3.703  -0.258  -0.045  0.00  0.00    +0.250 C 
ATOM     35  H   UNL     1       3.047   1.736   0.078  0.00  0.00    +0.157 HD
ENDROOT
BRANCH  26  27
ATOM      2  F   UNL     1       9.024   1.435  -0.043  0.00  0.00    -0.205 F 
ATOM     27  C   UNL     1       5.121   0.192  -0.043  0.00  0.00    +0.037 A 
ATOM     28  C   UNL     1       6.068  -0.591  -0.667  0.00  0.00    +0.016 A 
ATOM     29  C   UNL     1       5.441   1.379   0.582  0.00  0.00    +0.016 A 
ATOM     30  C   UNL     1       7.397  -0.169  -0.667  0.00  0.00    +0.039 A 
ATOM     31  C   UNL     1       6.770   1.802   0.582  0.00  0.00    +0.039 A 
ATOM     32  C   UNL     1       7.748   1.028  -0.042  0.00  0.00    +0.123 A 
ENDBRANCH  26  27
BRANCH  15   3
ATOM      3  O   UNL     1      -7.164   0.514  -0.752  0.00  0.00    -0.391 OA
ATOM     33  H   UNL     1      -7.342   1.114  -1.495  0.00  0.00    +0.210 HD
ENDBRANCH  15   3
BRANCH  12  20
ATOM     20  C   UNL     1      -5.328   1.846   0.954  0.00  0.00    +0.165 C 
BRANCH  20   4
ATOM      4  O   UNL     1      -6.652   2.294   0.770  0.00  0.00    -0.394 OA
ATOM     34  H   UNL     1      -6.618   3.202   0.424  0.00  0.00    +0.209 HD
ENDBRANCH  20   4
ENDBRANCH  12  20
BRANCH  13  23
ATOM     23  C   UNL     1      -1.255  -2.567   0.569  0.00  0.00    +0.130 C 
BRANCH  23  24
ATOM      6  O   UNL     1       0.362  -2.993  -1.205  0.00  0.00    -0.251 OA
ATOM     24  C   UNL     1       0.004  -3.111  -0.043  0.00  0.00    +0.305 C 
BRANCH  24   5
ATOM      5  O   UNL     1       0.716  -3.777   0.902  0.00  0.00    -0.481 OA
ATOM     36  H   UNL     1       1.549  -4.147   0.539  0.00  0.00    +0.295 HD
ENDBRANCH  24   5
ENDBRANCH  23  24
ENDBRANCH  13  23
TORSDOF 7
