REMARK  Name = 28960058
REMARK  7 active torsions:
REMARK  status: ('A' for Active; 'I' for Inactive)
REMARK    1  A    between atoms: O_3  and  C_22
REMARK    2  A    between atoms: N_6  and  C_15
REMARK    3  A    between atoms: C_9  and  C_13
REMARK    4  A    between atoms: C_10  and  C_16
REMARK    5  A    between atoms: C_13  and  C_15
REMARK    6  A    between atoms: C_16  and  C_22
REMARK    7  A    between atoms: C_19  and  C_23
REMARK                            x       y       z     vdW  Elec       q    Type
REMARK                         _______ _______ _______ _____ _____    ______ ____
ROOT
ATOM      2  O   UNL     1      -3.814   2.167  -2.229  0.00  0.00    -0.270 OA
ATOM      5  N   UNL     1      -3.755   0.722  -0.390  0.00  0.00    -0.297 N 
ATOM      9  C   UNL     1      -2.589  -1.034   0.927  0.00  0.00    +0.011 C 
ATOM     10  C   UNL     1      -3.571  -2.075   0.334  0.00  0.00    +0.006 C 
ATOM     11  C   UNL     1      -3.247   0.359   0.941  0.00  0.00    +0.112 C 
ATOM     12  C   UNL     1      -4.111  -1.629  -1.035  0.00  0.00    +0.023 C 
ATOM     14  C   UNL     1      -4.708  -0.226  -0.963  0.00  0.00    +0.108 C 
ATOM     19  C   UNL     1      -3.396   1.862  -1.113  0.00  0.00    +0.247 C 
ENDROOT
BRANCH  19  23
ATOM      1  F   UNL     1       0.266   5.405   1.200  0.00  0.00    -0.205 F 
ATOM     23  C   UNL     1      -2.436   2.791  -0.506  0.00  0.00    +0.037 A 
ATOM     25  C   UNL     1      -1.069   2.623  -0.727  0.00  0.00    +0.016 A 
ATOM     26  C   UNL     1      -2.890   3.842   0.290  0.00  0.00    +0.016 A 
ATOM     28  C   UNL     1      -0.156   3.505  -0.150  0.00  0.00    +0.039 A 
ATOM     29  C   UNL     1      -1.977   4.725   0.867  0.00  0.00    +0.039 A 
ATOM     31  C   UNL     1      -0.610   4.556   0.647  0.00  0.00    +0.123 A 
ENDBRANCH  19  23
BRANCH   9  13
ATOM     13  C   UNL     1      -1.234  -0.976   0.210  0.00  0.00    +0.020 C 
BRANCH  13  15
ATOM     15  C   UNL     1      -0.147  -0.465   1.145  0.00  0.00    +0.085 C 
BRANCH  15   6
ATOM      6  N   UNL     1       1.130  -0.403   0.434  0.00  0.00    -0.299 NA
ATOM      7  N   UNL     1       3.959  -0.647   0.130  0.00  0.00    -0.313 N 
ATOM      8  N   UNL     1       5.913   0.313  -0.799  0.00  0.00    -0.240 NA
ATOM     17  C   UNL     1       1.761  -1.728   0.393  0.00  0.00    +0.103 C 
ATOM     18  C   UNL     1       2.031   0.560   1.077  0.00  0.00    +0.103 C 
ATOM     20  C   UNL     1       3.072  -1.688  -0.398  0.00  0.00    +0.122 C 
ATOM     21  C   UNL     1       3.350   0.676   0.309  0.00  0.00    +0.122 C 
ATOM     24  C   UNL     1       5.333  -0.709  -0.131  0.00  0.00    +0.121 A 
ATOM     27  C   UNL     1       6.014  -1.828   0.319  0.00  0.00    +0.043 A 
ATOM     30  C   UNL     1       7.380  -1.903   0.066  0.00  0.00    +0.005 A 
ATOM     32  C   UNL     1       7.242   0.205  -1.026  0.00  0.00    +0.113 A 
ATOM     33  C   UNL     1       8.013  -0.872  -0.618  0.00  0.00    +0.020 A 
ENDBRANCH  15   6
ENDBRANCH  13  15
ENDBRANCH   9  13
BRANCH  10  16
ATOM     16  C   UNL     1      -2.976  -3.480   0.246  0.00  0.00    +0.124 C 
BRANCH  16  22
ATOM      4  O   UNL     1      -5.254  -4.348   0.223  0.00  0.00    -0.251 OA
ATOM     22  C   UNL     1      -4.047  -4.535   0.201  0.00  0.00    +0.305 C 
BRANCH  22   3
ATOM      3  O   UNL     1      -3.475  -5.765   0.128  0.00  0.00    -0.481 OA
ATOM     34  H   UNL     1      -4.147  -6.479   0.097  0.00  0.00    +0.295 HD
ENDBRANCH  22   3
ENDBRANCH  16  22
ENDBRANCH  10  16
TORSDOF 7
