REMARK  Name = 28960591
REMARK  10 active torsions:
REMARK  status: ('A' for Active; 'I' for Inactive)
REMARK    1  A    between atoms: O_3  and  C_11
REMARK    2  A    between atoms: N_5  and  C_9
REMARK    3  A    between atoms: N_5  and  C_15
REMARK    4  A    between atoms: N_5  and  C_17
REMARK    5  A    between atoms: N_6  and  C_10
REMARK    6  A    between atoms: N_7  and  C_16
REMARK    7  A    between atoms: N_8  and  C_23
REMARK    8  A    between atoms: N_8  and  C_25
REMARK    9  A    between atoms: N_8  and  C_26
REMARK   10  A    between atoms: C_15  and  C_23
REMARK                            x       y       z     vdW  Elec       q    Type
REMARK                         _______ _______ _______ _____ _____    ______ ____
ROOT
ATOM      1  O   UNL     1       2.737   1.137  -1.591  0.00  0.00    -0.342 OA
ATOM      2  O   UNL     1       4.542   1.022  -0.139  0.00  0.00    -0.347 OA
ATOM      9  C   UNL     1       2.762  -0.601   0.081  0.00  0.00    +0.143 C 
ATOM     10  C   UNL     1       1.595   1.672   0.464  0.00  0.00    +0.136 C 
ATOM     11  C   UNL     1       2.018   0.319   1.076  0.00  0.00    +0.159 C 
ATOM     12  C   UNL     1       2.565   2.177  -0.624  0.00  0.00    +0.170 C 
ATOM     13  C   UNL     1       3.609   0.234  -0.897  0.00  0.00    +0.270 C 
ATOM     14  C   UNL     1       3.995   2.349  -0.148  0.00  0.00    +0.196 C 
ENDROOT
BRANCH  10   6
ATOM      4  O   UNL     1      -0.870   2.128   1.871  0.00  0.00    -0.253 OA
ATOM      6  N   UNL     1       0.257   1.577  -0.080  0.00  0.00    -0.291 N 
ATOM      7  N   UNL     1      -2.037   1.657  -0.080  0.00  0.00    -0.297 N 
ATOM     18  C   UNL     1      -0.882   1.816   0.681  0.00  0.00    +0.300 C 
ATOM     27  H   UNL     1       0.144   1.248  -1.034  0.00  0.00    +0.151 HD
ATOM     29  H   UNL     1      -1.935   1.327  -1.035  0.00  0.00    +0.151 HD
BRANCH   7  16
ATOM     16  C   UNL     1      -3.368   1.844   0.453  0.00  0.00    +0.074 C 
ATOM     19  C   UNL     1      -4.320   2.384  -0.620  0.00  0.00    +0.022 C 
ATOM     20  C   UNL     1      -3.903   0.546   1.067  0.00  0.00    +0.022 C 
ATOM     21  C   UNL     1      -4.669   1.334  -1.675  0.00  0.00    +0.002 C 
ATOM     22  C   UNL     1      -4.253  -0.501   0.009  0.00  0.00    +0.002 C 
ATOM     24  C   UNL     1      -5.209   0.056  -1.040  0.00  0.00    +0.000 C 
ENDBRANCH   7  16
ENDBRANCH  10   6
BRANCH  11   3
ATOM      3  O   UNL     1       2.896   0.568   2.181  0.00  0.00    -0.388 OA
ATOM     28  H   UNL     1       2.405   1.097   2.833  0.00  0.00    +0.210 HD
ENDBRANCH  11   3
BRANCH   9   5
ATOM      5  N   UNL     1       1.802  -1.416  -0.666  0.00  0.00    -0.295 NA
ATOM     17  C   UNL     1       2.410  -1.920  -1.896  0.00  0.00    +0.105 C 
BRANCH   5  15
ATOM     15  C   UNL     1       1.323  -2.524   0.160  0.00  0.00    +0.100 C 
BRANCH  15  23
ATOM     23  C   UNL     1      -0.006  -3.044  -0.378  0.00  0.00    +0.099 C 
BRANCH  23   8
ATOM      8  N   UNL     1      -0.475  -4.160   0.435  0.00  0.00    -0.307 NA
ATOM     25  C   UNL     1      -1.427  -4.980  -0.317  0.00  0.00    +0.104 C 
ATOM     26  C   UNL     1      -1.089  -3.675   1.672  0.00  0.00    +0.104 C 
ENDBRANCH  23   8
ENDBRANCH  15  23
ENDBRANCH   5  15
ENDBRANCH   9   5
TORSDOF 7
