REMARK  Name = 45784003
REMARK  13 active torsions:
REMARK  status: ('A' for Active; 'I' for Inactive)
REMARK    1  A    between atoms: O_1  and  C_21
REMARK    2  A    between atoms: N_3  and  C_9
REMARK    3  A    between atoms: C_6  and  C_11
REMARK    4  A    between atoms: C_7  and  C_9
REMARK    5  A    between atoms: C_10  and  C_18
REMARK    6  A    between atoms: C_11  and  C_19
REMARK    7  A    between atoms: C_11  and  C_20
REMARK    8  A    between atoms: C_12  and  C_21
REMARK    9  A    between atoms: C_14  and  C_22
REMARK   10  A    between atoms: C_18  and  C_23
REMARK   11  A    between atoms: C_24  and  C_25
REMARK   12  A    between atoms: C_25  and  C_26
REMARK   13  A    between atoms: C_26  and  C_27
REMARK                            x       y       z     vdW  Elec       q    Type
REMARK                         _______ _______ _______ _____ _____    ______ ____
ROOT
ATOM      6  C   UNL     1      -0.220   1.027  -0.068  0.00  0.00    +0.000 C 
ATOM      7  C   UNL     1      -1.586   0.527  -0.603  0.00  0.00    +0.029 C 
ATOM      8  C   UNL     1       0.922   0.528  -0.966  0.00  0.00    +0.012 C 
ATOM     10  C   UNL     1       0.965  -1.009  -1.055  0.00  0.00    +0.024 C 
ATOM     13  C   UNL     1      -1.535  -0.890  -1.122  0.00  0.00    -0.023 C 
ATOM     14  C   UNL     1      -0.407  -1.596  -1.317  0.00  0.00    -0.073 C 
ATOM     22  C   UNL     1      -0.451  -3.000  -1.852  0.00  0.00    +0.039 C 
ENDROOT
BRANCH   6  11
ATOM     11  C   UNL     1      -0.173   2.555   0.032  0.00  0.00    -0.013 C 
ATOM     19  C   UNL     1       0.138   3.167  -1.330  0.00  0.00    +0.007 C 
ATOM     20  C   UNL     1       0.859   2.988   1.069  0.00  0.00    +0.007 C 
ENDBRANCH   6  11
BRANCH   7   9
ATOM      9  C   UNL     1      -2.675   0.640   0.469  0.00  0.00    +0.092 C 
BRANCH   9   3
ATOM      3  N   UNL     1      -3.975   0.269  -0.076  0.00  0.00    -0.297 NA
ATOM     12  C   UNL     1      -4.965  -0.069   0.957  0.00  0.00    +0.082 C 
ATOM     15  C   UNL     1      -4.576   1.374  -0.827  0.00  0.00    +0.085 C 
ATOM     16  C   UNL     1      -6.288   0.004   0.192  0.00  0.00    +0.022 C 
ATOM     17  C   UNL     1      -6.026   0.945  -0.979  0.00  0.00    +0.017 C 
BRANCH  12  21
ATOM     21  C   UNL     1      -4.745  -1.442   1.578  0.00  0.00    +0.174 C 
BRANCH  21   1
ATOM      1  O   UNL     1      -5.801  -1.702   2.487  0.00  0.00    -0.393 OA
ATOM     28  H   UNL     1      -5.642  -2.583   2.866  0.00  0.00    +0.209 HD
ENDBRANCH  21   1
ENDBRANCH  12  21
ENDBRANCH   9   3
ENDBRANCH   7   9
BRANCH  10  18
ATOM     18  C   UNL     1       1.592  -1.617   0.204  0.00  0.00    +0.105 C 
BRANCH  18  23
ATOM      2  O   UNL     1       3.606  -0.501   1.009  0.00  0.00    -0.425 OA
ATOM      4  N   UNL     1       3.994  -2.133  -0.471  0.00  0.00    -0.112 NA
ATOM      5  N   UNL     1       5.212  -1.593  -0.103  0.00  0.00    -0.112 NA
ATOM     23  C   UNL     1       3.086  -1.466   0.202  0.00  0.00    +0.218 A 
ATOM     24  C   UNL     1       4.937  -0.644   0.762  0.00  0.00    +0.217 A 
BRANCH  24  25
ATOM     25  C   UNL     1       5.846   0.257   1.481  0.00  0.00    +0.097 C 
BRANCH  25  26
ATOM     26  C   UNL     1       5.884   1.680   0.883  0.00  0.00    +0.006 C 
ATOM     27  C   UNL     1       6.382   1.701  -0.553  0.00  0.00    +0.004 C 
ENDBRANCH  25  26
ENDBRANCH  24  25
ENDBRANCH  18  23
ENDBRANCH  10  18
TORSDOF 9
