REMARK  Name = 45783499
REMARK  9 active torsions:
REMARK  status: ('A' for Active; 'I' for Inactive)
REMARK    1  A    between atoms: O_2  and  C_26
REMARK    2  A    between atoms: O_2  and  C_27
REMARK    3  A    between atoms: N_3  and  C_14
REMARK    4  A    between atoms: N_9  and  C_24
REMARK    5  A    between atoms: N_9  and  C_25
REMARK    6  A    between atoms: C_10  and  C_15
REMARK    7  A    between atoms: C_14  and  C_16
REMARK    8  A    between atoms: C_17  and  C_19
REMARK    9  A    between atoms: C_25  and  C_26
REMARK                            x       y       z     vdW  Elec       q    Type
REMARK                         _______ _______ _______ _____ _____    ______ ____
ROOT
ATOM      1  O   UNL     1      -2.349   0.303  -2.014  0.00  0.00    -0.336 OA
ATOM      4  N   UNL     1      -1.326   0.986  -0.142  0.00  0.00    -0.190 NA
ATOM      7  N   UNL     1      -0.982   0.079  -2.214  0.00  0.00    -0.056 NA
ATOM     15  C   UNL     1      -2.465   0.838  -0.770  0.00  0.00    +0.245 A 
ATOM     17  C   UNL     1      -0.445   0.506  -1.067  0.00  0.00    +0.204 A 
ENDROOT
BRANCH  17  19
ATOM      8  N   UNL     1       3.189  -0.083  -1.590  0.00  0.00    -0.240 NA
ATOM     19  C   UNL     1       0.967   0.469  -0.815  0.00  0.00    +0.041 A 
ATOM     21  C   UNL     1       1.492   0.924   0.390  0.00  0.00    +0.016 A 
ATOM     22  C   UNL     1       1.850  -0.021  -1.764  0.00  0.00    +0.124 A 
ATOM     23  C   UNL     1       2.865   0.875   0.606  0.00  0.00    +0.044 A 
ATOM     24  C   UNL     1       3.663   0.367  -0.406  0.00  0.00    +0.119 A 
BRANCH  24   9
ATOM      9  N   UNL     1       5.059   0.326  -0.172  0.00  0.00    -0.327 N 
ATOM     29  H   UNL     1       5.632  -0.051  -0.918  0.00  0.00    +0.148 HD
BRANCH   9  25
ATOM     25  C   UNL     1       5.650   0.780   1.045  0.00  0.00    +0.131 C 
BRANCH  25  26
ATOM     26  C   UNL     1       7.161   0.636   0.975  0.00  0.00    +0.178 C 
BRANCH  26   2
ATOM      2  O   UNL     1       7.499  -0.735   0.809  0.00  0.00    -0.381 OA
ATOM     27  C   UNL     1       8.906  -0.921   0.744  0.00  0.00    +0.194 C 
ENDBRANCH  26   2
ENDBRANCH  25  26
ENDBRANCH   9  25
ENDBRANCH  24   9
ENDBRANCH  17  19
BRANCH  15  10
ATOM      3  N   UNL     1      -4.230   0.490   0.949  0.00  0.00    -0.284 NA
ATOM     10  C   UNL     1      -3.867   1.175  -0.308  0.00  0.00    +0.146 C 
ATOM     11  C   UNL     1      -4.048   2.674  -0.003  0.00  0.00    +0.030 C 
ATOM     12  C   UNL     1      -4.573   2.728   1.425  0.00  0.00    +0.017 C 
ATOM     13  C   UNL     1      -5.189   1.359   1.631  0.00  0.00    +0.085 C 
BRANCH   3  14
ATOM     14  C   UNL     1      -4.759  -0.852   0.740  0.00  0.00    +0.159 C 
BRANCH  14  16
ATOM      5  N   UNL     1      -2.673  -2.063   1.417  0.00  0.00    -0.347 N 
ATOM      6  N   UNL     1      -3.513  -2.618  -0.562  0.00  0.00    -0.239 NA
ATOM     16  C   UNL     1      -3.663  -1.855   0.497  0.00  0.00    +0.121 A 
ATOM     18  C   UNL     1      -1.839  -3.021   0.911  0.00  0.00    +0.104 A 
ATOM     20  C   UNL     1      -2.379  -3.348  -0.310  0.00  0.00    +0.130 A 
ATOM     28  H   UNL     1      -2.573  -1.593   2.307  0.00  0.00    +0.167 HD
ENDBRANCH  14  16
ENDBRANCH   3  14
ENDBRANCH  15  10
TORSDOF 8
