REMARK  Name = 75536523
REMARK  12 active torsions:
REMARK  status: ('A' for Active; 'I' for Inactive)
REMARK    1  A    between atoms: O_2  and  C_8
REMARK    2  A    between atoms: O_4  and  C_20
REMARK    3  A    between atoms: N_5  and  C_7
REMARK    4  A    between atoms: N_5  and  C_13
REMARK    5  A    between atoms: N_6  and  C_11
REMARK    6  A    between atoms: C_9  and  C_11
REMARK    7  A    between atoms: C_12  and  C_14
REMARK    8  A    between atoms: C_12  and  C_16
REMARK    9  A    between atoms: C_12  and  C_17
REMARK   10  A    between atoms: C_12  and  C_18
REMARK   11  A    between atoms: C_13  and  C_19
REMARK   12  A    between atoms: C_14  and  C_15
REMARK                            x       y       z     vdW  Elec       q    Type
REMARK                         _______ _______ _______ _____ _____    ______ ____
ROOT
ATOM      1  O   UNL     1       1.314   0.126   0.075  0.00  0.00    -0.371 OA
ATOM      7  C   UNL     1      -0.870  -0.722   0.467  0.00  0.00    +0.111 C 
ATOM      8  C   UNL     1      -0.067  -1.757  -0.300  0.00  0.00    +0.164 C 
ATOM      9  C   UNL     1       1.356  -1.309   0.005  0.00  0.00    +0.165 C 
ATOM     10  C   UNL     1      -0.057   0.537   0.212  0.00  0.00    +0.181 C 
ENDROOT
BRANCH   8   2
ATOM      2  O   UNL     1      -0.312  -3.077   0.146  0.00  0.00    -0.388 OA
ATOM     27  H   UNL     1      -0.124  -3.117   1.099  0.00  0.00    +0.210 HD
ENDBRANCH   8   2
BRANCH   7   5
ATOM      5  N   UNL     1      -2.249  -0.605   0.021  0.00  0.00    -0.305 NA
ATOM     25  H   UNL     1      -2.643  -1.540  -0.089  0.00  0.00    +0.123 HD
BRANCH   5  13
ATOM     13  C   UNL     1      -3.052   0.136   0.986  0.00  0.00    +0.120 C 
BRANCH  13  19
ATOM     19  C   UNL     1      -4.480   0.281   0.533  0.00  0.00    +0.008 A 
ATOM     20  C   UNL     1      -4.824   1.202  -0.456  0.00  0.00    +0.121 A 
ATOM     21  C   UNL     1      -5.464  -0.518   1.114  0.00  0.00    +0.008 A 
ATOM     22  C   UNL     1      -6.152   1.324  -0.865  0.00  0.00    +0.046 A 
ATOM     23  C   UNL     1      -6.793  -0.396   0.706  0.00  0.00    +0.001 A 
ATOM     24  C   UNL     1      -7.137   0.525  -0.283  0.00  0.00    +0.004 A 
BRANCH  20   4
ATOM      4  O   UNL     1      -3.875   1.992  -1.034  0.00  0.00    -0.506 OA
ATOM     28  H   UNL     1      -4.299   2.565  -1.696  0.00  0.00    +0.292 HD
ENDBRANCH  20   4
ENDBRANCH  13  19
ENDBRANCH   5  13
ENDBRANCH   7   5
BRANCH   9  11
ATOM     11  C   UNL     1       2.360  -1.743  -1.048  0.00  0.00    +0.138 C 
BRANCH  11   6
ATOM      3  O   UNL     1       3.609   0.756  -1.813  0.00  0.00    -0.276 OA
ATOM      6  N   UNL     1       3.695  -1.294  -0.723  0.00  0.00    -0.313 N 
ATOM     15  C   UNL     1       4.208  -0.077  -1.135  0.00  0.00    +0.214 C 
ATOM     26  H   UNL     1       4.270  -1.910  -0.155  0.00  0.00    +0.149 HD
BRANCH  15  14
ATOM     14  C   UNL     1       5.636   0.155  -0.669  0.00  0.00    +0.102 C 
BRANCH  14  12
ATOM     12  C   UNL     1       5.763   0.906   0.677  0.00  0.00    -0.029 C 
ATOM     16  C   UNL     1       5.042   0.158   1.810  0.00  0.00    +0.011 C 
ATOM     17  C   UNL     1       7.239   1.108   1.062  0.00  0.00    +0.011 C 
ATOM     18  C   UNL     1       5.109   2.292   0.514  0.00  0.00    +0.011 C 
ENDBRANCH  14  12
ENDBRANCH  15  14
ENDBRANCH  11   6
ENDBRANCH   9  11
TORSDOF 9
