REMARK  Name = 38028057
REMARK  12 active torsions:
REMARK  status: ('A' for Active; 'I' for Inactive)
REMARK    1  A    between atoms: S_1  and  N_7
REMARK    2  A    between atoms: S_1  and  C_27
REMARK    3  A    between atoms: N_7  and  C_17
REMARK    4  A    between atoms: N_9  and  C_32
REMARK    5  A    between atoms: C_10  and  C_14
REMARK    6  A    between atoms: C_11  and  C_17
REMARK    7  A    between atoms: C_13  and  C_18
REMARK    8  A    between atoms: C_14  and  C_19
REMARK    9  A    between atoms: C_14  and  C_20
REMARK   10  A    between atoms: C_15  and  C_21
REMARK   11  A    between atoms: C_18  and  C_22
REMARK   12  A    between atoms: C_33  and  C_34
REMARK                            x       y       z     vdW  Elec       q    Type
REMARK                         _______ _______ _______ _____ _____    ______ ____
ROOT
ATOM     10  C   UNL     1      -1.272  -1.746   0.705  0.00  0.00    +0.000 C 
ATOM     11  C   UNL     1      -0.107  -2.049  -0.270  0.00  0.00    +0.030 C 
ATOM     12  C   UNL     1      -2.591  -2.311   0.157  0.00  0.00    +0.012 C 
ATOM     13  C   UNL     1      -2.946  -1.727  -1.224  0.00  0.00    +0.023 C 
ATOM     15  C   UNL     1      -1.759  -1.746  -2.165  0.00  0.00    -0.073 C 
ATOM     16  C   UNL     1      -0.499  -1.904  -1.722  0.00  0.00    -0.023 C 
ATOM     21  C   UNL     1      -2.057  -1.624  -3.633  0.00  0.00    +0.039 C 
ENDROOT
BRANCH  10  14
ATOM     14  C   UNL     1      -1.005  -2.314   2.103  0.00  0.00    -0.013 C 
ATOM     19  C   UNL     1      -1.797  -1.539   3.151  0.00  0.00    +0.007 C 
ATOM     20  C   UNL     1      -1.354  -3.798   2.150  0.00  0.00    +0.007 C 
ENDBRANCH  10  14
BRANCH  11  17
ATOM     17  C   UNL     1       1.106  -1.159   0.023  0.00  0.00    +0.113 C 
BRANCH  17   7
ATOM      7  N   UNL     1       0.753   0.242  -0.258  0.00  0.00    -0.189 NA
ATOM     35  H   UNL     1       0.450   0.450  -1.217  0.00  0.00    +0.148 HD
BRANCH   7   1
ATOM      1  S   UNL     1       1.491   1.504   0.617  0.00  0.00    +0.058 S 
ATOM      4  O   UNL     1       1.318   1.266   2.038  0.00  0.00    -0.153 OA
ATOM      5  O   UNL     1       1.102   2.775   0.038  0.00  0.00    -0.153 OA
BRANCH   1  27
ATOM     27  C   UNL     1       3.198   1.260   0.228  0.00  0.00    +0.105 A 
ATOM     28  C   UNL     1       3.985   0.434   1.031  0.00  0.00    +0.030 A 
ATOM     29  C   UNL     1       3.759   1.894  -0.881  0.00  0.00    +0.030 A 
ATOM     30  C   UNL     1       5.332   0.242   0.725  0.00  0.00    +0.025 A 
ATOM     31  C   UNL     1       5.106   1.702  -1.187  0.00  0.00    +0.025 A 
ATOM     32  C   UNL     1       5.893   0.876  -0.385  0.00  0.00    +0.033 A 
BRANCH  32   9
ATOM      6  O   UNL     1       7.994  -0.781   0.995  0.00  0.00    -0.276 OA
ATOM      9  N   UNL     1       7.240   0.683  -0.692  0.00  0.00    -0.286 N 
ATOM     33  C   UNL     1       8.179  -0.103  -0.010  0.00  0.00    +0.214 C 
ATOM     34  C   UNL     1       9.536  -0.046  -0.665  0.00  0.00    +0.109 C 
ATOM     36  H   UNL     1       7.573   1.179  -1.516  0.00  0.00    +0.155 HD
ENDBRANCH  32   9
ENDBRANCH   1  27
ENDBRANCH   7   1
ENDBRANCH  17   7
ENDBRANCH  11  17
BRANCH  13  18
ATOM     18  C   UNL     1      -3.521  -0.313  -1.093  0.00  0.00    +0.103 C 
BRANCH  18  22
ATOM      2  O   UNL     1      -5.441  -1.479  -0.335  0.00  0.00    -0.276 OA
ATOM      3  O   UNL     1      -6.681   3.198   0.691  0.00  0.00    -0.377 OA
ATOM      8  N   UNL     1      -5.589   0.837  -0.394  0.00  0.00    -0.297 N 
ATOM     22  C   UNL     1      -4.935  -0.380  -0.575  0.00  0.00    +0.216 C 
ATOM     23  C   UNL     1      -6.962   0.863   0.110  0.00  0.00    +0.136 C 
ATOM     24  C   UNL     1      -5.067   2.151  -0.787  0.00  0.00    +0.136 C 
ATOM     25  C   UNL     1      -7.111   1.927   1.188  0.00  0.00    +0.179 C 
ATOM     26  C   UNL     1      -5.299   3.165   0.326  0.00  0.00    +0.179 C 
ENDBRANCH  18  22
ENDBRANCH  13  18
TORSDOF 8
