REMARK  Name = 75368489
REMARK  4 active torsions:
REMARK  status: ('A' for Active; 'I' for Inactive)
REMARK    1  A    between atoms: O_4  and  C_21
REMARK    2  A    between atoms: O_4  and  C_26
REMARK    3  A    between atoms: N_5  and  C_10
REMARK    4  A    between atoms: C_19  and  C_20
REMARK                            x       y       z     vdW  Elec       q    Type
REMARK                         _______ _______ _______ _____ _____    ______ ____
ROOT
ATOM      2  O   UNL     1      -3.068   2.692   0.491  0.00  0.00    -0.252 OA
ATOM      3  O   UNL     1       3.852   2.150  -0.303  0.00  0.00    -0.270 OA
ATOM      5  N   UNL     1      -2.756   0.383   0.124  0.00  0.00    -0.280 N 
ATOM      6  N   UNL     1      -0.946   1.706   0.279  0.00  0.00    -0.278 N 
ATOM      7  N   UNL     1       1.663   1.398  -0.626  0.00  0.00    -0.294 N 
ATOM      8  C   UNL     1      -0.409   0.359   0.176  0.00  0.00    +0.112 C 
ATOM      9  C   UNL     1      -1.632  -0.497  -0.142  0.00  0.00    +0.133 C 
ATOM     11  C   UNL     1       0.695   0.312  -0.874  0.00  0.00    +0.132 C 
ATOM     12  C   UNL     1      -0.044   2.835   0.426  0.00  0.00    +0.128 C 
ATOM     13  C   UNL     1      -2.347   1.717   0.324  0.00  0.00    +0.305 C 
ATOM     14  C   UNL     1       1.078   2.746  -0.607  0.00  0.00    +0.127 C 
ATOM     19  C   UNL     1       3.041   1.240  -0.466  0.00  0.00    +0.250 C 
ENDROOT
BRANCH   5  10
ATOM      1  O   UNL     1      -5.978  -2.251  -0.276  0.00  0.00    -0.380 OA
ATOM     10  C   UNL     1      -4.121  -0.077   0.048  0.00  0.00    +0.082 C 
ATOM     15  C   UNL     1      -4.415  -0.709  -1.313  0.00  0.00    +0.050 C 
ATOM     16  C   UNL     1      -4.426  -1.069   1.171  0.00  0.00    +0.050 C 
ATOM     17  C   UNL     1      -5.815  -1.308  -1.335  0.00  0.00    +0.161 C 
ATOM     18  C   UNL     1      -5.825  -1.650   1.009  0.00  0.00    +0.161 C 
ENDBRANCH   5  10
BRANCH  19  20
ATOM     20  C   UNL     1       3.586  -0.124  -0.477  0.00  0.00    +0.078 A 
ATOM     21  C   UNL     1       3.707  -0.857   0.703  0.00  0.00    +0.132 A 
ATOM     22  C   UNL     1       3.987  -0.684  -1.690  0.00  0.00    +0.017 A 
ATOM     23  C   UNL     1       4.229  -2.150   0.671  0.00  0.00    +0.046 A 
ATOM     24  C   UNL     1       4.509  -1.977  -1.722  0.00  0.00    +0.001 A 
ATOM     25  C   UNL     1       4.630  -2.710  -0.542  0.00  0.00    +0.004 A 
BRANCH  21   4
ATOM      4  O   UNL     1       3.323  -0.326   1.899  0.00  0.00    -0.494 OA
ATOM     26  C   UNL     1       3.483  -1.148   3.053  0.00  0.00    +0.277 C 
ENDBRANCH  21   4
ENDBRANCH  19  20
TORSDOF 3
