REMARK  Name = 25390041
REMARK  8 active torsions:
REMARK  status: ('A' for Active; 'I' for Inactive)
REMARK    1  A    between atoms: N_3  and  C_9
REMARK    2  A    between atoms: N_4  and  C_18
REMARK    3  A    between atoms: N_6  and  C_19
REMARK    4  A    between atoms: C_7  and  C_10
REMARK    5  A    between atoms: C_13  and  C_15
REMARK    6  A    between atoms: C_14  and  C_16
REMARK    7  A    between atoms: C_19  and  C_22
REMARK    8  A    between atoms: C_19  and  C_23
REMARK                            x       y       z     vdW  Elec       q    Type
REMARK                         _______ _______ _______ _____ _____    ______ ____
ROOT
ATOM      7  C   UNL     1       0.805  -0.953   0.557  0.00  0.00    +0.047 C 
ATOM      8  C   UNL     1       1.537   0.195  -0.170  0.00  0.00    +0.039 C 
ATOM      9  C   UNL     1       2.572   0.729   0.827  0.00  0.00    +0.098 C 
ATOM     11  C   UNL     1       1.064  -0.637   2.001  0.00  0.00    -0.021 C 
ATOM     12  C   UNL     1       2.030   0.277   2.143  0.00  0.00    -0.009 C 
ENDROOT
BRANCH   7  10
ATOM      4  N   UNL     1      -2.777  -0.664  -0.153  0.00  0.00    -0.236 N 
ATOM      5  N   UNL     1      -2.624  -1.928  -0.584  0.00  0.00    -0.171 NA
ATOM     10  C   UNL     1      -0.656  -1.061   0.185  0.00  0.00    +0.003 A 
ATOM     13  C   UNL     1      -1.628  -0.099   0.317  0.00  0.00    +0.046 A 
ATOM     14  C   UNL     1      -1.326  -2.165  -0.375  0.00  0.00    +0.064 A 
ATOM     15  C   UNL     1      -1.558   1.280   0.839  0.00  0.00    +0.066 C 
ATOM     16  C   UNL     1      -0.763  -3.479  -0.731  0.00  0.00    +0.068 C 
BRANCH   4  18
ATOM      1  F   UNL     1      -7.748   1.733  -0.403  0.00  0.00    -0.205 F 
ATOM     18  C   UNL     1      -4.032  -0.059  -0.216  0.00  0.00    +0.066 A 
ATOM     20  C   UNL     1      -4.210   1.102  -0.970  0.00  0.00    +0.030 A 
ATOM     21  C   UNL     1      -5.110  -0.614   0.473  0.00  0.00    +0.030 A 
ATOM     24  C   UNL     1      -5.465   1.707  -1.033  0.00  0.00    +0.040 A 
ATOM     25  C   UNL     1      -6.365  -0.009   0.410  0.00  0.00    +0.040 A 
ATOM     26  C   UNL     1      -6.543   1.152  -0.343  0.00  0.00    +0.124 A 
ENDBRANCH   4  18
ENDBRANCH   7  10
BRANCH   9   3
ATOM      2  O   UNL     1       4.730   1.816  -0.751  0.00  0.00    -0.253 OA
ATOM      3  N   UNL     1       3.878   0.158   0.633  0.00  0.00    -0.293 N 
ATOM      6  N   UNL     1       6.033  -0.012  -0.167  0.00  0.00    -0.297 N 
ATOM     17  C   UNL     1       4.869   0.752  -0.151  0.00  0.00    +0.300 C 
ATOM     27  H   UNL     1       4.082  -0.749   1.046  0.00  0.00    +0.151 HD
ATOM     28  H   UNL     1       6.077  -0.838   0.423  0.00  0.00    +0.150 HD
BRANCH   6  19
ATOM     19  C   UNL     1       7.214   0.376  -0.902  0.00  0.00    +0.068 C 
ATOM     22  C   UNL     1       7.963  -0.858  -1.390  0.00  0.00    +0.027 C 
ATOM     23  C   UNL     1       8.109   1.263  -0.047  0.00  0.00    +0.027 C 
ENDBRANCH   6  19
ENDBRANCH   9   3
TORSDOF 4
