REMARK  Name = 75368527
REMARK  6 active torsions:
REMARK  status: ('A' for Active; 'I' for Inactive)
REMARK    1  A    between atoms: O_2  and  C_16
REMARK    2  A    between atoms: O_2  and  C_19
REMARK    3  A    between atoms: N_5  and  C_14
REMARK    4  A    between atoms: N_7  and  C_17
REMARK    5  A    between atoms: C_14  and  C_16
REMARK    6  A    between atoms: C_17  and  C_18
REMARK                            x       y       z     vdW  Elec       q    Type
REMARK                         _______ _______ _______ _____ _____    ______ ____
ROOT
ATOM      1  O   UNL     1       4.651  -1.134   0.979  0.00  0.00    -0.252 OA
ATOM      3  O   UNL     1      -1.817  -3.149  -0.405  0.00  0.00    -0.253 OA
ATOM      4  N   UNL     1       2.329  -0.995   0.649  0.00  0.00    -0.278 N 
ATOM      5  N   UNL     1       3.488   0.915   0.890  0.00  0.00    -0.281 N 
ATOM      6  N   UNL     1      -0.151  -1.540  -0.486  0.00  0.00    -0.282 N 
ATOM      7  N   UNL     1      -2.429  -0.943  -0.282  0.00  0.00    -0.295 N 
ATOM      8  C   UNL     1       1.317   0.049   0.666  0.00  0.00    +0.112 C 
ATOM      9  C   UNL     1       2.128   1.341   0.606  0.00  0.00    +0.133 C 
ATOM     10  C   UNL     1       0.339  -0.146  -0.488  0.00  0.00    +0.133 C 
ATOM     11  C   UNL     1       1.931  -2.387   0.530  0.00  0.00    +0.128 C 
ATOM     12  C   UNL     1       0.916  -2.547  -0.601  0.00  0.00    +0.128 C 
ATOM     13  C   UNL     1       3.619  -0.487   0.859  0.00  0.00    +0.305 C 
ATOM     15  C   UNL     1      -1.488  -1.958  -0.394  0.00  0.00    +0.303 C 
ATOM     25  H   UNL     1      -2.150   0.027  -0.245  0.00  0.00    +0.151 HD
ENDROOT
BRANCH   5  14
ATOM     14  C   UNL     1       4.572   1.862   1.036  0.00  0.00    +0.137 C 
BRANCH  14  16
ATOM     16  C   UNL     1       5.107   2.308  -0.312  0.00  0.00    +0.178 C 
BRANCH  16   2
ATOM      2  O   UNL     1       5.622   1.183  -1.012  0.00  0.00    -0.381 OA
ATOM     19  C   UNL     1       6.141   1.551  -2.282  0.00  0.00    +0.194 C 
ENDBRANCH  16   2
ENDBRANCH  14  16
ENDBRANCH   5  14
BRANCH   7  17
ATOM     17  C   UNL     1      -3.845  -1.216  -0.173  0.00  0.00    +0.141 C 
BRANCH  17  18
ATOM     18  C   UNL     1      -4.654   0.045  -0.064  0.00  0.00    -0.030 A 
ATOM     20  C   UNL     1      -4.929   0.591   1.190  0.00  0.00    +0.005 A 
ATOM     21  C   UNL     1      -5.129   0.669  -1.217  0.00  0.00    +0.005 A 
ATOM     22  C   UNL     1      -5.680   1.762   1.290  0.00  0.00    +0.000 A 
ATOM     23  C   UNL     1      -5.881   1.840  -1.116  0.00  0.00    +0.000 A 
ATOM     24  C   UNL     1      -6.156   2.387   0.137  0.00  0.00    +0.000 A 
ENDBRANCH  17  18
ENDBRANCH   7  17
TORSDOF 5
