REMARK  Name = 75368550
REMARK  3 active torsions:
REMARK  status: ('A' for Active; 'I' for Inactive)
REMARK    1  A    between atoms: N_3  and  C_11
REMARK    2  A    between atoms: N_5  and  C_19
REMARK    3  A    between atoms: C_11  and  C_13
REMARK                            x       y       z     vdW  Elec       q    Type
REMARK                         _______ _______ _______ _____ _____    ______ ____
ROOT
ATOM      1  O   UNL     1      -5.793   0.764   0.207  0.00  0.00    -0.253 OA
ATOM      2  N   UNL     1      -3.461   0.445   0.189  0.00  0.00    -0.279 N 
ATOM      3  N   UNL     1      -0.814   0.444  -0.759  0.00  0.00    -0.295 NA
ATOM      4  N   UNL     1      -4.768  -1.196   0.993  0.00  0.00    -0.297 N 
ATOM      6  C   UNL     1      -2.534  -0.543   0.699  0.00  0.00    +0.109 C 
ATOM      7  C   UNL     1      -1.440  -0.824  -0.330  0.00  0.00    +0.109 C 
ATOM      8  C   UNL     1      -2.947   1.667  -0.392  0.00  0.00    +0.125 C 
ATOM      9  C   UNL     1      -1.813   1.344  -1.369  0.00  0.00    +0.104 C 
ATOM     10  C   UNL     1      -3.428  -1.736   1.029  0.00  0.00    +0.129 C 
ATOM     12  C   UNL     1      -4.793   0.096   0.435  0.00  0.00    +0.303 C 
ATOM     22  H   UNL     1      -5.601  -1.713   1.257  0.00  0.00    +0.150 HD
ENDROOT
BRANCH   3  11
ATOM     11  C   UNL     1       0.276   0.181  -1.699  0.00  0.00    +0.121 C 
BRANCH  11  13
ATOM      5  N   UNL     1       3.115  -1.642  -0.231  0.00  0.00    -0.349 N 
ATOM     13  C   UNL     1       1.515  -0.308  -0.998  0.00  0.00    -0.008 A 
ATOM     14  C   UNL     1       2.435   0.483  -0.254  0.00  0.00    +0.004 A 
ATOM     15  C   UNL     1       1.960  -1.609  -0.965  0.00  0.00    +0.091 A 
ATOM     16  C   UNL     1       3.429  -0.378   0.217  0.00  0.00    +0.049 A 
ATOM     17  C   UNL     1       2.518   1.853   0.066  0.00  0.00    +0.010 A 
ATOM     18  C   UNL     1       4.505   0.064   0.994  0.00  0.00    +0.026 A 
ATOM     19  C   UNL     1       3.883  -2.840   0.029  0.00  0.00    +0.149 C 
ATOM     20  C   UNL     1       3.589   2.309   0.842  0.00  0.00    +0.001 A 
ATOM     21  C   UNL     1       4.566   1.427   1.298  0.00  0.00    +0.002 A 
ENDBRANCH  11  13
ENDBRANCH   3  11
TORSDOF 2
