REMARK  Name = 11911871
REMARK  9 active torsions:
REMARK  status: ('A' for Active; 'I' for Inactive)
REMARK    1  A    between atoms: O_4  and  C_28
REMARK    2  A    between atoms: N_6  and  C_13
REMARK    3  A    between atoms: N_7  and  C_14
REMARK    4  A    between atoms: N_10  and  C_34
REMARK    5  A    between atoms: N_10  and  C_35
REMARK    6  A    between atoms: N_10  and  C_36
REMARK    7  A    between atoms: C_17  and  C_19
REMARK    8  A    between atoms: C_20  and  C_28
REMARK    9  A    between atoms: C_21  and  C_25
REMARK                            x       y       z     vdW  Elec       q    Type
REMARK                         _______ _______ _______ _____ _____    ______ ____
ROOT
ATOM      1  O   UNL     1      -0.419   0.552   2.344  0.00  0.00    -0.370 OA
ATOM      2  O   UNL     1      -1.882   3.240   1.737  0.00  0.00    -0.370 OA
ATOM     11  C   UNL     1      -1.955   1.927   1.157  0.00  0.00    +0.171 C 
ATOM     12  C   UNL     1      -0.551   1.354   1.158  0.00  0.00    +0.171 C 
ATOM     13  C   UNL     1      -2.732   0.997   2.060  0.00  0.00    +0.130 C 
ATOM     14  C   UNL     1       0.343   2.568   1.245  0.00  0.00    +0.130 C 
ATOM     15  C   UNL     1      -1.671   0.537   3.044  0.00  0.00    +0.185 C 
ATOM     16  C   UNL     1      -0.510   3.556   2.020  0.00  0.00    +0.185 C 
ENDROOT
BRANCH  14   7
ATOM      7  N   UNL     1       0.618   3.077  -0.081  0.00  0.00    -0.306 N 
ATOM      8  N   UNL     1       2.412   1.597  -0.396  0.00  0.00    -0.214 NA
ATOM      9  N   UNL     1       1.783   3.164  -2.116  0.00  0.00    -0.223 NA
ATOM     18  C   UNL     1       1.634   2.598  -0.888  0.00  0.00    +0.216 A 
ATOM     21  C   UNL     1       3.393   1.155  -1.210  0.00  0.00    +0.076 A 
ATOM     23  C   UNL     1       2.784   2.674  -2.877  0.00  0.00    +0.116 A 
ATOM     24  C   UNL     1       3.628   1.660  -2.472  0.00  0.00    +0.048 A 
ATOM     38  H   UNL     1       0.012   3.786  -0.478  0.00  0.00    +0.149 HD
BRANCH  21  25
ATOM     25  C   UNL     1       4.205   0.091  -0.669  0.00  0.00    +0.001 A 
ATOM     30  C   UNL     1       5.542  -0.035  -1.053  0.00  0.00    +0.012 A 
ATOM     31  C   UNL     1       3.656  -0.816   0.240  0.00  0.00    +0.012 A 
ATOM     32  C   UNL     1       6.326  -1.064  -0.531  0.00  0.00    +0.024 A 
ATOM     33  C   UNL     1       4.440  -1.845   0.762  0.00  0.00    +0.024 A 
ATOM     34  C   UNL     1       5.775  -1.969   0.377  0.00  0.00    +0.029 A 
BRANCH  34  10
ATOM     10  N   UNL     1       6.568  -3.009   0.905  0.00  0.00    -0.336 N 
ATOM     35  C   UNL     1       6.315  -3.520   2.237  0.00  0.00    +0.129 C 
ATOM     36  C   UNL     1       7.655  -3.570   0.128  0.00  0.00    +0.129 C 
ENDBRANCH  34  10
ENDBRANCH  21  25
ENDBRANCH  14   7
BRANCH  13   6
ATOM      3  O   UNL     1      -5.368   0.809   0.936  0.00  0.00    -0.270 OA
ATOM      6  N   UNL     1      -3.276  -0.116   1.320  0.00  0.00    -0.304 N 
ATOM     17  C   UNL     1      -4.568  -0.115   0.813  0.00  0.00    +0.245 C 
ATOM     37  H   UNL     1      -2.676  -0.915   1.135  0.00  0.00    +0.149 HD
BRANCH  17  19
ATOM     19  C   UNL     1      -4.987  -1.347   0.097  0.00  0.00    +0.051 A 
ATOM     20  C   UNL     1      -4.780  -1.466  -1.262  0.00  0.00    +0.071 A 
ATOM     22  C   UNL     1      -5.581  -2.349   0.839  0.00  0.00    +0.014 A 
ATOM     26  C   UNL     1      -5.183  -2.635  -1.907  0.00  0.00    +0.016 A 
ATOM     27  C   UNL     1      -5.984  -3.519   0.194  0.00  0.00    +0.001 A 
ATOM     29  C   UNL     1      -5.785  -3.662  -1.179  0.00  0.00    +0.001 A 
BRANCH  20  28
ATOM      5  O   UNL     1      -4.218   0.795  -1.805  0.00  0.00    -0.245 OA
ATOM     28  C   UNL     1      -4.155  -0.412  -2.050  0.00  0.00    +0.338 C 
BRANCH  28   4
ATOM      4  O   UNL     1      -3.469  -0.902  -3.118  0.00  0.00    -0.477 OA
ATOM     39  H   UNL     1      -3.051  -0.186  -3.643  0.00  0.00    +0.295 HD
ENDBRANCH  28   4
ENDBRANCH  20  28
ENDBRANCH  17  19
ENDBRANCH  13   6
TORSDOF 7
