REMARK  Name = 11887504
REMARK  4 active torsions:
REMARK  status: ('A' for Active; 'I' for Inactive)
REMARK    1  A    between atoms: N_7  and  C_21
REMARK    2  A    between atoms: N_8  and  C_19
REMARK    3  A    between atoms: C_22  and  C_23
REMARK    4  A    between atoms: C_23  and  C_26
REMARK                            x       y       z     vdW  Elec       q    Type
REMARK                         _______ _______ _______ _____ _____    ______ ____
ROOT
ATOM      2  O   UNL     1      -0.546   2.582   1.851  0.00  0.00    -0.266 OA
ATOM      3  O   UNL     1      -2.893  -2.085   1.847  0.00  0.00    -0.252 OA
ATOM      5  N   UNL     1      -3.939  -0.750   0.274  0.00  0.00    -0.284 N 
ATOM      6  N   UNL     1      -2.253   1.957   0.384  0.00  0.00    -0.310 N 
ATOM      7  N   UNL     1      -2.351  -2.363  -0.390  0.00  0.00    -0.269 N 
ATOM      9  C   UNL     1      -4.643   1.478   1.163  0.00  0.00    +0.027 C 
ATOM     10  C   UNL     1      -4.067   1.243  -1.214  0.00  0.00    +0.054 C 
ATOM     11  C   UNL     1      -5.041   1.905  -0.244  0.00  0.00    +0.018 C 
ATOM     12  C   UNL     1      -4.721  -0.052   1.300  0.00  0.00    +0.114 C 
ATOM     13  C   UNL     1      -3.241   2.015   1.470  0.00  0.00    +0.130 C 
ATOM     14  C   UNL     1      -4.183  -0.292  -1.106  0.00  0.00    +0.119 C 
ATOM     15  C   UNL     1      -2.638   1.668  -0.929  0.00  0.00    +0.027 A 
ATOM     16  C   UNL     1      -1.739   1.734  -1.926  0.00  0.00    +0.024 A 
ATOM     17  C   UNL     1      -0.928   2.305   0.714  0.00  0.00    +0.273 A 
ATOM     18  C   UNL     1      -3.036  -1.762   0.665  0.00  0.00    +0.306 C 
ATOM     19  C   UNL     1       0.048   2.341  -0.421  0.00  0.00    +0.099 A 
ATOM     20  C   UNL     1      -0.370   2.076  -1.664  0.00  0.00    +0.030 A 
ATOM     35  H   UNL     1      -2.795  -2.386  -1.301  0.00  0.00    +0.156 HD
ENDROOT
BRANCH   7  21
ATOM      1  F   UNL     1       2.571  -4.898  -0.174  0.00  0.00    -0.205 F 
ATOM     21  C   UNL     1      -1.092  -3.011  -0.335  0.00  0.00    +0.035 A 
ATOM     24  C   UNL     1      -0.590  -3.646  -1.467  0.00  0.00    +0.026 A 
ATOM     25  C   UNL     1      -0.364  -3.009   0.852  0.00  0.00    +0.026 A 
ATOM     27  C   UNL     1       0.649  -4.285  -1.413  0.00  0.00    +0.040 A 
ATOM     28  C   UNL     1       0.875  -3.648   0.907  0.00  0.00    +0.040 A 
ATOM     29  C   UNL     1       1.381  -4.285  -0.226  0.00  0.00    +0.124 A 
ENDBRANCH   7  21
BRANCH  19   8
ATOM      4  O   UNL     1       2.361   1.446  -1.850  0.00  0.00    -0.275 OA
ATOM      8  N   UNL     1       1.345   2.658  -0.141  0.00  0.00    -0.281 N 
ATOM     22  C   UNL     1       2.429   2.189  -0.874  0.00  0.00    +0.222 C 
ATOM     36  H   UNL     1       1.521   3.067   0.773  0.00  0.00    +0.155 HD
BRANCH  22  23
ATOM     23  C   UNL     1       3.739   2.716  -0.318  0.00  0.00    +0.131 C 
BRANCH  23  26
ATOM     26  C   UNL     1       4.678   1.628   0.131  0.00  0.00    -0.039 A 
ATOM     30  C   UNL     1       4.618   1.173   1.441  0.00  0.00    +0.004 A 
ATOM     31  C   UNL     1       5.588   1.096  -0.771  0.00  0.00    +0.004 A 
ATOM     32  C   UNL     1       5.488   0.165   1.857  0.00  0.00    +0.000 A 
ATOM     33  C   UNL     1       6.457   0.088  -0.354  0.00  0.00    +0.000 A 
ATOM     34  C   UNL     1       6.407  -0.378   0.960  0.00  0.00    +0.000 A 
ENDBRANCH  23  26
ENDBRANCH  22  23
ENDBRANCH  19   8
TORSDOF 4
