REMARK  Name = 75536048
REMARK  10 active torsions:
REMARK  status: ('A' for Active; 'I' for Inactive)
REMARK    1  A    between atoms: O_1  and  C_14
REMARK    2  A    between atoms: N_3  and  C_9
REMARK    3  A    between atoms: N_3  and  C_19
REMARK    4  A    between atoms: N_4  and  C_28
REMARK    5  A    between atoms: C_6  and  C_13
REMARK    6  A    between atoms: C_8  and  C_16
REMARK    7  A    between atoms: C_8  and  C_17
REMARK    8  A    between atoms: C_13  and  C_18
REMARK    9  A    between atoms: C_14  and  C_20
REMARK   10  A    between atoms: C_18  and  C_23
REMARK                            x       y       z     vdW  Elec       q    Type
REMARK                         _______ _______ _______ _____ _____    ______ ____
ROOT
ATOM      6  C   UNL     1      -0.065  -0.427  -0.036  0.00  0.00    -0.010 C 
ATOM      7  C   UNL     1      -0.487  -1.590   0.924  0.00  0.00    +0.005 C 
ATOM      8  C   UNL     1       0.148  -1.221   2.323  0.00  0.00    -0.030 C 
ATOM      9  C   UNL     1       1.374  -0.161   0.465  0.00  0.00    +0.061 C 
ATOM     10  C   UNL     1       1.241  -0.166   1.996  0.00  0.00    +0.026 C 
ATOM     11  C   UNL     1      -0.153  -0.784  -1.539  0.00  0.00    +0.011 C 
ATOM     12  C   UNL     1      -0.041  -2.985   0.419  0.00  0.00    +0.039 C 
ATOM     14  C   UNL     1      -0.355  -3.249  -1.054  0.00  0.00    +0.064 C 
ATOM     15  C   UNL     1       0.328  -2.181  -1.909  0.00  0.00    +0.035 C 
ATOM     16  C   UNL     1       0.783  -2.395   3.095  0.00  0.00    +0.011 C 
ATOM     17  C   UNL     1      -0.925  -0.627   3.260  0.00  0.00    +0.011 C 
ATOM     20  C   UNL     1       0.115  -4.647  -1.462  0.00  0.00    +0.041 C 
ENDROOT
BRANCH  14   1
ATOM      1  O   UNL     1      -1.770  -3.191  -1.236  0.00  0.00    -0.389 OA
ATOM     32  H   UNL     1      -2.176  -3.864  -0.663  0.00  0.00    +0.210 HD
ENDBRANCH  14   1
BRANCH   9   3
ATOM      3  N   UNL     1       1.989   1.067  -0.020  0.00  0.00    -0.310 NA
ATOM     31  H   UNL     1       1.761   1.220  -1.000  0.00  0.00    +0.122 HD
BRANCH   3  19
ATOM      4  N   UNL     1       6.112   1.603  -0.902  0.00  0.00    -0.305 NA
ATOM     19  C   UNL     1       3.441   1.023   0.142  0.00  0.00    +0.056 C 
ATOM     21  C   UNL     1       4.090   0.177  -0.958  0.00  0.00    +0.034 C 
ATOM     22  C   UNL     1       4.019   2.440   0.121  0.00  0.00    +0.034 C 
ATOM     24  C   UNL     1       5.616   0.220  -0.854  0.00  0.00    +0.085 C 
ATOM     25  C   UNL     1       5.548   2.409   0.189  0.00  0.00    +0.085 C 
ATOM     28  C   UNL     1       7.574   1.625  -0.853  0.00  0.00    +0.104 C 
ENDBRANCH   3  19
ENDBRANCH   9   3
BRANCH   6  13
ATOM     13  C   UNL     1      -0.968   0.821   0.147  0.00  0.00    +0.018 C 
BRANCH  13  18
ATOM     18  C   UNL     1      -2.414   0.518  -0.178  0.00  0.00    +0.096 C 
BRANCH  18  23
ATOM      2  O   UNL     1      -2.799   2.796   0.401  0.00  0.00    -0.276 OA
ATOM      5  N   UNL     1      -4.630   1.551  -0.258  0.00  0.00    -0.301 N 
ATOM     23  C   UNL     1      -3.287   1.732   0.016  0.00  0.00    +0.216 C 
ATOM     26  C   UNL     1      -5.604   2.623  -0.114  0.00  0.00    +0.108 C 
ATOM     27  C   UNL     1      -5.269   0.322  -0.719  0.00  0.00    +0.108 C 
ATOM     29  C   UNL     1      -6.850   2.102  -0.814  0.00  0.00    +0.020 C 
ATOM     30  C   UNL     1      -6.760   0.598  -0.590  0.00  0.00    +0.020 C 
ENDBRANCH  18  23
ENDBRANCH  13  18
ENDBRANCH   6  13
TORSDOF 6
