REMARK  Name = 75536177
REMARK  13 active torsions:
REMARK  status: ('A' for Active; 'I' for Inactive)
REMARK    1  A    between atoms: O_3  and  C_31
REMARK    2  A    between atoms: N_5  and  C_15
REMARK    3  A    between atoms: C_8  and  C_12
REMARK    4  A    between atoms: C_9  and  C_15
REMARK    5  A    between atoms: C_11  and  C_16
REMARK    6  A    between atoms: C_12  and  C_17
REMARK    7  A    between atoms: C_12  and  C_18
REMARK    8  A    between atoms: C_13  and  C_19
REMARK    9  A    between atoms: C_16  and  C_20
REMARK   10  A    between atoms: C_21  and  C_24
REMARK   11  A    between atoms: C_24  and  C_25
REMARK   12  A    between atoms: C_25  and  C_30
REMARK   13  A    between atoms: C_30  and  C_31
REMARK                            x       y       z     vdW  Elec       q    Type
REMARK                         _______ _______ _______ _____ _____    ______ ____
ROOT
ATOM      8  C   UNL     1       1.607   1.248  -1.111  0.00  0.00    +0.000 C 
ATOM      9  C   UNL     1       2.891   1.964  -0.622  0.00  0.00    +0.032 C 
ATOM     10  C   UNL     1       0.359   2.043  -0.697  0.00  0.00    +0.012 C 
ATOM     11  C   UNL     1       0.265   2.224   0.830  0.00  0.00    +0.022 C 
ATOM     13  C   UNL     1       1.583   2.675   1.426  0.00  0.00    -0.073 C 
ATOM     14  C   UNL     1       2.744   2.563   0.757  0.00  0.00    -0.022 C 
ATOM     19  C   UNL     1       1.530   3.301   2.792  0.00  0.00    +0.039 C 
ENDROOT
BRANCH   8  12
ATOM     12  C   UNL     1       1.612   1.046  -2.630  0.00  0.00    -0.013 C 
ATOM     17  C   UNL     1       0.714  -0.126  -3.014  0.00  0.00    +0.007 C 
ATOM     18  C   UNL     1       1.170   2.322  -3.338  0.00  0.00    +0.007 C 
ENDBRANCH   8  12
BRANCH   9  15
ATOM     15  C   UNL     1       4.095   1.015  -0.641  0.00  0.00    +0.112 C 
BRANCH  15   5
ATOM      2  O   UNL     1       5.140  -1.651  -0.840  0.00  0.00    -0.276 OA
ATOM      5  N   UNL     1       3.924  -0.040   0.308  0.00  0.00    -0.315 N 
ATOM     21  C   UNL     1       4.469  -1.312   0.131  0.00  0.00    +0.213 C 
ATOM     32  H   UNL     1       3.485   0.172   1.199  0.00  0.00    +0.149 HD
BRANCH  21  24
ATOM     24  C   UNL     1       4.115  -2.252   1.271  0.00  0.00    +0.096 C 
BRANCH  24  25
ATOM     25  C   UNL     1       2.612  -2.464   1.448  0.00  0.00    +0.020 C 
BRANCH  25  30
ATOM     30  C   UNL     1       1.956  -3.052   0.197  0.00  0.00    +0.121 C 
BRANCH  30  31
ATOM      4  O   UNL     1      -0.166  -2.963   1.386  0.00  0.00    -0.251 OA
ATOM     31  C   UNL     1       0.469  -3.252   0.382  0.00  0.00    +0.305 C 
BRANCH  31   3
ATOM      3  O   UNL     1      -0.099  -3.801  -0.723  0.00  0.00    -0.481 OA
ATOM     34  H   UNL     1      -1.065  -3.929  -0.612  0.00  0.00    +0.295 HD
ENDBRANCH  31   3
ENDBRANCH  30  31
ENDBRANCH  25  30
ENDBRANCH  24  25
ENDBRANCH  21  24
ENDBRANCH  15   5
ENDBRANCH   9  15
BRANCH  11  16
ATOM     16  C   UNL     1      -0.235   0.944   1.509  0.00  0.00    +0.082 C 
BRANCH  16  20
ATOM      1 CL   UNL     1      -7.599   0.132  -0.269  0.00  0.00    -0.083 Cl
ATOM      6  N   UNL     1      -2.719   1.141   1.297  0.00  0.00    -0.342 N 
ATOM      7  N   UNL     1      -1.770  -0.478   0.107  0.00  0.00    -0.232 NA
ATOM     20  C   UNL     1      -1.559   0.508   0.950  0.00  0.00    +0.109 A 
ATOM     22  C   UNL     1      -3.748   0.523   0.633  0.00  0.00    +0.068 A 
ATOM     23  C   UNL     1      -3.130  -0.484  -0.102  0.00  0.00    +0.089 A 
ATOM     26  C   UNL     1      -5.124   0.752   0.614  0.00  0.00    +0.047 A 
ATOM     27  C   UNL     1      -3.915  -1.323  -0.911  0.00  0.00    +0.031 A 
ATOM     28  C   UNL     1      -5.891  -0.092  -0.196  0.00  0.00    +0.043 A 
ATOM     29  C   UNL     1      -5.300  -1.112  -0.946  0.00  0.00    +0.022 A 
ATOM     33  H   UNL     1      -2.806   1.926   1.929  0.00  0.00    +0.167 HD
ENDBRANCH  16  20
ENDBRANCH  11  16
TORSDOF 10
