REMARK  Name = 44716827
REMARK  12 active torsions:
REMARK  status: ('A' for Active; 'I' for Inactive)
REMARK    1  A    between atoms: S_1  and  N_8
REMARK    2  A    between atoms: S_1  and  C_26
REMARK    3  A    between atoms: N_8  and  C_16
REMARK    4  A    between atoms: N_9  and  C_23
REMARK    5  A    between atoms: N_10  and  C_34
REMARK    6  A    between atoms: N_13  and  C_40
REMARK    7  A    between atoms: C_17  and  C_21
REMARK    8  A    between atoms: C_22  and  C_24
REMARK    9  A    between atoms: C_23  and  C_25
REMARK   10  A    between atoms: C_23  and  C_29
REMARK   11  A    between atoms: C_25  and  C_27
REMARK   12  A    between atoms: C_31  and  C_38
REMARK                            x       y       z     vdW  Elec       q    Type
REMARK                         _______ _______ _______ _____ _____    ______ ____
ROOT
ATOM      3  O   UNL     1      -3.611   3.808   0.225  0.00  0.00    -0.268 OA
ATOM      7  N   UNL     1      -1.770   2.403  -0.145  0.00  0.00    -0.285 N 
ATOM     16  C   UNL     1       1.037   2.110  -0.856  0.00  0.00    +0.080 C 
ATOM     17  C   UNL     1      -1.233   1.049  -0.369  0.00  0.00    +0.164 C 
ATOM     18  C   UNL     1       0.017   1.041  -1.252  0.00  0.00    +0.052 C 
ATOM     19  C   UNL     1       0.373   3.480  -0.766  0.00  0.00    +0.039 C 
ATOM     20  C   UNL     1      -0.800   3.447   0.205  0.00  0.00    +0.110 C 
ATOM     22  C   UNL     1      -3.135   2.719  -0.092  0.00  0.00    +0.265 C 
ENDROOT
BRANCH  22  24
ATOM     10  N   UNL     1      -4.588   1.440  -1.701  0.00  0.00    -0.262 N 
ATOM     12  N   UNL     1      -5.464   0.423  -1.763  0.00  0.00    -0.176 NA
ATOM     24  C   UNL     1      -4.102   1.674  -0.449  0.00  0.00    +0.123 A 
ATOM     28  C   UNL     1      -4.702   0.745   0.366  0.00  0.00    +0.057 A 
ATOM     31  C   UNL     1      -5.529   0.002  -0.497  0.00  0.00    +0.061 A 
ATOM     34  C   UNL     1      -4.256   2.160  -2.909  0.00  0.00    +0.173 C 
ATOM     38  C   UNL     1      -6.405  -1.128  -0.146  0.00  0.00    +0.067 C 
ENDBRANCH  22  24
BRANCH  17  21
ATOM      2  O   UNL     1      -0.637   1.142   1.942  0.00  0.00    -0.274 OA
ATOM      9  N   UNL     1      -1.138  -0.922   0.989  0.00  0.00    -0.302 N 
ATOM     21  C   UNL     1      -0.974   0.452   0.983  0.00  0.00    +0.234 C 
ATOM     44  H   UNL     1      -1.472  -1.384   0.148  0.00  0.00    +0.150 HD
BRANCH   9  23
ATOM     23  C   UNL     1      -0.926  -1.739   2.163  0.00  0.00    +0.163 C 
BRANCH  23  29
ATOM      6  O   UNL     1      -3.343  -1.742   2.412  0.00  0.00    -0.274 OA
ATOM     15  N   UNL     1      -2.044  -1.835   4.304  0.00  0.00    -0.328 N 
ATOM     29  C   UNL     1      -2.234  -1.754   2.940  0.00  0.00    +0.231 C 
ATOM     46  H   UNL     1      -2.835  -1.867   4.938  0.00  0.00    +0.145 HD
ATOM     47  H   UNL     1      -1.121  -1.867   4.725  0.00  0.00    +0.145 HD
ENDBRANCH  23  29
BRANCH  23  25
ATOM     25  C   UNL     1      -0.500  -3.167   1.806  0.00  0.00    +0.069 C 
BRANCH  25  27
ATOM     14  N   UNL     1       2.895  -2.927   0.399  0.00  0.00    -0.360 N 
ATOM     27  C   UNL     1       0.780  -3.213   1.007  0.00  0.00    -0.020 A 
ATOM     32  C   UNL     1       0.960  -3.812  -0.271  0.00  0.00    +0.003 A 
ATOM     33  C   UNL     1       1.987  -2.677   1.392  0.00  0.00    +0.087 A 
ATOM     35  C   UNL     1       2.296  -3.619  -0.629  0.00  0.00    +0.047 A 
ATOM     37  C   UNL     1       0.113  -4.503  -1.159  0.00  0.00    +0.010 A 
ATOM     39  C   UNL     1       2.828  -4.083  -1.837  0.00  0.00    +0.026 A 
ATOM     41  C   UNL     1       0.631  -4.974  -2.371  0.00  0.00    +0.001 A 
ATOM     42  C   UNL     1       1.969  -4.766  -2.703  0.00  0.00    +0.002 A 
ATOM     45  H   UNL     1       3.865  -2.643   0.416  0.00  0.00    +0.165 HD
ENDBRANCH  25  27
ENDBRANCH  23  25
ENDBRANCH   9  23
ENDBRANCH  17  21
BRANCH  16   8
ATOM      8  N   UNL     1       2.121   2.156  -1.868  0.00  0.00    -0.185 NA
ATOM     43  H   UNL     1       1.802   2.354  -2.826  0.00  0.00    +0.148 HD
BRANCH   8   1
ATOM      1  S   UNL     1       3.491   1.171  -1.685  0.00  0.00    +0.077 S 
ATOM      4  O   UNL     1       4.460   1.494  -2.715  0.00  0.00    -0.152 OA
ATOM      5  O   UNL     1       3.058  -0.201  -1.497  0.00  0.00    -0.152 OA
BRANCH   1  26
ATOM     11  N   UNL     1       4.094   0.949   0.994  0.00  0.00    -0.216 NA
ATOM     13  N   UNL     1       5.056   2.899   1.444  0.00  0.00    -0.338 N 
ATOM     26  C   UNL     1       4.136   1.726  -0.136  0.00  0.00    +0.211 A 
ATOM     30  C   UNL     1       4.728   2.941   0.119  0.00  0.00    +0.135 A 
ATOM     36  C   UNL     1       4.656   1.684   1.927  0.00  0.00    +0.201 A 
ATOM     40  C   UNL     1       5.705   3.944   2.197  0.00  0.00    +0.150 C 
ENDBRANCH   1  26
ENDBRANCH   8   1
ENDBRANCH  16   8
TORSDOF 9
