REMARK  Name = 45361444
REMARK  9 active torsions:
REMARK  status: ('A' for Active; 'I' for Inactive)
REMARK    1  A    between atoms: O_1  and  C_10
REMARK    2  A    between atoms: N_4  and  C_14
REMARK    3  A    between atoms: C_7  and  C_17
REMARK    4  A    between atoms: C_9  and  C_19
REMARK    5  A    between atoms: C_12  and  C_18
REMARK    6  A    between atoms: C_18  and  C_20
REMARK    7  A    between atoms: C_18  and  C_21
REMARK    8  A    between atoms: C_22  and  C_27
REMARK    9  A    between atoms: C_33  and  C_34
REMARK                            x       y       z     vdW  Elec       q    Type
REMARK                         _______ _______ _______ _____ _____    ______ ____
ROOT
ATOM      7  C   UNL     1       0.902  -1.623   0.956  0.00  0.00    -0.027 C 
ATOM      8  C   UNL     1       0.767  -0.318   0.103  0.00  0.00    +0.028 C 
ATOM      9  C   UNL     1      -0.707  -0.134  -0.408  0.00  0.00    +0.012 C 
ATOM     10  C   UNL     1       1.869  -0.245  -0.993  0.00  0.00    +0.122 C 
ATOM     11  C   UNL     1       2.333  -1.715   1.537  0.00  0.00    +0.007 C 
ATOM     12  C   UNL     1       3.292  -0.441  -0.420  0.00  0.00    +0.029 C 
ATOM     13  C   UNL     1      -0.084  -1.553   2.145  0.00  0.00    +0.009 C 
ATOM     14  C   UNL     1      -1.697  -0.140   0.791  0.00  0.00    +0.076 C 
ATOM     15  C   UNL     1       3.413  -1.683   0.463  0.00  0.00    +0.007 C 
ATOM     16  C   UNL     1      -1.529  -1.348   1.712  0.00  0.00    +0.023 C 
ATOM     17  C   UNL     1       0.617  -2.904   0.132  0.00  0.00    +0.011 C 
ATOM     19  C   UNL     1      -0.917   1.147  -1.231  0.00  0.00    +0.010 C 
ENDROOT
BRANCH  14   4
ATOM      3  O   UNL     1      -3.893   1.104   2.160  0.00  0.00    -0.270 OA
ATOM      4  N   UNL     1      -3.075  -0.089   0.348  0.00  0.00    -0.308 N 
ATOM     22  C   UNL     1      -4.066   0.538   1.084  0.00  0.00    +0.244 C 
ATOM     35  H   UNL     1      -3.312  -0.634  -0.474  0.00  0.00    +0.149 HD
BRANCH  22  27
ATOM     27  C   UNL     1      -5.433   0.479   0.506  0.00  0.00    +0.037 A 
ATOM     29  C   UNL     1      -6.547   0.548   1.342  0.00  0.00    +0.014 A 
ATOM     30  C   UNL     1      -5.602   0.357  -0.873  0.00  0.00    +0.014 A 
ATOM     31  C   UNL     1      -7.831   0.494   0.799  0.00  0.00    +0.019 A 
ATOM     32  C   UNL     1      -6.886   0.304  -1.416  0.00  0.00    +0.019 A 
ATOM     33  C   UNL     1      -8.000   0.372  -0.580  0.00  0.00    +0.052 A 
BRANCH  33  34
ATOM      6  N   UNL     1     -10.384   0.272  -1.587  0.00  0.00    -0.191 NA
ATOM     34  C   UNL     1      -9.316   0.317  -1.136  0.00  0.00    +0.099 C 
ENDBRANCH  33  34
ENDBRANCH  22  27
ENDBRANCH  14   4
BRANCH  10   1
ATOM      1  O   UNL     1       1.849   1.046  -1.603  0.00  0.00    -0.391 OA
ATOM     36  H   UNL     1       2.022   1.710  -0.913  0.00  0.00    +0.210 HD
ENDBRANCH  10   1
BRANCH  12  18
ATOM     18  C   UNL     1       4.349  -0.496  -1.529  0.00  0.00    +0.078 C 
ATOM     20  C   UNL     1       4.098  -1.663  -2.468  0.00  0.00    +0.017 C 
BRANCH  18  21
ATOM      2  O   UNL     1       6.181  -1.752  -0.704  0.00  0.00    -0.275 OA
ATOM      5  N   UNL     1       6.356   0.559  -0.549  0.00  0.00    -0.301 N 
ATOM     21  C   UNL     1       5.710  -0.628  -0.892  0.00  0.00    +0.219 C 
ATOM     23  C   UNL     1       7.680   0.514   0.076  0.00  0.00    +0.108 C 
ATOM     24  C   UNL     1       5.841   1.911  -0.800  0.00  0.00    +0.108 C 
ATOM     25  C   UNL     1       7.695   1.306   1.380  0.00  0.00    +0.019 C 
ATOM     26  C   UNL     1       5.822   2.731   0.488  0.00  0.00    +0.019 C 
ATOM     28  C   UNL     1       7.191   2.732   1.167  0.00  0.00    +0.003 C 
ENDBRANCH  18  21
ENDBRANCH  12  18
TORSDOF 6
