REMARK  Name = 51137032
REMARK  5 active torsions:
REMARK  status: ('A' for Active; 'I' for Inactive)
REMARK    1  A    between atoms: S_1  and  C_19
REMARK    2  A    between atoms: S_1  and  C_22
REMARK    3  A    between atoms: C_9  and  C_13
REMARK    4  A    between atoms: C_14  and  C_18
REMARK    5  A    between atoms: C_22  and  C_24
REMARK                            x       y       z     vdW  Elec       q    Type
REMARK                         _______ _______ _______ _____ _____    ______ ____
ROOT
ATOM      2  O   UNL     1      -0.952   2.502  -0.895  0.00  0.00    -0.439 OA
ATOM      7  N   UNL     1      -0.323   0.498  -0.042  0.00  0.00    -0.213 NA
ATOM     13  C   UNL     1       0.046   1.700  -0.429  0.00  0.00    +0.201 A 
ATOM     15  C   UNL     1      -1.678   0.496  -0.266  0.00  0.00    +0.111 A 
ATOM     16  C   UNL     1      -2.067   1.721  -0.788  0.00  0.00    +0.155 A 
ATOM     17  C   UNL     1      -2.651  -0.492  -0.059  0.00  0.00    +0.058 A 
ATOM     19  C   UNL     1      -3.979  -0.189  -0.392  0.00  0.00    +0.090 A 
ATOM     20  C   UNL     1      -3.371   2.058  -1.130  0.00  0.00    +0.050 A 
ATOM     21  C   UNL     1      -4.330   1.061  -0.917  0.00  0.00    +0.030 A 
ENDROOT
BRANCH  13   9
ATOM      3  O   UNL     1       3.943  -0.290   2.518  0.00  0.00    -0.268 OA
ATOM      6  N   UNL     1       2.966   1.025   0.872  0.00  0.00    -0.296 N 
ATOM      9  C   UNL     1       1.438   2.308  -0.425  0.00  0.00    +0.094 C 
ATOM     10  C   UNL     1       1.734   3.037   0.895  0.00  0.00    +0.033 C 
ATOM     11  C   UNL     1       2.615   1.327  -0.517  0.00  0.00    +0.121 C 
ATOM     12  C   UNL     1       2.321   1.953   1.788  0.00  0.00    +0.109 C 
ATOM     14  C   UNL     1       3.734  -0.033   1.334  0.00  0.00    +0.265 C 
BRANCH  14  18
ATOM      8  N   UNL     1       5.181  -0.341  -0.544  0.00  0.00    -0.250 NA
ATOM     18  C   UNL     1       4.333  -0.926   0.332  0.00  0.00    +0.126 A 
ATOM     23  C   UNL     1       4.019  -2.276   0.323  0.00  0.00    +0.033 A 
ATOM     25  C   UNL     1       4.614  -3.076  -0.646  0.00  0.00    +0.004 A 
ATOM     26  C   UNL     1       5.740  -1.150  -1.471  0.00  0.00    +0.111 A 
ATOM     27  C   UNL     1       5.492  -2.510  -1.564  0.00  0.00    +0.020 A 
ENDBRANCH  14  18
ENDBRANCH  13   9
BRANCH  19   1
ATOM      1  S   UNL     1      -5.220  -1.398  -0.149  0.00  0.00    -0.003 S 
ATOM      4  O   UNL     1      -6.332  -1.115  -1.044  0.00  0.00    -0.169 OA
ATOM      5  O   UNL     1      -4.580  -2.704  -0.178  0.00  0.00    -0.169 OA
BRANCH   1  22
ATOM     22  C   UNL     1      -5.799  -1.107   1.506  0.00  0.00    +0.168 C 
ATOM     24  C   UNL     1      -6.892  -2.078   1.891  0.00  0.00    +0.028 C 
ENDBRANCH   1  22
ENDBRANCH  19   1
TORSDOF 4
