REMARK  Name = 45783984
REMARK  16 active torsions:
REMARK  status: ('A' for Active; 'I' for Inactive)
REMARK    1  A    between atoms: O_2  and  C_26
REMARK    2  A    between atoms: O_2  and  C_29
REMARK    3  A    between atoms: N_3  and  C_13
REMARK    4  A    between atoms: N_4  and  C_25
REMARK    5  A    between atoms: N_7  and  C_34
REMARK    6  A    between atoms: N_7  and  C_35
REMARK    7  A    between atoms: N_7  and  C_36
REMARK    8  A    between atoms: C_8  and  C_12
REMARK    9  A    between atoms: C_9  and  C_13
REMARK   10  A    between atoms: C_11  and  C_16
REMARK   11  A    between atoms: C_12  and  C_17
REMARK   12  A    between atoms: C_12  and  C_18
REMARK   13  A    between atoms: C_15  and  C_21
REMARK   14  A    between atoms: C_16  and  C_24
REMARK   15  A    between atoms: C_25  and  C_26
REMARK   16  A    between atoms: C_27  and  C_28
REMARK                            x       y       z     vdW  Elec       q    Type
REMARK                         _______ _______ _______ _____ _____    ______ ____
ROOT
ATOM      8  C   UNL     1       1.461   0.778  -0.853  0.00  0.00    +0.000 C 
ATOM      9  C   UNL     1       2.423   1.986  -0.781  0.00  0.00    +0.029 C 
ATOM     10  C   UNL     1       0.329   0.930   0.173  0.00  0.00    +0.012 C 
ATOM     11  C   UNL     1      -0.475   2.238   0.007  0.00  0.00    +0.024 C 
ATOM     14  C   UNL     1       1.694   3.301  -0.677  0.00  0.00    -0.023 C 
ATOM     15  C   UNL     1       0.399   3.434  -0.339  0.00  0.00    -0.073 C 
ATOM     21  C   UNL     1      -0.253   4.790  -0.350  0.00  0.00    +0.039 C 
ENDROOT
BRANCH   8  12
ATOM     12  C   UNL     1       0.903   0.589  -2.270  0.00  0.00    -0.013 C 
ATOM     17  C   UNL     1       1.968  -0.007  -3.186  0.00  0.00    +0.007 C 
ATOM     18  C   UNL     1      -0.341  -0.293  -2.240  0.00  0.00    +0.007 C 
ENDBRANCH   8  12
BRANCH   9  13
ATOM     13  C   UNL     1       3.404   1.860   0.388  0.00  0.00    +0.092 C 
BRANCH  13   3
ATOM      3  N   UNL     1       4.147   0.604   0.306  0.00  0.00    -0.299 NA
ATOM      4  N   UNL     1       6.546  -0.990   0.563  0.00  0.00    -0.298 NA
ATOM     19  C   UNL     1       5.240   0.708  -0.669  0.00  0.00    +0.100 C 
ATOM     20  C   UNL     1       4.670   0.220   1.623  0.00  0.00    +0.100 C 
ATOM     22  C   UNL     1       6.023  -0.607  -0.754  0.00  0.00    +0.100 C 
ATOM     23  C   UNL     1       5.452  -1.096   1.537  0.00  0.00    +0.100 C 
BRANCH   4  25
ATOM     25  C   UNL     1       7.290  -2.245   0.481  0.00  0.00    +0.112 C 
BRANCH  25  26
ATOM     26  C   UNL     1       8.708  -1.997  -0.008  0.00  0.00    +0.174 C 
BRANCH  26   2
ATOM      2  O   UNL     1       9.399  -3.238  -0.056  0.00  0.00    -0.382 OA
ATOM     29  C   UNL     1      10.729  -3.077  -0.528  0.00  0.00    +0.194 C 
ENDBRANCH  26   2
ENDBRANCH  25  26
ENDBRANCH   4  25
ENDBRANCH  13   3
ENDBRANCH   9  13
BRANCH  11  16
ATOM     16  C   UNL     1      -1.316   2.459   1.270  0.00  0.00    +0.105 C 
BRANCH  16  24
ATOM      1  O   UNL     1      -3.282   1.085   0.817  0.00  0.00    -0.420 OA
ATOM      5  N   UNL     1      -2.004   0.332   2.492  0.00  0.00    -0.112 NA
ATOM      6  N   UNL     1      -3.072  -0.534   2.346  0.00  0.00    -0.107 NA
ATOM     24  C   UNL     1      -2.168   1.261   1.579  0.00  0.00    +0.218 A 
ATOM     27  C   UNL     1      -3.791  -0.055   1.358  0.00  0.00    +0.248 A 
BRANCH  27  28
ATOM     28  C   UNL     1      -5.007  -0.540   0.771  0.00  0.00    +0.039 A 
ATOM     30  C   UNL     1      -5.602  -1.703   1.260  0.00  0.00    +0.015 A 
ATOM     31  C   UNL     1      -5.594   0.152  -0.287  0.00  0.00    +0.015 A 
ATOM     32  C   UNL     1      -6.784  -2.174   0.690  0.00  0.00    +0.024 A 
ATOM     33  C   UNL     1      -6.777  -0.319  -0.858  0.00  0.00    +0.024 A 
ATOM     34  C   UNL     1      -7.372  -1.482  -0.369  0.00  0.00    +0.029 A 
BRANCH  34   7
ATOM      7  N   UNL     1      -8.567  -1.959  -0.947  0.00  0.00    -0.336 N 
ATOM     35  C   UNL     1      -9.189  -1.243  -2.043  0.00  0.00    +0.129 C 
ATOM     36  C   UNL     1      -9.192  -3.167  -0.447  0.00  0.00    +0.129 C 
ENDBRANCH  34   7
ENDBRANCH  27  28
ENDBRANCH  16  24
ENDBRANCH  11  16
TORSDOF 10
