REMARK  Name = 45784320
REMARK  4 active torsions:
REMARK  status: ('A' for Active; 'I' for Inactive)
REMARK    1  A    between atoms: N_2  and  C_11
REMARK    2  A    between atoms: C_6  and  C_10
REMARK    3  A    between atoms: C_11  and  C_12
REMARK    4  A    between atoms: C_19  and  C_24
REMARK                            x       y       z     vdW  Elec       q    Type
REMARK                         _______ _______ _______ _____ _____    ______ ____
ROOT
ATOM      2  N   UNL     1      -2.048  -0.266  -0.124  0.00  0.00    -0.297 NA
ATOM      6  C   UNL     1       0.149  -0.700   0.571  0.00  0.00    +0.070 C 
ATOM      7  C   UNL     1      -0.579   0.121   1.649  0.00  0.00    +0.028 C 
ATOM      8  C   UNL     1      -0.726  -0.559  -0.681  0.00  0.00    +0.096 C 
ATOM      9  C   UNL     1      -1.800   0.700   0.946  0.00  0.00    +0.085 C 
ENDROOT
BRANCH   6  10
ATOM      3  N   UNL     1       2.610  -1.190   0.514  0.00  0.00    -0.342 N 
ATOM      4  N   UNL     1       2.023   0.877  -0.054  0.00  0.00    -0.232 NA
ATOM     10  C   UNL     1       1.587  -0.301   0.333  0.00  0.00    +0.113 A 
ATOM     13  C   UNL     1       3.784  -0.543   0.224  0.00  0.00    +0.067 A 
ATOM     14  C   UNL     1       3.390   0.745  -0.128  0.00  0.00    +0.089 A 
ATOM     17  C   UNL     1       5.115  -0.961   0.239  0.00  0.00    +0.046 A 
ATOM     18  C   UNL     1       4.370   1.685  -0.490  0.00  0.00    +0.031 A 
ATOM     19  C   UNL     1       6.077  -0.013  -0.124  0.00  0.00    +0.054 A 
ATOM     20  C   UNL     1       5.713   1.288  -0.482  0.00  0.00    +0.021 A 
ATOM     25  H   UNL     1       2.521  -2.154   0.809  0.00  0.00    +0.167 HD
BRANCH  19  24
ATOM      5  N   UNL     1       8.579  -0.684  -0.131  0.00  0.00    -0.191 NA
ATOM     24  C   UNL     1       7.458  -0.383  -0.128  0.00  0.00    +0.099 C 
ENDBRANCH  19  24
ENDBRANCH   6  10
BRANCH   2  11
ATOM     11  C   UNL     1      -2.973   0.242  -1.126  0.00  0.00    +0.119 C 
BRANCH  11  12
ATOM      1  F   UNL     1      -8.333  -0.187   0.556  0.00  0.00    -0.205 F 
ATOM     12  C   UNL     1      -4.405   0.128  -0.677  0.00  0.00    -0.033 A 
ATOM     15  C   UNL     1      -5.136  -1.025  -0.964  0.00  0.00    +0.008 A 
ATOM     16  C   UNL     1      -5.002   1.174   0.027  0.00  0.00    +0.008 A 
ATOM     21  C   UNL     1      -6.463  -1.131  -0.548  0.00  0.00    +0.038 A 
ATOM     22  C   UNL     1      -6.329   1.068   0.443  0.00  0.00    +0.038 A 
ATOM     23  C   UNL     1      -7.059  -0.085   0.156  0.00  0.00    +0.123 A 
ENDBRANCH  11  12
ENDBRANCH   2  11
TORSDOF 4
