REMARK  Name = 75367093
REMARK  11 active torsions:
REMARK  status: ('A' for Active; 'I' for Inactive)
REMARK    1  A    between atoms: S_1  and  N_7
REMARK    2  A    between atoms: S_1  and  C_18
REMARK    3  A    between atoms: O_3  and  C_9
REMARK    4  A    between atoms: N_6  and  C_8
REMARK    5  A    between atoms: N_6  and  C_13
REMARK    6  A    between atoms: N_7  and  C_14
REMARK    7  A    between atoms: C_10  and  C_14
REMARK    8  A    between atoms: C_12  and  C_13
REMARK    9  A    between atoms: C_12  and  C_15
REMARK   10  A    between atoms: C_12  and  C_16
REMARK   11  A    between atoms: C_12  and  C_17
REMARK                            x       y       z     vdW  Elec       q    Type
REMARK                         _______ _______ _______ _____ _____    ______ ____
ROOT
ATOM      2  O   UNL     1       0.882   0.866   0.839  0.00  0.00    -0.371 OA
ATOM      8  C   UNL     1      -1.180  -0.279   0.558  0.00  0.00    +0.111 C 
ATOM      9  C   UNL     1      -0.068  -1.103  -0.063  0.00  0.00    +0.164 C 
ATOM     10  C   UNL     1       1.152  -0.533   0.647  0.00  0.00    +0.164 C 
ATOM     11  C   UNL     1      -0.526   1.090   0.648  0.00  0.00    +0.181 C 
ENDROOT
BRANCH   9   3
ATOM      3  O   UNL     1      -0.217  -2.490   0.175  0.00  0.00    -0.388 OA
ATOM     20  H   UNL     1      -0.269  -2.631   1.136  0.00  0.00    +0.210 HD
ENDBRANCH   9   3
BRANCH   8   6
ATOM      6  N   UNL     1      -2.406  -0.271  -0.223  0.00  0.00    -0.308 NA
ATOM     19  H   UNL     1      -2.612  -1.222  -0.527  0.00  0.00    +0.122 HD
BRANCH   6  13
ATOM     13  C   UNL     1      -3.525   0.238   0.561  0.00  0.00    +0.087 C 
BRANCH  13  12
ATOM     12  C   UNL     1      -4.855   0.341  -0.228  0.00  0.00    -0.025 C 
ATOM     15  C   UNL     1      -5.971   0.932   0.653  0.00  0.00    +0.012 C 
ATOM     16  C   UNL     1      -5.271  -1.077  -0.662  0.00  0.00    +0.012 C 
ATOM     17  C   UNL     1      -4.691   1.210  -1.488  0.00  0.00    +0.012 C 
ENDBRANCH  13  12
ENDBRANCH   6  13
ENDBRANCH   8   6
BRANCH  10  14
ATOM     14  C   UNL     1       2.439  -0.704  -0.139  0.00  0.00    +0.139 C 
BRANCH  14   7
ATOM      7  N   UNL     1       3.565  -0.125   0.621  0.00  0.00    -0.192 NA
ATOM     21  H   UNL     1       3.775  -0.634   1.489  0.00  0.00    +0.148 HD
BRANCH   7   1
ATOM      1  S   UNL     1       4.905   0.503  -0.229  0.00  0.00    +0.027 S 
ATOM      4  O   UNL     1       6.004   0.735   0.688  0.00  0.00    -0.158 OA
ATOM      5  O   UNL     1       4.437   1.558  -1.108  0.00  0.00    -0.158 OA
ATOM     18  C   UNL     1       5.327  -0.890  -1.249  0.00  0.00    +0.214 C 
ENDBRANCH   7   1
ENDBRANCH  14   7
ENDBRANCH  10  14
TORSDOF 7
