REMARK  Name = 11941516
REMARK  10 active torsions:
REMARK  status: ('A' for Active; 'I' for Inactive)
REMARK    1  A    between atoms: O_4  and  C_22
REMARK    2  A    between atoms: O_4  and  C_27
REMARK    3  A    between atoms: O_5  and  C_29
REMARK    4  A    between atoms: O_7  and  C_34
REMARK    5  A    between atoms: O_7  and  C_35
REMARK    6  A    between atoms: N_9  and  C_11
REMARK    7  A    between atoms: C_19  and  C_22
REMARK    8  A    between atoms: C_23  and  C_25
REMARK    9  A    between atoms: C_26  and  C_28
REMARK   10  A    between atoms: C_27  and  C_29
REMARK                            x       y       z     vdW  Elec       q    Type
REMARK                         _______ _______ _______ _____ _____    ______ ____
ROOT
ATOM      1  O   UNL     1      -3.526  -3.865   1.130  0.00  0.00    -0.273 OA
ATOM      2  O   UNL     1       0.204  -2.469  -2.319  0.00  0.00    -0.270 OA
ATOM      8  N   UNL     1      -1.826  -2.342  -1.247  0.00  0.00    -0.284 N 
ATOM     10  N   UNL     1      -1.333  -3.351   1.472  0.00  0.00    -0.283 N 
ATOM     11  C   UNL     1      -4.050  -1.771  -0.682  0.00  0.00    +0.104 C 
ATOM     12  C   UNL     1      -2.646  -1.988  -0.102  0.00  0.00    +0.183 C 
ATOM     13  C   UNL     1      -4.060  -2.650  -1.934  0.00  0.00    +0.043 C 
ATOM     14  C   UNL     1      -2.630  -2.553  -2.442  0.00  0.00    +0.111 C 
ATOM     15  C   UNL     1      -2.549  -3.167   0.848  0.00  0.00    +0.240 C 
ATOM     16  C   UNL     1      -0.448  -2.322  -1.286  0.00  0.00    +0.249 C 
ATOM     17  C   UNL     1       0.286  -2.137  -0.007  0.00  0.00    +0.059 A 
ATOM     18  C   UNL     1      -0.107  -2.699   1.220  0.00  0.00    +0.046 A 
ATOM     20  C   UNL     1       1.533  -1.494  -0.105  0.00  0.00    +0.022 A 
ATOM     21  C   UNL     1       0.791  -2.660   2.301  0.00  0.00    +0.024 A 
ATOM     23  C   UNL     1       2.390  -1.424   0.992  0.00  0.00    -0.024 A 
ATOM     24  C   UNL     1       2.024  -2.019   2.193  0.00  0.00    +0.010 A 
ATOM     37  H   UNL     1      -1.344  -3.981   2.272  0.00  0.00    +0.155 HD
ENDROOT
BRANCH  11   9
ATOM      3  O   UNL     1      -5.262   0.271   0.979  0.00  0.00    -0.273 OA
ATOM      9  N   UNL     1      -4.261  -0.381  -1.017  0.00  0.00    -0.308 N 
ATOM     19  C   UNL     1      -4.853   0.525  -0.151  0.00  0.00    +0.239 C 
ATOM     36  H   UNL     1      -3.913  -0.046  -1.911  0.00  0.00    +0.149 HD
BRANCH  19  22
ATOM     22  C   UNL     1      -4.944   1.906  -0.763  0.00  0.00    +0.256 C 
BRANCH  22   4
ATOM      4  O   UNL     1      -5.538   2.814   0.140  0.00  0.00    -0.359 OA
BRANCH   4  27
ATOM     27  C   UNL     1      -5.636   4.124  -0.411  0.00  0.00    +0.280 C 
BRANCH  27  29
ATOM      6  O   UNL     1      -6.674   4.737   1.699  0.00  0.00    -0.248 OA
ATOM     29  C   UNL     1      -6.273   5.050   0.588  0.00  0.00    +0.331 C 
BRANCH  29   5
ATOM      5  O   UNL     1      -6.343   6.308   0.083  0.00  0.00    -0.479 OA
ATOM     38  H   UNL     1      -6.755   6.934   0.716  0.00  0.00    +0.295 HD
ENDBRANCH  29   5
ENDBRANCH  27  29
ENDBRANCH   4  27
ENDBRANCH  22   4
ENDBRANCH  19  22
ENDBRANCH  11   9
BRANCH  23  25
ATOM     25  C   UNL     1       3.675  -0.753   0.874  0.00  0.00    +0.008 C 
ATOM     26  C   UNL     1       3.991   0.168  -0.067  0.00  0.00    +0.008 C 
BRANCH  26  28
ATOM     28  C   UNL     1       5.287   0.862  -0.175  0.00  0.00    -0.025 A 
ATOM     30  C   UNL     1       6.420   0.322   0.432  0.00  0.00    +0.011 A 
ATOM     31  C   UNL     1       5.379   2.059  -0.886  0.00  0.00    +0.011 A 
ATOM     32  C   UNL     1       7.646   0.979   0.330  0.00  0.00    +0.046 A 
ATOM     33  C   UNL     1       6.605   2.716  -0.989  0.00  0.00    +0.046 A 
ATOM     34  C   UNL     1       7.739   2.176  -0.381  0.00  0.00    +0.120 A 
BRANCH  34   7
ATOM      7  O   UNL     1       8.935   2.817  -0.481  0.00  0.00    -0.495 OA
ATOM     35  C   UNL     1      10.053   2.209   0.164  0.00  0.00    +0.277 C 
ENDBRANCH  34   7
ENDBRANCH  26  28
ENDBRANCH  23  25
TORSDOF 9
