REMARK  Name = 11913096
REMARK  8 active torsions:
REMARK  status: ('A' for Active; 'I' for Inactive)
REMARK    1  A    between atoms: O_3  and  C_13
REMARK    2  A    between atoms: O_3  and  C_17
REMARK    3  A    between atoms: O_5  and  C_32
REMARK    4  A    between atoms: O_5  and  C_39
REMARK    5  A    between atoms: N_6  and  C_12
REMARK    6  A    between atoms: N_9  and  C_21
REMARK    7  A    between atoms: C_18  and  C_22
REMARK    8  A    between atoms: C_29  and  C_33
REMARK                            x       y       z     vdW  Elec       q    Type
REMARK                         _______ _______ _______ _____ _____    ______ ____
ROOT
ATOM      1  O   UNL     1       2.204   1.339  -1.870  0.00  0.00    -0.368 OA
ATOM      2  O   UNL     1       0.157  -0.878  -1.315  0.00  0.00    -0.368 OA
ATOM     10  C   UNL     1       0.378   0.400  -0.683  0.00  0.00    +0.173 C 
ATOM     11  C   UNL     1       1.877   0.627  -0.665  0.00  0.00    +0.192 C 
ATOM     12  C   UNL     1      -0.150   1.510  -1.562  0.00  0.00    +0.130 C 
ATOM     13  C   UNL     1       2.422  -0.781  -0.682  0.00  0.00    +0.235 C 
ATOM     14  C   UNL     1       0.992   1.718  -2.541  0.00  0.00    +0.185 C 
ATOM     15  C   UNL     1       1.427  -1.496  -1.569  0.00  0.00    +0.207 C 
ENDROOT
BRANCH  12   6
ATOM      6  N   UNL     1      -0.366   2.709  -0.780  0.00  0.00    -0.306 N 
ATOM      7  N   UNL     1      -2.488   2.019  -0.135  0.00  0.00    -0.214 NA
ATOM      8  N   UNL     1      -1.576   4.122   0.609  0.00  0.00    -0.223 NA
ATOM     16  C   UNL     1      -1.527   2.961  -0.071  0.00  0.00    +0.216 A 
ATOM     18  C   UNL     1      -3.606   2.298   0.567  0.00  0.00    +0.076 A 
ATOM     19  C   UNL     1      -2.722   4.336   1.289  0.00  0.00    +0.116 A 
ATOM     20  C   UNL     1      -3.780   3.451   1.305  0.00  0.00    +0.048 A 
ATOM     40  H   UNL     1       0.381   3.389  -0.694  0.00  0.00    +0.149 HD
BRANCH  18  22
ATOM     22  C   UNL     1      -4.637   1.290   0.502  0.00  0.00    +0.001 A 
ATOM     25  C   UNL     1      -5.895   1.613  -0.007  0.00  0.00    +0.010 A 
ATOM     26  C   UNL     1      -4.376  -0.005   0.947  0.00  0.00    +0.010 A 
ATOM     27  C   UNL     1      -6.892   0.639  -0.071  0.00  0.00    +0.009 A 
ATOM     28  C   UNL     1      -5.373  -0.979   0.883  0.00  0.00    +0.009 A 
ATOM     29  C   UNL     1      -6.631  -0.657   0.374  0.00  0.00    -0.018 A 
BRANCH  29  33
ATOM     33  C   UNL     1      -7.665  -1.667   0.308  0.00  0.00    -0.018 A 
ATOM     34  C   UNL     1      -8.534  -1.847   1.384  0.00  0.00    +0.008 A 
ATOM     35  C   UNL     1      -7.793  -2.460  -0.832  0.00  0.00    +0.008 A 
ATOM     36  C   UNL     1      -9.530  -2.821   1.321  0.00  0.00    +0.001 A 
ATOM     37  C   UNL     1      -8.790  -3.433  -0.896  0.00  0.00    +0.001 A 
ATOM     38  C   UNL     1      -9.659  -3.614   0.180  0.00  0.00    +0.000 A 
ENDBRANCH  29  33
ENDBRANCH  18  22
ENDBRANCH  12   6
BRANCH  13   3
ATOM      3  O   UNL     1       3.737  -0.869  -1.182  0.00  0.00    -0.442 OA
BRANCH   3  17
ATOM      4  O   UNL     1       4.560  -0.705   0.945  0.00  0.00    -0.226 OA
ATOM      9  N   UNL     1       5.975  -0.919  -0.907  0.00  0.00    -0.251 N 
ATOM     17  C   UNL     1       4.760  -0.820  -0.258  0.00  0.00    +0.405 C 
ATOM     41  H   UNL     1       5.938  -1.009  -1.920  0.00  0.00    +0.158 HD
BRANCH   9  21
ATOM     21  C   UNL     1       7.269  -0.911  -0.339  0.00  0.00    +0.037 A 
ATOM     23  C   UNL     1       7.423  -0.792   1.042  0.00  0.00    +0.027 A 
ATOM     24  C   UNL     1       8.392  -1.023  -1.159  0.00  0.00    +0.027 A 
ATOM     30  C   UNL     1       8.701  -0.785   1.603  0.00  0.00    +0.047 A 
ATOM     31  C   UNL     1       9.669  -1.016  -0.598  0.00  0.00    +0.047 A 
ATOM     32  C   UNL     1       9.823  -0.897   0.783  0.00  0.00    +0.120 A 
BRANCH  32   5
ATOM      5  O   UNL     1      11.069  -0.891   1.330  0.00  0.00    -0.495 OA
ATOM     39  C   UNL     1      11.155  -0.767   2.749  0.00  0.00    +0.277 C 
ENDBRANCH  32   5
ENDBRANCH   9  21
ENDBRANCH   3  17
ENDBRANCH  13   3
TORSDOF 7
