REMARK  Name = 51137072
REMARK  3 active torsions:
REMARK  status: ('A' for Active; 'I' for Inactive)
REMARK    1  A    between atoms: N_3  and  C_9
REMARK    2  A    between atoms: C_5  and  C_10
REMARK    3  A    between atoms: C_9  and  C_11
REMARK                            x       y       z     vdW  Elec       q    Type
REMARK                         _______ _______ _______ _____ _____    ______ ____
ROOT
ATOM      3  N   UNL     1      -1.385  -0.532  -0.130  0.00  0.00    -0.297 NA
ATOM      5  C   UNL     1       0.804  -1.004   0.569  0.00  0.00    +0.060 C 
ATOM      6  C   UNL     1       0.078  -0.198   1.660  0.00  0.00    +0.027 C 
ATOM      7  C   UNL     1      -0.062  -0.827  -0.686  0.00  0.00    +0.095 C 
ATOM      8  C   UNL     1      -1.133   0.408   0.962  0.00  0.00    +0.085 C 
ENDROOT
BRANCH   5  10
ATOM      2  S   UNL     1       3.470  -1.790   0.575  0.00  0.00    -0.072 S 
ATOM      4  N   UNL     1       2.646   0.582  -0.013  0.00  0.00    -0.244 NA
ATOM     10  C   UNL     1       2.247  -0.616   0.347  0.00  0.00    +0.084 A 
ATOM     12  C   UNL     1       4.662  -0.616   0.158  0.00  0.00    +0.039 A 
ATOM     13  C   UNL     1       4.028   0.598  -0.126  0.00  0.00    +0.078 A 
ATOM     16  C   UNL     1       6.057  -0.758   0.087  0.00  0.00    +0.017 A 
ATOM     17  C   UNL     1       4.821   1.706  -0.493  0.00  0.00    +0.029 A 
ATOM     20  C   UNL     1       6.818   0.354  -0.279  0.00  0.00    +0.001 A 
ATOM     21  C   UNL     1       6.211   1.572  -0.566  0.00  0.00    +0.002 A 
ENDBRANCH   5  10
BRANCH   3   9
ATOM      9  C   UNL     1      -2.298   0.008  -1.127  0.00  0.00    +0.119 C 
BRANCH   9  11
ATOM      1 CL   UNL     1      -6.573   2.321   0.754  0.00  0.00    -0.084 Cl
ATOM     11  C   UNL     1      -3.734  -0.101  -0.688  0.00  0.00    -0.032 A 
ATOM     14  C   UNL     1      -4.409   1.028  -0.225  0.00  0.00    +0.025 A 
ATOM     15  C   UNL     1      -4.390  -1.331  -0.745  0.00  0.00    +0.005 A 
ATOM     18  C   UNL     1      -5.740   0.928   0.181  0.00  0.00    +0.041 A 
ATOM     19  C   UNL     1      -5.721  -1.431  -0.339  0.00  0.00    +0.002 A 
ATOM     22  C   UNL     1      -6.396  -0.302   0.124  0.00  0.00    +0.020 A 
ENDBRANCH   9  11
ENDBRANCH   3   9
TORSDOF 3
