REMARK  Name = 26745472
REMARK  9 active torsions:
REMARK  status: ('A' for Active; 'I' for Inactive)
REMARK    1  A    between atoms: S_2  and  N_7
REMARK    2  A    between atoms: S_2  and  C_15
REMARK    3  A    between atoms: O_5  and  C_16
REMARK    4  A    between atoms: O_5  and  C_24
REMARK    5  A    between atoms: N_8  and  C_17
REMARK    6  A    between atoms: C_10  and  C_16
REMARK    7  A    between atoms: C_15  and  C_19
REMARK    8  A    between atoms: C_17  and  C_20
REMARK    9  A    between atoms: C_19  and  C_21
REMARK                            x       y       z     vdW  Elec       q    Type
REMARK                         _______ _______ _______ _____ _____    ______ ____
ROOT
ATOM      7  N   UNL     1       1.957  -0.103   0.177  0.00  0.00    -0.161 NA
ATOM      8  N   UNL     1      -1.246  -0.468   2.075  0.00  0.00    -0.328 N 
ATOM      9  N   UNL     1      -0.542  -2.561   2.416  0.00  0.00    -0.240 NA
ATOM     10  C   UNL     1       2.073  -1.569  -0.153  0.00  0.00    +0.194 C 
ATOM     11  C   UNL     1       0.574   0.399   0.513  0.00  0.00    +0.165 C 
ATOM     12  C   UNL     1       1.553  -2.460   0.996  0.00  0.00    +0.089 C 
ATOM     13  C   UNL     1      -0.092  -0.606   1.364  0.00  0.00    +0.057 A 
ATOM     14  C   UNL     1       0.318  -1.898   1.585  0.00  0.00    +0.066 A 
ATOM     18  C   UNL     1      -1.475  -1.672   2.693  0.00  0.00    +0.200 A 
ENDROOT
BRANCH   7   2
ATOM      2  S   UNL     1       2.920   0.970  -0.748  0.00  0.00    +0.033 S 
ATOM      3  O   UNL     1       2.049   1.883  -1.455  0.00  0.00    -0.158 OA
ATOM      4  O   UNL     1       3.939   0.206  -1.433  0.00  0.00    -0.158 OA
BRANCH   2  15
ATOM     15  C   UNL     1       3.697   1.863   0.573  0.00  0.00    +0.185 C 
BRANCH  15  19
ATOM     19  C   UNL     1       4.645   2.925   0.041  0.00  0.00    +0.021 C 
ATOM     21  C   UNL     1       5.327   3.678   1.171  0.00  0.00    +0.005 C 
ENDBRANCH  15  19
ENDBRANCH   2  15
ENDBRANCH   7   2
BRANCH  10  16
ATOM      6  O   UNL     1       0.739  -0.984  -2.066  0.00  0.00    -0.249 OA
ATOM     16  C   UNL     1       1.356  -1.834  -1.438  0.00  0.00    +0.326 C 
BRANCH  16   5
ATOM      5  O   UNL     1       1.502  -3.146  -1.780  0.00  0.00    -0.467 OA
ATOM     24  C   UNL     1       0.861  -3.539  -2.997  0.00  0.00    +0.280 C 
ENDBRANCH  16   5
ENDBRANCH  10  16
BRANCH   8  17
ATOM     17  C   UNL     1      -2.080   0.705   2.167  0.00  0.00    +0.158 C 
BRANCH  17  20
ATOM      1 CL   UNL     1      -5.548   1.547  -2.680  0.00  0.00    -0.084 Cl
ATOM     20  C   UNL     1      -2.950   0.916   0.953  0.00  0.00    -0.028 A 
ATOM     22  C   UNL     1      -2.870   2.110   0.236  0.00  0.00    +0.007 A 
ATOM     23  C   UNL     1      -3.835  -0.083   0.546  0.00  0.00    +0.007 A 
ATOM     25  C   UNL     1      -3.674   2.305  -0.886  0.00  0.00    +0.020 A 
ATOM     26  C   UNL     1      -4.639   0.112  -0.577  0.00  0.00    +0.020 A 
ATOM     27  C   UNL     1      -4.559   1.306  -1.293  0.00  0.00    +0.041 A 
ENDBRANCH  17  20
ENDBRANCH   8  17
TORSDOF 7
