REMARK  Name = 75536686
REMARK  9 active torsions:
REMARK  status: ('A' for Active; 'I' for Inactive)
REMARK    1  A    between atoms: S_1  and  N_8
REMARK    2  A    between atoms: S_1  and  C_16
REMARK    3  A    between atoms: O_3  and  C_10
REMARK    4  A    between atoms: O_6  and  C_17
REMARK    5  A    between atoms: N_7  and  C_9
REMARK    6  A    between atoms: N_7  and  C_14
REMARK    7  A    between atoms: N_8  and  C_13
REMARK    8  A    between atoms: C_11  and  C_13
REMARK    9  A    between atoms: C_14  and  C_15
REMARK                            x       y       z     vdW  Elec       q    Type
REMARK                         _______ _______ _______ _____ _____    ______ ____
ROOT
ATOM      2  O   UNL     1       0.314  -1.173   1.442  0.00  0.00    -0.371 OA
ATOM      9  C   UNL     1      -1.629  -1.148   0.076  0.00  0.00    +0.111 C 
ATOM     10  C   UNL     1      -0.422  -0.798  -0.774  0.00  0.00    +0.164 C 
ATOM     11  C   UNL     1       0.708  -1.365   0.073  0.00  0.00    +0.164 C 
ATOM     12  C   UNL     1      -1.096  -0.890   1.476  0.00  0.00    +0.181 C 
ENDROOT
BRANCH  10   3
ATOM      3  O   UNL     1      -0.468  -1.391  -2.058  0.00  0.00    -0.388 OA
ATOM     28  H   UNL     1      -0.557  -2.353  -1.947  0.00  0.00    +0.210 HD
ENDBRANCH  10   3
BRANCH   9   7
ATOM      7  N   UNL     1      -2.810  -0.359  -0.234  0.00  0.00    -0.305 NA
ATOM     27  H   UNL     1      -2.927  -0.319  -1.247  0.00  0.00    +0.123 HD
BRANCH   7  14
ATOM     14  C   UNL     1      -4.006  -0.950   0.355  0.00  0.00    +0.120 C 
BRANCH  14  15
ATOM     15  C   UNL     1      -5.238  -0.136   0.058  0.00  0.00    +0.008 A 
ATOM     17  C   UNL     1      -5.490   1.052   0.744  0.00  0.00    +0.121 A 
ATOM     18  C   UNL     1      -6.131  -0.583  -0.915  0.00  0.00    +0.008 A 
ATOM     21  C   UNL     1      -6.636   1.793   0.457  0.00  0.00    +0.046 A 
ATOM     22  C   UNL     1      -7.278   0.158  -1.202  0.00  0.00    +0.001 A 
ATOM     23  C   UNL     1      -7.530   1.346  -0.516  0.00  0.00    +0.004 A 
BRANCH  17   6
ATOM      6  O   UNL     1      -4.628   1.503   1.698  0.00  0.00    -0.506 OA
ATOM     30  H   UNL     1      -4.967   2.338   2.063  0.00  0.00    +0.292 HD
ENDBRANCH  17   6
ENDBRANCH  14  15
ENDBRANCH   7  14
ENDBRANCH   9   7
BRANCH  11  13
ATOM     13  C   UNL     1       2.044  -0.688  -0.176  0.00  0.00    +0.140 C 
BRANCH  13   8
ATOM      8  N   UNL     1       3.077  -1.298   0.684  0.00  0.00    -0.187 NA
ATOM     29  H   UNL     1       2.894  -1.263   1.694  0.00  0.00    +0.148 HD
BRANCH   8   1
ATOM      1  S   UNL     1       4.693  -1.369   0.155  0.00  0.00    +0.058 S 
ATOM      4  O   UNL     1       4.745  -2.011  -1.145  0.00  0.00    -0.153 OA
ATOM      5  O   UNL     1       5.524  -1.853   1.241  0.00  0.00    -0.153 OA
BRANCH   1  16
ATOM     16  C   UNL     1       5.077   0.342  -0.066  0.00  0.00    +0.105 A 
ATOM     19  C   UNL     1       5.606   1.080   0.992  0.00  0.00    +0.028 A 
ATOM     20  C   UNL     1       4.847   0.955  -1.298  0.00  0.00    +0.028 A 
ATOM     24  C   UNL     1       5.905   2.432   0.819  0.00  0.00    +0.002 A 
ATOM     25  C   UNL     1       5.146   2.306  -1.472  0.00  0.00    +0.002 A 
ATOM     26  C   UNL     1       5.676   3.044  -0.413  0.00  0.00    +0.000 A 
ENDBRANCH   1  16
ENDBRANCH   8   1
ENDBRANCH  13   8
ENDBRANCH  11  13
TORSDOF 9
