REMARK  Name = 11912213
REMARK  7 active torsions:
REMARK  status: ('A' for Active; 'I' for Inactive)
REMARK    1  A    between atoms: S_1  and  C_21
REMARK    2  A    between atoms: S_1  and  C_25
REMARK    3  A    between atoms: O_4  and  C_29
REMARK    4  A    between atoms: C_18  and  C_21
REMARK    5  A    between atoms: C_19  and  C_22
REMARK    6  A    between atoms: C_25  and  C_29
REMARK    7  A    between atoms: C_26  and  C_30
REMARK                            x       y       z     vdW  Elec       q    Type
REMARK                         _______ _______ _______ _____ _____    ______ ____
ROOT
ATOM      2  O   UNL     1       0.357  -2.510  -1.272  0.00  0.00    -0.267 OA
ATOM      3  O   UNL     1      -3.047   1.369  -2.670  0.00  0.00    -0.275 OA
ATOM      6  N   UNL     1      -3.657   0.437  -0.631  0.00  0.00    -0.300 N 
ATOM      7  N   UNL     1      -1.393  -1.711   0.045  0.00  0.00    -0.311 N 
ATOM      9  C   UNL     1      -3.853  -2.053  -0.578  0.00  0.00    +0.027 C 
ATOM     10  C   UNL     1      -3.272  -0.831   1.475  0.00  0.00    +0.054 C 
ATOM     11  C   UNL     1      -4.098  -1.991   0.925  0.00  0.00    +0.018 C 
ATOM     12  C   UNL     1      -4.280  -0.736  -1.250  0.00  0.00    +0.113 C 
ATOM     13  C   UNL     1      -2.374  -2.373  -0.826  0.00  0.00    +0.130 C 
ATOM     14  C   UNL     1      -3.745   0.490   0.836  0.00  0.00    +0.117 C 
ATOM     15  C   UNL     1      -1.794  -1.034   1.200  0.00  0.00    +0.027 A 
ATOM     16  C   UNL     1      -0.874  -0.541   2.044  0.00  0.00    +0.022 A 
ATOM     17  C   UNL     1      -0.035  -1.889  -0.283  0.00  0.00    +0.259 A 
ATOM     18  C   UNL     1      -3.111   1.434  -1.440  0.00  0.00    +0.225 C 
ATOM     19  C   UNL     1       0.972  -1.293   0.664  0.00  0.00    +0.047 A 
ATOM     20  C   UNL     1       0.528  -0.670   1.766  0.00  0.00    +0.015 A 
ENDROOT
BRANCH  19  22
ATOM     22  C   UNL     1       2.418  -1.380   0.394  0.00  0.00    -0.011 A 
ATOM     23  C   UNL     1       3.052  -0.380  -0.344  0.00  0.00    +0.027 A 
ATOM     24  C   UNL     1       3.154  -2.462   0.876  0.00  0.00    +0.009 A 
ATOM     26  C   UNL     1       4.421  -0.462  -0.600  0.00  0.00    +0.052 A 
ATOM     27  C   UNL     1       4.523  -2.545   0.621  0.00  0.00    +0.002 A 
ATOM     28  C   UNL     1       5.157  -1.545  -0.117  0.00  0.00    +0.019 A 
BRANCH  26  30
ATOM      8  N   UNL     1       5.599   1.393  -1.972  0.00  0.00    -0.191 NA
ATOM     30  C   UNL     1       5.071   0.561  -1.357  0.00  0.00    +0.099 C 
ENDBRANCH  26  30
ENDBRANCH  19  22
BRANCH  18  21
ATOM     21  C   UNL     1      -2.567   2.651  -0.736  0.00  0.00    +0.165 C 
BRANCH  21   1
ATOM      1  S   UNL     1      -0.835   2.337  -0.362  0.00  0.00    -0.140 S 
BRANCH   1  25
ATOM     25  C   UNL     1      -0.437   3.903   0.453  0.00  0.00    +0.189 C 
BRANCH  25  29
ATOM      5  O   UNL     1       1.885   3.279   0.289  0.00  0.00    -0.250 OA
ATOM     29  C   UNL     1       1.004   3.894   0.876  0.00  0.00    +0.315 C 
BRANCH  29   4
ATOM      4  O   UNL     1       1.232   4.657   1.975  0.00  0.00    -0.480 OA
ATOM     31  H   UNL     1       2.178   4.647   2.236  0.00  0.00    +0.295 HD
ENDBRANCH  29   4
ENDBRANCH  25  29
ENDBRANCH   1  25
ENDBRANCH  21   1
ENDBRANCH  18  21
TORSDOF 7
