REMARK  Name = 45783443
REMARK  11 active torsions:
REMARK  status: ('A' for Active; 'I' for Inactive)
REMARK    1  A    between atoms: O_3  and  C_22
REMARK    2  A    between atoms: O_4  and  C_24
REMARK    3  A    between atoms: O_4  and  C_27
REMARK    4  A    between atoms: O_5  and  C_28
REMARK    5  A    between atoms: O_5  and  C_29
REMARK    6  A    between atoms: N_6  and  C_14
REMARK    7  A    between atoms: C_10  and  C_15
REMARK    8  A    between atoms: C_14  and  C_16
REMARK    9  A    between atoms: C_18  and  C_21
REMARK   10  A    between atoms: C_19  and  C_22
REMARK   11  A    between atoms: C_27  and  C_28
REMARK                            x       y       z     vdW  Elec       q    Type
REMARK                         _______ _______ _______ _____ _____    ______ ____
ROOT
ATOM      1  O   UNL     1      -2.739   2.185  -0.865  0.00  0.00    -0.336 OA
ATOM      7  N   UNL     1      -1.312   0.971   0.362  0.00  0.00    -0.189 NA
ATOM      8  N   UNL     1      -1.463   2.697  -1.132  0.00  0.00    -0.054 NA
ATOM     15  C   UNL     1      -2.560   1.172   0.024  0.00  0.00    +0.245 A 
ATOM     18  C   UNL     1      -0.676   1.930  -0.372  0.00  0.00    +0.221 A 
ENDROOT
BRANCH  18  21
ATOM      9  N   UNL     1       1.249   3.083  -1.099  0.00  0.00    -0.252 NA
ATOM     21  C   UNL     1       0.748   2.096  -0.323  0.00  0.00    +0.115 A 
ATOM     23  C   UNL     1       1.520   1.274   0.483  0.00  0.00    +0.077 A 
ATOM     24  C   UNL     1       2.895   1.479   0.493  0.00  0.00    +0.124 A 
ATOM     25  C   UNL     1       2.590   3.252  -1.063  0.00  0.00    +0.115 A 
ATOM     26  C   UNL     1       3.449   2.485  -0.292  0.00  0.00    +0.065 A 
BRANCH  24   4
ATOM      4  O   UNL     1       3.696   0.699   1.268  0.00  0.00    -0.490 OA
BRANCH   4  27
ATOM     27  C   UNL     1       5.026   0.470   0.803  0.00  0.00    +0.257 C 
BRANCH  27  28
ATOM     28  C   UNL     1       5.502  -0.878   1.309  0.00  0.00    +0.200 C 
BRANCH  28   5
ATOM      5  O   UNL     1       4.622  -1.889   0.831  0.00  0.00    -0.380 OA
ATOM     29  C   UNL     1       5.034  -3.181   1.258  0.00  0.00    +0.194 C 
ENDBRANCH  28   5
ENDBRANCH  27  28
ENDBRANCH   4  27
ENDBRANCH  24   4
ENDBRANCH  18  21
BRANCH  15  10
ATOM      6  N   UNL     1      -3.537  -0.951   0.877  0.00  0.00    -0.284 NA
ATOM     10  C   UNL     1      -3.808   0.444   0.478  0.00  0.00    +0.146 C 
ATOM     11  C   UNL     1      -4.453   1.088   1.718  0.00  0.00    +0.030 C 
ATOM     12  C   UNL     1      -4.560  -0.035   2.740  0.00  0.00    +0.017 C 
ATOM     13  C   UNL     1      -4.534  -1.291   1.893  0.00  0.00    +0.085 C 
BRANCH   6  14
ATOM     14  C   UNL     1      -3.555  -1.883  -0.243  0.00  0.00    +0.159 C 
BRANCH  14  16
ATOM      2  O   UNL     1      -1.135  -2.131  -0.330  0.00  0.00    -0.461 OA
ATOM     16  C   UNL     1      -2.268  -1.846  -1.024  0.00  0.00    +0.119 A 
ATOM     17  C   UNL     1      -1.974  -1.575  -2.340  0.00  0.00    +0.046 A 
ATOM     19  C   UNL     1      -0.106  -2.042  -1.213  0.00  0.00    +0.131 A 
ATOM     20  C   UNL     1      -0.570  -1.702  -2.463  0.00  0.00    +0.047 A 
BRANCH  19  22
ATOM     22  C   UNL     1       1.236  -2.314  -0.678  0.00  0.00    +0.230 C 
BRANCH  22   3
ATOM      3  O   UNL     1       1.683  -3.605  -1.099  0.00  0.00    -0.387 OA
ATOM     30  H   UNL     1       2.581  -3.723  -0.746  0.00  0.00    +0.210 HD
ENDBRANCH  22   3
ENDBRANCH  19  22
ENDBRANCH  14  16
ENDBRANCH   6  14
ENDBRANCH  15  10
TORSDOF 10
