REMARK  Name = 75536564
REMARK  9 active torsions:
REMARK  status: ('A' for Active; 'I' for Inactive)
REMARK    1  A    between atoms: S_1  and  C_24
REMARK    2  A    between atoms: S_1  and  C_27
REMARK    3  A    between atoms: O_3  and  C_10
REMARK    4  A    between atoms: N_7  and  C_18
REMARK    5  A    between atoms: N_8  and  C_12
REMARK    6  A    between atoms: N_8  and  C_20
REMARK    7  A    between atoms: C_9  and  C_18
REMARK    8  A    between atoms: C_11  and  C_19
REMARK    9  A    between atoms: C_20  and  C_21
REMARK                            x       y       z     vdW  Elec       q    Type
REMARK                         _______ _______ _______ _____ _____    ______ ____
ROOT
ATOM      2  O   UNL     1       2.045  -1.141  -0.531  0.00  0.00    -0.371 OA
ATOM      9  C   UNL     1       2.365   0.104   0.112  0.00  0.00    +0.165 C 
ATOM     10  C   UNL     1       1.048   0.657   0.638  0.00  0.00    +0.164 C 
ATOM     12  C   UNL     1       0.086   0.200  -0.444  0.00  0.00    +0.111 C 
ATOM     17  C   UNL     1       0.625  -1.186  -0.759  0.00  0.00    +0.181 C 
ENDROOT
BRANCH  10   3
ATOM      3  O   UNL     1       1.085   2.064   0.776  0.00  0.00    -0.388 OA
ATOM     30  H   UNL     1       1.311   2.451  -0.087  0.00  0.00    +0.210 HD
ENDBRANCH  10   3
BRANCH  12   8
ATOM      8  N   UNL     1      -1.304   0.184  -0.019  0.00  0.00    -0.305 NA
ATOM     29  H   UNL     1      -1.511   1.051   0.477  0.00  0.00    +0.123 HD
BRANCH   8  20
ATOM     20  C   UNL     1      -2.201   0.070  -1.163  0.00  0.00    +0.116 C 
BRANCH  20  21
ATOM     21  C   UNL     1      -3.646   0.035  -0.741  0.00  0.00    -0.033 A 
ATOM     22  C   UNL     1      -4.185  -1.131  -0.196  0.00  0.00    +0.007 A 
ATOM     23  C   UNL     1      -4.445   1.167  -0.895  0.00  0.00    +0.007 A 
ATOM     24  C   UNL     1      -6.323  -0.031   0.041  0.00  0.00    +0.088 A 
ATOM     25  C   UNL     1      -5.523  -1.164   0.195  0.00  0.00    +0.027 A 
ATOM     26  C   UNL     1      -5.784   1.135  -0.504  0.00  0.00    +0.027 A 
BRANCH  24   1
ATOM      1  S   UNL     1      -7.997  -0.071   0.534  0.00  0.00    -0.006 S 
ATOM      5  O   UNL     1      -8.167  -1.107   1.544  0.00  0.00    -0.170 OA
ATOM      6  O   UNL     1      -8.413   1.294   0.823  0.00  0.00    -0.170 OA
ATOM     27  C   UNL     1      -8.872  -0.614  -0.916  0.00  0.00    +0.200 C 
ENDBRANCH  24   1
ENDBRANCH  20  21
ENDBRANCH   8  20
ENDBRANCH  12   8
BRANCH   9  18
ATOM     18  C   UNL     1       3.396  -0.132   1.202  0.00  0.00    +0.138 C 
BRANCH  18   7
ATOM      4  O   UNL     1       5.691   1.369   0.250  0.00  0.00    -0.276 OA
ATOM      7  N   UNL     1       4.617  -0.656   0.661  0.00  0.00    -0.313 N 
ATOM     19  C   UNL     1       5.670   0.142   0.228  0.00  0.00    +0.216 C 
ATOM     28  H   UNL     1       4.705  -1.666   0.600  0.00  0.00    +0.149 HD
BRANCH  19  11
ATOM     11  C   UNL     1       6.834  -0.661  -0.268  0.00  0.00    +0.075 C 
ATOM     13  C   UNL     1       7.624   0.126  -1.316  0.00  0.00    +0.013 C 
ATOM     14  C   UNL     1       7.809  -0.947   0.879  0.00  0.00    +0.013 C 
ATOM     15  C   UNL     1       8.807   0.703  -0.552  0.00  0.00    +0.001 C 
ATOM     16  C   UNL     1       9.160  -0.408   0.421  0.00  0.00    +0.001 C 
ENDBRANCH  19  11
ENDBRANCH  18   7
ENDBRANCH   9  18
TORSDOF 8
