MODEL 1
REMARK VINA RESULT:      -5.3      0.000      0.000
REMARK  Name = 56775545
REMARK  10 active torsions:
REMARK  status: ('A' for Active; 'I' for Inactive)
REMARK    1  A    between atoms: O_4  and  C_20
REMARK    2  A    between atoms: O_4  and  C_22
REMARK    3  A    between atoms: O_5  and  C_21
REMARK    4  A    between atoms: N_6  and  C_8
REMARK    5  A    between atoms: N_6  and  C_12
REMARK    6  A    between atoms: C_8  and  C_11
REMARK    7  A    between atoms: C_11  and  C_13
REMARK    8  A    between atoms: C_12  and  C_14
REMARK    9  A    between atoms: C_16  and  C_20
REMARK   10  A    between atoms: C_18  and  C_21
REMARK                            x       y       z     vdW  Elec       q    Type
REMARK                         _______ _______ _______ _____ _____    ______ ____
ROOT
ATOM      1  O   UNL     1      14.744   9.752  14.978  0.00  0.00    -0.376 OA
ATOM      8  C   UNL     1      13.606   9.335  16.736  0.00  0.00    +0.072 C 
ATOM      9  C   UNL     1      14.197   8.551  15.569  0.00  0.00    +0.184 C 
ATOM     10  C   UNL     1      14.131  10.565  16.004  0.00  0.00    +0.184 C 
ENDROOT
BRANCH   8   6
ATOM      6  N   UNL     1      14.427   9.107  17.917  0.00  0.00    -0.300 NA
ATOM     23  H   UNL     1      15.390   8.827  17.731  0.00  0.00    +0.123 HD
BRANCH   6  12
ATOM     12  C   UNL     1      14.413  10.296  18.766  0.00  0.00    +0.156 C 
BRANCH  12  14
ATOM      2  O   UNL     1      14.609  10.993  21.089  0.00  0.00    -0.461 OA
ATOM     14  C   UNL     1      14.583   9.949  20.220  0.00  0.00    +0.119 A 
ATOM     17  C   UNL     1      14.725   8.757  20.893  0.00  0.00    +0.046 A 
ATOM     18  C   UNL     1      14.769  10.463  22.331  0.00  0.00    +0.131 A 
ATOM     19  C   UNL     1      14.846   9.091  22.263  0.00  0.00    +0.047 A 
BRANCH  18  21
ATOM     21  C   UNL     1      14.825  11.420  23.445  0.00  0.00    +0.230 C 
BRANCH  21   5
ATOM      5  O   UNL     1      14.679  10.735  24.691  0.00  0.00    -0.387 OA
ATOM     24  H   UNL     1      15.399  10.084  24.742  0.00  0.00    +0.210 HD
ENDBRANCH  21   5
ENDBRANCH  18  21
ENDBRANCH  12  14
ENDBRANCH   6  12
ENDBRANCH   8   6
BRANCH   8  11
ATOM     11  C   UNL     1      12.138   9.225  17.014  0.00  0.00    +0.085 C 
BRANCH  11  13
ATOM      3  O   UNL     1      11.939   6.691  19.581  0.00  0.00    -0.357 OA
ATOM      7  N   UNL     1      12.330   7.143  18.327  0.00  0.00    -0.083 NA
ATOM     13  C   UNL     1      11.888   8.402  18.261  0.00  0.00    +0.086 A 
ATOM     15  C   UNL     1      11.217   8.795  19.432  0.00  0.00    +0.073 A 
ATOM     16  C   UNL     1      11.278   7.683  20.230  0.00  0.00    +0.163 A 
BRANCH  16  20
ATOM     20  C   UNL     1      10.791   7.373  21.580  0.00  0.00    +0.236 C 
BRANCH  20   4
ATOM      4  O   UNL     1      11.546   8.094  22.558  0.00  0.00    -0.375 OA
ATOM     22  C   UNL     1      10.935   9.335  22.865  0.00  0.00    +0.194 C 
ENDBRANCH  20   4
ENDBRANCH  16  20
ENDBRANCH  11  13
ENDBRANCH   8  11
TORSDOF 9
ENDMDL
MODEL 2
REMARK VINA RESULT:      -5.3      2.703      5.557
REMARK  Name = 56775545
REMARK  10 active torsions:
REMARK  status: ('A' for Active; 'I' for Inactive)
REMARK    1  A    between atoms: O_4  and  C_20
REMARK    2  A    between atoms: O_4  and  C_22
REMARK    3  A    between atoms: O_5  and  C_21
REMARK    4  A    between atoms: N_6  and  C_8
REMARK    5  A    between atoms: N_6  and  C_12
REMARK    6  A    between atoms: C_8  and  C_11
REMARK    7  A    between atoms: C_11  and  C_13
REMARK    8  A    between atoms: C_12  and  C_14
REMARK    9  A    between atoms: C_16  and  C_20
REMARK   10  A    between atoms: C_18  and  C_21
REMARK                            x       y       z     vdW  Elec       q    Type
REMARK                         _______ _______ _______ _____ _____    ______ ____
ROOT
ATOM      1  O   UNL     1      10.348   8.095  21.136  0.00  0.00    -0.376 OA
ATOM      8  C   UNL     1      12.252   7.814  20.214  0.00  0.00    +0.072 C 
ATOM      9  C   UNL     1      11.080   8.782  20.096  0.00  0.00    +0.184 C 
ATOM     10  C   UNL     1      11.381   7.089  21.234  0.00  0.00    +0.184 C 
ENDROOT
BRANCH   8   6
ATOM      6  N   UNL     1      13.340   8.480  20.917  0.00  0.00    -0.300 NA
ATOM     23  H   UNL     1      13.059   9.244  21.532  0.00  0.00    +0.123 HD
BRANCH   6  12
ATOM     12  C   UNL     1      14.116   7.498  21.671  0.00  0.00    +0.156 C 
BRANCH  12  14
ATOM      2  O   UNL     1      15.834   6.418  20.327  0.00  0.00    -0.461 OA
ATOM     14  C   UNL     1      15.541   7.423  21.194  0.00  0.00    +0.119 A 
ATOM     17  C   UNL     1      16.661   8.180  21.452  0.00  0.00    +0.046 A 
ATOM     18  C   UNL     1      17.155   6.533  20.029  0.00  0.00    +0.131 A 
ATOM     19  C   UNL     1      17.709   7.601  20.696  0.00  0.00    +0.047 A 
BRANCH  18  21
ATOM     21  C   UNL     1      17.700   5.538  19.095  0.00  0.00    +0.230 C 
BRANCH  21   5
ATOM      5  O   UNL     1      18.976   5.080  19.551  0.00  0.00    -0.387 OA
ATOM     24  H   UNL     1      19.457   4.762  18.769  0.00  0.00    +0.210 HD
ENDBRANCH  21   5
ENDBRANCH  18  21
ENDBRANCH  12  14
ENDBRANCH   6  12
ENDBRANCH   8   6
BRANCH   8  11
ATOM     11  C   UNL     1      12.709   7.078  18.993  0.00  0.00    +0.085 C 
BRANCH  11  13
ATOM      3  O   UNL     1      11.772   8.832  15.976  0.00  0.00    -0.357 OA
ATOM      7  N   UNL     1      11.532   7.912  16.989  0.00  0.00    -0.083 NA
ATOM     13  C   UNL     1      12.618   7.962  17.766  0.00  0.00    +0.086 A 
ATOM     15  C   UNL     1      13.568   8.886  17.297  0.00  0.00    +0.073 A 
ATOM     16  C   UNL     1      12.987   9.406  16.170  0.00  0.00    +0.163 A 
BRANCH  16  20
ATOM     20  C   UNL     1      13.403  10.410  15.183  0.00  0.00    +0.236 C 
BRANCH  20   4
ATOM      4  O   UNL     1      14.659  10.047  14.604  0.00  0.00    -0.375 OA
ATOM     22  C   UNL     1      15.652  11.020  14.884  0.00  0.00    +0.194 C 
ENDBRANCH  20   4
ENDBRANCH  16  20
ENDBRANCH  11  13
ENDBRANCH   8  11
TORSDOF 9
ENDMDL
MODEL 3
REMARK VINA RESULT:      -5.2     13.467     17.221
REMARK  Name = 56775545
REMARK  10 active torsions:
REMARK  status: ('A' for Active; 'I' for Inactive)
REMARK    1  A    between atoms: O_4  and  C_20
REMARK    2  A    between atoms: O_4  and  C_22
REMARK    3  A    between atoms: O_5  and  C_21
REMARK    4  A    between atoms: N_6  and  C_8
REMARK    5  A    between atoms: N_6  and  C_12
REMARK    6  A    between atoms: C_8  and  C_11
REMARK    7  A    between atoms: C_11  and  C_13
REMARK    8  A    between atoms: C_12  and  C_14
REMARK    9  A    between atoms: C_16  and  C_20
REMARK   10  A    between atoms: C_18  and  C_21
REMARK                            x       y       z     vdW  Elec       q    Type
REMARK                         _______ _______ _______ _____ _____    ______ ____
ROOT
ATOM      1  O   UNL     1      11.862   8.304   3.533  0.00  0.00    -0.376 OA
ATOM      8  C   UNL     1      11.085   6.319   3.641  0.00  0.00    +0.072 C 
ATOM      9  C   UNL     1      12.347   7.003   3.128  0.00  0.00    +0.184 C 
ATOM     10  C   UNL     1      10.603   7.731   3.953  0.00  0.00    +0.184 C 
ENDROOT
BRANCH   8   6
ATOM      6  N   UNL     1      11.395   5.642   4.893  0.00  0.00    -0.300 NA
ATOM     23  H   UNL     1      11.753   6.243   5.635  0.00  0.00    +0.123 HD
BRANCH   6  12
ATOM     12  C   UNL     1      10.219   4.917   5.368  0.00  0.00    +0.156 C 
BRANCH  12  14
ATOM      2  O   UNL     1       9.848   4.593   7.751  0.00  0.00    -0.461 OA
ATOM     14  C   UNL     1       9.736   5.440   6.694  0.00  0.00    +0.119 A 
ATOM     17  C   UNL     1       9.182   6.635   7.089  0.00  0.00    +0.046 A 
ATOM     18  C   UNL     1       9.360   5.255   8.833  0.00  0.00    +0.131 A 
ATOM     19  C   UNL     1       8.938   6.515   8.478  0.00  0.00    +0.047 A 
BRANCH  18  21
ATOM     21  C   UNL     1       9.381   4.524  10.108  0.00  0.00    +0.230 C 
BRANCH  21   5
ATOM      5  O   UNL     1       8.184   4.782  10.846  0.00  0.00    -0.387 OA
ATOM     24  H   UNL     1       7.536   4.109  10.578  0.00  0.00    +0.210 HD
ENDBRANCH  21   5
ENDBRANCH  18  21
ENDBRANCH  12  14
ENDBRANCH   6  12
ENDBRANCH   8   6
BRANCH   8  11
ATOM     11  C   UNL     1      10.288   5.469   2.700  0.00  0.00    +0.085 C 
BRANCH  11  13
ATOM      3  O   UNL     1      12.621   3.103   1.281  0.00  0.00    -0.357 OA
ATOM      7  N   UNL     1      11.908   3.640   2.346  0.00  0.00    -0.083 NA
ATOM     13  C   UNL     1      11.200   4.642   1.817  0.00  0.00    +0.086 A 
ATOM     15  C   UNL     1      11.423   4.784   0.436  0.00  0.00    +0.073 A 
ATOM     16  C   UNL     1      12.324   3.792   0.149  0.00  0.00    +0.163 A 
BRANCH  16  20
ATOM     20  C   UNL     1      12.994   3.353  -1.081  0.00  0.00    +0.236 C 
BRANCH  20   4
ATOM      4  O   UNL     1      12.379   2.164  -1.585  0.00  0.00    -0.375 OA
ATOM     22  C   UNL     1      11.349   2.472  -2.508  0.00  0.00    +0.194 C 
ENDBRANCH  20   4
ENDBRANCH  16  20
ENDBRANCH  11  13
ENDBRANCH   8  11
TORSDOF 9
ENDMDL
MODEL 4
REMARK VINA RESULT:      -5.2      3.379      5.393
REMARK  Name = 56775545
REMARK  10 active torsions:
REMARK  status: ('A' for Active; 'I' for Inactive)
REMARK    1  A    between atoms: O_4  and  C_20
REMARK    2  A    between atoms: O_4  and  C_22
REMARK    3  A    between atoms: O_5  and  C_21
REMARK    4  A    between atoms: N_6  and  C_8
REMARK    5  A    between atoms: N_6  and  C_12
REMARK    6  A    between atoms: C_8  and  C_11
REMARK    7  A    between atoms: C_11  and  C_13
REMARK    8  A    between atoms: C_12  and  C_14
REMARK    9  A    between atoms: C_16  and  C_20
REMARK   10  A    between atoms: C_18  and  C_21
REMARK                            x       y       z     vdW  Elec       q    Type
REMARK                         _______ _______ _______ _____ _____    ______ ____
ROOT
ATOM      1  O   UNL     1      11.126   7.013  20.851  0.00  0.00    -0.376 OA
ATOM      8  C   UNL     1      12.753   8.294  20.331  0.00  0.00    +0.072 C 
ATOM      9  C   UNL     1      11.248   8.236  20.090  0.00  0.00    +0.184 C 
ATOM     10  C   UNL     1      12.559   6.957  21.038  0.00  0.00    +0.184 C 
ENDROOT
BRANCH   8   6
ATOM      6  N   UNL     1      13.028   9.317  21.330  0.00  0.00    -0.300 NA
ATOM     23  H   UNL     1      13.929   9.234  21.802  0.00  0.00    +0.123 HD
BRANCH   6  12
ATOM     12  C   UNL     1      12.905  10.642  20.728  0.00  0.00    +0.156 C 
BRANCH  12  14
ATOM      2  O   UNL     1      11.899  11.185  22.877  0.00  0.00    -0.461 OA
ATOM     14  C   UNL     1      12.104  11.579  21.593  0.00  0.00    +0.119 A 
ATOM     17  C   UNL     1      11.509  12.797  21.360  0.00  0.00    +0.046 A 
ATOM     18  C   UNL     1      11.164  12.162  23.471  0.00  0.00    +0.131 A 
ATOM     19  C   UNL     1      10.898  13.175  22.580  0.00  0.00    +0.047 A 
BRANCH  18  21
ATOM     21  C   UNL     1      10.818  11.948  24.883  0.00  0.00    +0.230 C 
BRANCH  21   5
ATOM      5  O   UNL     1      11.552  10.840  25.409  0.00  0.00    -0.387 OA
ATOM     24  H   UNL     1      11.466  10.878  26.377  0.00  0.00    +0.210 HD
ENDBRANCH  21   5
ENDBRANCH  18  21
ENDBRANCH  12  14
ENDBRANCH   6  12
ENDBRANCH   8   6
BRANCH   8  11
ATOM     11  C   UNL     1      13.674   8.367  19.152  0.00  0.00    +0.085 C 
BRANCH  11  13
ATOM      3  O   UNL     1      17.025   8.000  20.453  0.00  0.00    -0.357 OA
ATOM      7  N   UNL     1      15.834   8.700  20.300  0.00  0.00    -0.083 NA
ATOM     13  C   UNL     1      15.070   7.918  19.532  0.00  0.00    +0.086 A 
ATOM     15  C   UNL     1      15.719   6.724  19.173  0.00  0.00    +0.073 A 
ATOM     16  C   UNL     1      16.944   6.825  19.778  0.00  0.00    +0.163 A 
BRANCH  16  20
ATOM     20  C   UNL     1      18.125   5.954  19.834  0.00  0.00    +0.236 C 
BRANCH  20   4
ATOM      4  O   UNL     1      19.205   6.623  20.491  0.00  0.00    -0.375 OA
ATOM     22  C   UNL     1      20.308   5.753  20.680  0.00  0.00    +0.194 C 
ENDBRANCH  20   4
ENDBRANCH  16  20
ENDBRANCH  11  13
ENDBRANCH   8  11
TORSDOF 9
ENDMDL
MODEL 5
REMARK VINA RESULT:      -5.0      2.312      3.299
REMARK  Name = 56775545
REMARK  10 active torsions:
REMARK  status: ('A' for Active; 'I' for Inactive)
REMARK    1  A    between atoms: O_4  and  C_20
REMARK    2  A    between atoms: O_4  and  C_22
REMARK    3  A    between atoms: O_5  and  C_21
REMARK    4  A    between atoms: N_6  and  C_8
REMARK    5  A    between atoms: N_6  and  C_12
REMARK    6  A    between atoms: C_8  and  C_11
REMARK    7  A    between atoms: C_11  and  C_13
REMARK    8  A    between atoms: C_12  and  C_14
REMARK    9  A    between atoms: C_16  and  C_20
REMARK   10  A    between atoms: C_18  and  C_21
REMARK                            x       y       z     vdW  Elec       q    Type
REMARK                         _______ _______ _______ _____ _____    ______ ____
ROOT
ATOM      1  O   UNL     1      14.718  11.969  14.987  0.00  0.00    -0.376 OA
ATOM      8  C   UNL     1      13.902  10.279  16.006  0.00  0.00    +0.072 C 
ATOM      9  C   UNL     1      15.139  11.166  16.113  0.00  0.00    +0.184 C 
ATOM     10  C   UNL     1      13.574  11.111  14.771  0.00  0.00    +0.184 C 
ENDROOT
BRANCH   8   6
ATOM      6  N   UNL     1      12.976  10.637  17.072  0.00  0.00    -0.300 NA
ATOM     23  H   UNL     1      12.412   9.868  17.435  0.00  0.00    +0.123 HD
BRANCH   6  12
ATOM     12  C   UNL     1      13.703  11.276  18.165  0.00  0.00    +0.156 C 
BRANCH  12  14
ATOM      2  O   UNL     1      12.335  10.014  19.733  0.00  0.00    -0.461 OA
ATOM     14  C   UNL     1      12.946  11.198  19.464  0.00  0.00    +0.119 A 
ATOM     17  C   UNL     1      12.725  12.098  20.480  0.00  0.00    +0.046 A 
ATOM     18  C   UNL     1      11.718  10.160  20.936  0.00  0.00    +0.131 A 
ATOM     19  C   UNL     1      11.928  11.423  21.436  0.00  0.00    +0.047 A 
BRANCH  18  21
ATOM     21  C   UNL     1      10.984   8.989  21.436  0.00  0.00    +0.230 C 
BRANCH  21   5
ATOM      5  O   UNL     1      10.403   8.268  20.347  0.00  0.00    -0.387 OA
ATOM     24  H   UNL     1       9.916   8.913  19.809  0.00  0.00    +0.210 HD
ENDBRANCH  21   5
ENDBRANCH  18  21
ENDBRANCH  12  14
ENDBRANCH   6  12
ENDBRANCH   8   6
BRANCH   8  11
ATOM     11  C   UNL     1      14.082   8.800  15.860  0.00  0.00    +0.085 C 
BRANCH  11  13
ATOM      3  O   UNL     1      12.427   7.030  18.541  0.00  0.00    -0.357 OA
ATOM      7  N   UNL     1      12.443   7.624  17.285  0.00  0.00    -0.083 NA
ATOM     13  C   UNL     1      13.689   8.082  17.135  0.00  0.00    +0.086 A 
ATOM     15  C   UNL     1      14.496   7.809  18.254  0.00  0.00    +0.073 A 
ATOM     16  C   UNL     1      13.655   7.146  19.108  0.00  0.00    +0.163 A 
BRANCH  16  20
ATOM     20  C   UNL     1      13.816   6.568  20.448  0.00  0.00    +0.236 C 
BRANCH  20   4
ATOM      4  O   UNL     1      15.190   6.254  20.691  0.00  0.00    -0.375 OA
ATOM     22  C   UNL     1      15.774   7.177  21.594  0.00  0.00    +0.194 C 
ENDBRANCH  20   4
ENDBRANCH  16  20
ENDBRANCH  11  13
ENDBRANCH   8  11
TORSDOF 9
ENDMDL
MODEL 6
REMARK VINA RESULT:      -4.9     26.429     28.669
REMARK  Name = 56775545
REMARK  10 active torsions:
REMARK  status: ('A' for Active; 'I' for Inactive)
REMARK    1  A    between atoms: O_4  and  C_20
REMARK    2  A    between atoms: O_4  and  C_22
REMARK    3  A    between atoms: O_5  and  C_21
REMARK    4  A    between atoms: N_6  and  C_8
REMARK    5  A    between atoms: N_6  and  C_12
REMARK    6  A    between atoms: C_8  and  C_11
REMARK    7  A    between atoms: C_11  and  C_13
REMARK    8  A    between atoms: C_12  and  C_14
REMARK    9  A    between atoms: C_16  and  C_20
REMARK   10  A    between atoms: C_18  and  C_21
REMARK                            x       y       z     vdW  Elec       q    Type
REMARK                         _______ _______ _______ _____ _____    ______ ____
ROOT
ATOM      1  O   UNL     1      -7.296 -12.979  19.014  0.00  0.00    -0.376 OA
ATOM      8  C   UNL     1      -6.611 -11.200  18.054  0.00  0.00    +0.072 C 
ATOM      9  C   UNL     1      -6.495 -12.706  17.842  0.00  0.00    +0.184 C 
ATOM     10  C   UNL     1      -7.367 -11.570  19.325  0.00  0.00    +0.184 C 
ENDROOT
BRANCH   8   6
ATOM      6  N   UNL     1      -7.558 -10.663  17.086  0.00  0.00    -0.300 NA
ATOM     23  H   UNL     1      -8.459 -11.139  17.047  0.00  0.00    +0.123 HD
BRANCH   6  12
ATOM     12  C   UNL     1      -7.762  -9.238  17.332  0.00  0.00    +0.156 C 
BRANCH  12  14
ATOM      2  O   UNL     1      -9.564  -7.728  16.703  0.00  0.00    -0.461 OA
ATOM     14  C   UNL     1      -9.223  -8.875  17.347  0.00  0.00    +0.119 A 
ATOM     17  C   UNL     1     -10.336  -9.473  17.891  0.00  0.00    +0.046 A 
ATOM     18  C   UNL     1     -10.910  -7.592  16.838  0.00  0.00    +0.131 A 
ATOM     19  C   UNL     1     -11.432  -8.640  17.561  0.00  0.00    +0.047 A 
BRANCH  18  21
ATOM     21  C   UNL     1     -11.510  -6.405  16.212  0.00  0.00    +0.230 C 
BRANCH  21   5
ATOM      5  O   UNL     1     -10.498  -5.610  15.590  0.00  0.00    -0.387 OA
ATOM     24  H   UNL     1     -10.519  -4.739  16.021  0.00  0.00    +0.210 HD
ENDBRANCH  21   5
ENDBRANCH  18  21
ENDBRANCH  12  14
ENDBRANCH   6  12
ENDBRANCH   8   6
BRANCH   8  11
ATOM     11  C   UNL     1      -5.360 -10.385  18.162  0.00  0.00    +0.085 C 
BRANCH  11  13
ATOM      3  O   UNL     1      -3.873 -10.573  14.874  0.00  0.00    -0.357 OA
ATOM      7  N   UNL     1      -4.915 -10.254  15.736  0.00  0.00    -0.083 NA
ATOM     13  C   UNL     1      -4.474 -10.596  16.950  0.00  0.00    +0.086 A 
ATOM     15  C   UNL     1      -3.175 -11.131  16.916  0.00  0.00    +0.073 A 
ATOM     16  C   UNL     1      -2.843 -11.095  15.587  0.00  0.00    +0.163 A 
BRANCH  16  20
ATOM     20  C   UNL     1      -1.651 -11.489  14.827  0.00  0.00    +0.236 C 
BRANCH  20   4
ATOM      4  O   UNL     1      -2.029 -12.229  13.662  0.00  0.00    -0.375 OA
ATOM     22  C   UNL     1      -1.955 -13.625  13.896  0.00  0.00    +0.194 C 
ENDBRANCH  20   4
ENDBRANCH  16  20
ENDBRANCH  11  13
ENDBRANCH   8  11
TORSDOF 9
ENDMDL
MODEL 7
REMARK VINA RESULT:      -4.9     26.598     27.640
REMARK  Name = 56775545
REMARK  10 active torsions:
REMARK  status: ('A' for Active; 'I' for Inactive)
REMARK    1  A    between atoms: O_4  and  C_20
REMARK    2  A    between atoms: O_4  and  C_22
REMARK    3  A    between atoms: O_5  and  C_21
REMARK    4  A    between atoms: N_6  and  C_8
REMARK    5  A    between atoms: N_6  and  C_12
REMARK    6  A    between atoms: C_8  and  C_11
REMARK    7  A    between atoms: C_11  and  C_13
REMARK    8  A    between atoms: C_12  and  C_14
REMARK    9  A    between atoms: C_16  and  C_20
REMARK   10  A    between atoms: C_18  and  C_21
REMARK                            x       y       z     vdW  Elec       q    Type
REMARK                         _______ _______ _______ _____ _____    ______ ____
ROOT
ATOM      1  O   UNL     1      -2.061 -14.307  12.640  0.00  0.00    -0.376 OA
ATOM      8  C   UNL     1      -2.459 -12.393  13.498  0.00  0.00    +0.072 C 
ATOM      9  C   UNL     1      -3.029 -13.265  12.384  0.00  0.00    +0.184 C 
ATOM     10  C   UNL     1      -1.414 -13.493  13.644  0.00  0.00    +0.184 C 
ENDROOT
BRANCH   8   6
ATOM      6  N   UNL     1      -3.359 -12.448  14.642  0.00  0.00    -0.300 NA
ATOM     23  H   UNL     1      -3.409 -13.351  15.114  0.00  0.00    +0.123 HD
BRANCH   6  12
ATOM     12  C   UNL     1      -3.001 -11.407  15.603  0.00  0.00    +0.156 C 
BRANCH  12  14
ATOM      2  O   UNL     1      -4.340 -11.325  17.634  0.00  0.00    -0.461 OA
ATOM     14  C   UNL     1      -4.203 -10.897  16.352  0.00  0.00    +0.119 A 
ATOM     17  C   UNL     1      -5.238 -10.058  16.009  0.00  0.00    +0.046 A 
ATOM     18  C   UNL     1      -5.475 -10.753  18.116  0.00  0.00    +0.131 A 
ATOM     19  C   UNL     1      -6.064  -9.965  17.155  0.00  0.00    +0.047 A 
BRANCH  18  21
ATOM     21  C   UNL     1      -5.827 -11.077  19.506  0.00  0.00    +0.230 C 
BRANCH  21   5
ATOM      5  O   UNL     1      -6.809 -10.160  19.993  0.00  0.00    -0.387 OA
ATOM     24  H   UNL     1      -7.679 -10.550  19.804  0.00  0.00    +0.210 HD
ENDBRANCH  21   5
ENDBRANCH  18  21
ENDBRANCH  12  14
ENDBRANCH   6  12
ENDBRANCH   8   6
BRANCH   8  11
ATOM     11  C   UNL     1      -2.011 -11.002  13.173  0.00  0.00    +0.085 C 
BRANCH  11  13
ATOM      3  O   UNL     1      -4.785  -9.553  11.367  0.00  0.00    -0.357 OA
ATOM      7  N   UNL     1      -4.226 -10.150  12.490  0.00  0.00    -0.083 NA
ATOM     13  C   UNL     1      -2.945 -10.357  12.170  0.00  0.00    +0.086 A 
ATOM     15  C   UNL     1      -2.642  -9.915  10.870  0.00  0.00    +0.073 A 
ATOM     16  C   UNL     1      -3.833  -9.418  10.409  0.00  0.00    +0.163 A 
BRANCH  16  20
ATOM     20  C   UNL     1      -4.255  -8.800   9.146  0.00  0.00    +0.236 C 
BRANCH  20   4
ATOM      4  O   UNL     1      -5.395  -9.484   8.616  0.00  0.00    -0.375 OA
ATOM     22  C   UNL     1      -5.004 -10.597   7.830  0.00  0.00    +0.194 C 
ENDBRANCH  20   4
ENDBRANCH  16  20
ENDBRANCH  11  13
ENDBRANCH   8  11
TORSDOF 9
ENDMDL
MODEL 8
REMARK VINA RESULT:      -4.8     14.933     18.751
REMARK  Name = 56775545
REMARK  10 active torsions:
REMARK  status: ('A' for Active; 'I' for Inactive)
REMARK    1  A    between atoms: O_4  and  C_20
REMARK    2  A    between atoms: O_4  and  C_22
REMARK    3  A    between atoms: O_5  and  C_21
REMARK    4  A    between atoms: N_6  and  C_8
REMARK    5  A    between atoms: N_6  and  C_12
REMARK    6  A    between atoms: C_8  and  C_11
REMARK    7  A    between atoms: C_11  and  C_13
REMARK    8  A    between atoms: C_12  and  C_14
REMARK    9  A    between atoms: C_16  and  C_20
REMARK   10  A    between atoms: C_18  and  C_21
REMARK                            x       y       z     vdW  Elec       q    Type
REMARK                         _______ _______ _______ _____ _____    ______ ____
ROOT
ATOM      1  O   UNL     1      13.545   7.511   2.172  0.00  0.00    -0.376 OA
ATOM      8  C   UNL     1      12.213   5.845   2.260  0.00  0.00    +0.072 C 
ATOM      9  C   UNL     1      13.243   6.508   3.169  0.00  0.00    +0.184 C 
ATOM     10  C   UNL     1      12.652   6.877   1.228  0.00  0.00    +0.184 C 
ENDROOT
BRANCH   8   6
ATOM      6  N   UNL     1      10.879   6.194   2.732  0.00  0.00    -0.300 NA
ATOM     23  H   UNL     1      10.216   6.461   2.005  0.00  0.00    +0.123 HD
BRANCH   6  12
ATOM     12  C   UNL     1      10.331   5.093   3.521  0.00  0.00    +0.156 C 
BRANCH  12  14
ATOM      2  O   UNL     1      10.310   5.082   5.955  0.00  0.00    -0.461 OA
ATOM     14  C   UNL     1       9.744   5.574   4.822  0.00  0.00    +0.119 A 
ATOM     17  C   UNL     1       8.718   6.437   5.129  0.00  0.00    +0.046 A 
ATOM     18  C   UNL     1       9.638   5.637   6.998  0.00  0.00    +0.131 A 
ATOM     19  C   UNL     1       8.649   6.478   6.543  0.00  0.00    +0.047 A 
BRANCH  18  21
ATOM     21  C   UNL     1      10.084   5.245   8.342  0.00  0.00    +0.230 C 
BRANCH  21   5
ATOM      5  O   UNL     1      10.304   3.834   8.398  0.00  0.00    -0.387 OA
ATOM     24  H   UNL     1      11.201   3.674   8.060  0.00  0.00    +0.210 HD
ENDBRANCH  21   5
ENDBRANCH  18  21
ENDBRANCH  12  14
ENDBRANCH   6  12
ENDBRANCH   8   6
BRANCH   8  11
ATOM     11  C   UNL     1      12.357   4.389   1.941  0.00  0.00    +0.085 C 
BRANCH  11  13
ATOM      3  O   UNL     1      10.226   3.911  -0.937  0.00  0.00    -0.357 OA
ATOM      7  N   UNL     1      10.449   4.306   0.376  0.00  0.00    -0.083 NA
ATOM     13  C   UNL     1      11.747   4.071   0.591  0.00  0.00    +0.086 A 
ATOM     15  C   UNL     1      12.387   3.533  -0.539  0.00  0.00    +0.073 A 
ATOM     16  C   UNL     1      11.387   3.453  -1.472  0.00  0.00    +0.163 A 
BRANCH  16  20
ATOM     20  C   UNL     1      11.331   2.991  -2.864  0.00  0.00    +0.236 C 
BRANCH  20   4
ATOM      4  O   UNL     1      10.048   2.427  -3.149  0.00  0.00    -0.375 OA
ATOM     22  C   UNL     1       9.667   2.671  -4.492  0.00  0.00    +0.194 C 
ENDBRANCH  20   4
ENDBRANCH  16  20
ENDBRANCH  11  13
ENDBRANCH   8  11
TORSDOF 9
ENDMDL
MODEL 9
REMARK VINA RESULT:      -4.7     26.597     27.763
REMARK  Name = 56775545
REMARK  10 active torsions:
REMARK  status: ('A' for Active; 'I' for Inactive)
REMARK    1  A    between atoms: O_4  and  C_20
REMARK    2  A    between atoms: O_4  and  C_22
REMARK    3  A    between atoms: O_5  and  C_21
REMARK    4  A    between atoms: N_6  and  C_8
REMARK    5  A    between atoms: N_6  and  C_12
REMARK    6  A    between atoms: C_8  and  C_11
REMARK    7  A    between atoms: C_11  and  C_13
REMARK    8  A    between atoms: C_12  and  C_14
REMARK    9  A    between atoms: C_16  and  C_20
REMARK   10  A    between atoms: C_18  and  C_21
REMARK                            x       y       z     vdW  Elec       q    Type
REMARK                         _______ _______ _______ _____ _____    ______ ____
ROOT
ATOM      1  O   UNL     1      -2.476 -14.276  14.281  0.00  0.00    -0.376 OA
ATOM      8  C   UNL     1      -2.853 -12.179  14.404  0.00  0.00    +0.072 C 
ATOM      9  C   UNL     1      -1.715 -13.090  13.957  0.00  0.00    +0.184 C 
ATOM     10  C   UNL     1      -3.554 -13.471  14.808  0.00  0.00    +0.184 C 
ENDROOT
BRANCH   8   6
ATOM      6  N   UNL     1      -3.512 -11.638  13.223  0.00  0.00    -0.300 NA
ATOM     23  H   UNL     1      -4.527 -11.558  13.289  0.00  0.00    +0.123 HD
BRANCH   6  12
ATOM     12  C   UNL     1      -2.935 -10.340  12.885  0.00  0.00    +0.156 C 
BRANCH  12  14
ATOM      2  O   UNL     1      -4.749  -9.665  11.410  0.00  0.00    -0.461 OA
ATOM     14  C   UNL     1      -3.409  -9.847  11.544  0.00  0.00    +0.119 A 
ATOM     17  C   UNL     1      -2.759  -9.526  10.375  0.00  0.00    +0.046 A 
ATOM     18  C   UNL     1      -4.957  -9.224  10.141  0.00  0.00    +0.131 A 
ATOM     19  C   UNL     1      -3.764  -9.122   9.464  0.00  0.00    +0.047 A 
BRANCH  18  21
ATOM     21  C   UNL     1      -6.352  -8.956   9.766  0.00  0.00    +0.230 C 
BRANCH  21   5
ATOM      5  O   UNL     1      -6.442  -7.729   9.038  0.00  0.00    -0.387 OA
ATOM     24  H   UNL     1      -6.919  -7.923   8.214  0.00  0.00    +0.210 HD
ENDBRANCH  21   5
ENDBRANCH  18  21
ENDBRANCH  12  14
ENDBRANCH   6  12
ENDBRANCH   8   6
BRANCH   8  11
ATOM     11  C   UNL     1      -2.583 -11.140  15.448  0.00  0.00    +0.085 C 
BRANCH  11  13
ATOM      3  O   UNL     1      -5.848 -10.242  16.707  0.00  0.00    -0.357 OA
ATOM      7  N   UNL     1      -4.914 -10.361  15.686  0.00  0.00    -0.083 NA
ATOM     13  C   UNL     1      -3.825 -10.868  16.272  0.00  0.00    +0.086 A 
ATOM     15  C   UNL     1      -4.012 -11.088  17.648  0.00  0.00    +0.073 A 
ATOM     16  C   UNL     1      -5.300 -10.678  17.870  0.00  0.00    +0.163 A 
BRANCH  16  20
ATOM     20  C   UNL     1      -6.157 -10.621  19.061  0.00  0.00    +0.236 C 
BRANCH  20   4
ATOM      4  O   UNL     1      -6.335 -11.932  19.608  0.00  0.00    -0.375 OA
ATOM     22  C   UNL     1      -7.402 -12.612  18.970  0.00  0.00    +0.194 C 
ENDBRANCH  20   4
ENDBRANCH  16  20
ENDBRANCH  11  13
ENDBRANCH   8  11
TORSDOF 9
ENDMDL
MODEL 10
REMARK VINA RESULT:      -4.6     27.863     30.748
REMARK  Name = 56775545
REMARK  10 active torsions:
REMARK  status: ('A' for Active; 'I' for Inactive)
REMARK    1  A    between atoms: O_4  and  C_20
REMARK    2  A    between atoms: O_4  and  C_22
REMARK    3  A    between atoms: O_5  and  C_21
REMARK    4  A    between atoms: N_6  and  C_8
REMARK    5  A    between atoms: N_6  and  C_12
REMARK    6  A    between atoms: C_8  and  C_11
REMARK    7  A    between atoms: C_11  and  C_13
REMARK    8  A    between atoms: C_12  and  C_14
REMARK    9  A    between atoms: C_16  and  C_20
REMARK   10  A    between atoms: C_18  and  C_21
REMARK                            x       y       z     vdW  Elec       q    Type
REMARK                         _______ _______ _______ _____ _____    ______ ____
ROOT
ATOM      1  O   UNL     1     -17.103   0.210  25.050  0.00  0.00    -0.376 OA
ATOM      8  C   UNL     1     -16.888   1.966  26.245  0.00  0.00    +0.072 C 
ATOM      9  C   UNL     1     -16.212   0.604  26.118  0.00  0.00    +0.184 C 
ATOM     10  C   UNL     1     -17.846   1.443  25.181  0.00  0.00    +0.184 C 
ENDROOT
BRANCH   8   6
ATOM      6  N   UNL     1     -16.025   2.974  25.644  0.00  0.00    -0.300 NA
ATOM     23  H   UNL     1     -15.524   2.675  24.807  0.00  0.00    +0.123 HD
BRANCH   6  12
ATOM     12  C   UNL     1     -16.800   4.177  25.352  0.00  0.00    +0.156 C 
BRANCH  12  14
ATOM      2  O   UNL     1     -14.971   4.557  23.792  0.00  0.00    -0.461 OA
ATOM     14  C   UNL     1     -16.140   5.028  24.301  0.00  0.00    +0.119 A 
ATOM     17  C   UNL     1     -16.472   6.229  23.716  0.00  0.00    +0.046 A 
ATOM     18  C   UNL     1     -14.552   5.466  22.873  0.00  0.00    +0.131 A 
ATOM     19  C   UNL     1     -15.441   6.513  22.789  0.00  0.00    +0.047 A 
BRANCH  18  21
ATOM     21  C   UNL     1     -13.291   5.161  22.184  0.00  0.00    +0.230 C 
BRANCH  21   5
ATOM      5  O   UNL     1     -12.475   4.315  22.998  0.00  0.00    -0.387 OA
ATOM     24  H   UNL     1     -12.069   4.882  23.676  0.00  0.00    +0.210 HD
ENDBRANCH  21   5
ENDBRANCH  18  21
ENDBRANCH  12  14
ENDBRANCH   6  12
ENDBRANCH   8   6
BRANCH   8  11
ATOM     11  C   UNL     1     -17.434   2.383  27.576  0.00  0.00    +0.085 C 
BRANCH  11  13
ATOM      3  O   UNL     1     -14.693   3.257  29.761  0.00  0.00    -0.357 OA
ATOM      7  N   UNL     1     -15.585   3.539  28.734  0.00  0.00    -0.083 NA
ATOM     13  C   UNL     1     -16.333   2.438  28.615  0.00  0.00    +0.086 A 
ATOM     15  C   UNL     1     -15.963   1.439  29.532  0.00  0.00    +0.073 A 
ATOM     16  C   UNL     1     -14.927   2.004  30.229  0.00  0.00    +0.163 A 
BRANCH  16  20
ATOM     20  C   UNL     1     -14.067   1.541  31.325  0.00  0.00    +0.236 C 
BRANCH  20   4
ATOM      4  O   UNL     1     -14.851   1.269  32.490  0.00  0.00    -0.375 OA
ATOM     22  C   UNL     1     -15.081   2.449  33.240  0.00  0.00    +0.194 C 
ENDBRANCH  20   4
ENDBRANCH  16  20
ENDBRANCH  11  13
ENDBRANCH   8  11
TORSDOF 9
ENDMDL
