MODEL 1
REMARK VINA RESULT:      -6.1      0.000      0.000
REMARK  Name = 51136652
REMARK  12 active torsions:
REMARK  status: ('A' for Active; 'I' for Inactive)
REMARK    1  A    between atoms: O_2  and  C_16
REMARK    2  A    between atoms: O_4  and  C_27
REMARK    3  A    between atoms: O_4  and  C_30
REMARK    4  A    between atoms: C_7  and  C_12
REMARK    5  A    between atoms: C_8  and  C_13
REMARK    6  A    between atoms: C_12  and  C_14
REMARK    7  A    between atoms: C_13  and  C_16
REMARK    8  A    between atoms: C_15  and  C_18
REMARK    9  A    between atoms: C_18  and  C_22
REMARK   10  A    between atoms: C_22  and  C_24
REMARK   11  A    between atoms: C_24  and  C_28
REMARK   12  A    between atoms: C_28  and  C_29
REMARK                            x       y       z     vdW  Elec       q    Type
REMARK                         _______ _______ _______ _____ _____    ______ ____
ROOT
ATOM      1  O   UNL     1      10.654   8.292  17.373  0.00  0.00    -0.276 OA
ATOM      5  N   UNL     1      12.906   8.819  17.160  0.00  0.00    -0.301 N 
ATOM      7  C   UNL     1      14.842  10.329  17.545  0.00  0.00    +0.016 C 
ATOM      8  C   UNL     1      14.742  10.773  16.064  0.00  0.00    +0.006 C 
ATOM      9  C   UNL     1      13.312  10.614  15.520  0.00  0.00    +0.023 C 
ATOM     10  C   UNL     1      14.268   8.909  17.705  0.00  0.00    +0.112 C 
ATOM     11  C   UNL     1      12.785   9.200  15.754  0.00  0.00    +0.108 C 
ATOM     15  C   UNL     1      11.783   8.384  17.863  0.00  0.00    +0.216 C 
ENDROOT
BRANCH   7  12
ATOM     12  C   UNL     1      14.168  11.291  18.530  0.00  0.00    +0.061 C 
BRANCH  12  14
ATOM      6  N   UNL     1      15.600  10.324  20.197  0.00  0.00    -0.287 NA
ATOM     14  C   UNL     1      14.449  10.854  19.948  0.00  0.00    +0.044 C 
ATOM     17  C   UNL     1      13.396  11.045  20.978  0.00  0.00    -0.001 A 
ATOM     19  C   UNL     1      13.523  10.299  22.156  0.00  0.00    -0.033 A 
ATOM     20  C   UNL     1      14.685   9.360  22.293  0.00  0.00    +0.059 C 
ATOM     21  C   UNL     1      15.896   9.955  21.586  0.00  0.00    +0.146 C 
ATOM     23  C   UNL     1      12.313  11.908  20.800  0.00  0.00    +0.013 A 
ATOM     25  C   UNL     1      12.543  10.403  23.148  0.00  0.00    +0.050 A 
ATOM     26  C   UNL     1      11.349  12.018  21.802  0.00  0.00    +0.046 A 
ATOM     27  C   UNL     1      11.461  11.265  22.972  0.00  0.00    +0.120 A 
BRANCH  27   4
ATOM      4  O   UNL     1      10.512  11.371  23.942  0.00  0.00    -0.495 OA
ATOM     30  C   UNL     1      10.882  12.054  25.139  0.00  0.00    +0.277 C 
ENDBRANCH  27   4
ENDBRANCH  12  14
ENDBRANCH   7  12
BRANCH   8  13
ATOM     13  C   UNL     1      15.253  12.194  15.826  0.00  0.00    +0.124 C 
BRANCH  13  16
ATOM      3  O   UNL     1      16.703  13.232  14.164  0.00  0.00    -0.251 OA
ATOM     16  C   UNL     1      16.294  12.236  14.741  0.00  0.00    +0.305 C 
BRANCH  16   2
ATOM      2  O   UNL     1      16.734  10.977  14.482  0.00  0.00    -0.481 OA
ATOM     31  H   UNL     1      17.094  10.543  15.285  0.00  0.00    +0.295 HD
ENDBRANCH  16   2
ENDBRANCH  13  16
ENDBRANCH   8  13
BRANCH  15  18
ATOM     18  C   UNL     1      11.992   8.011  19.308  0.00  0.00    +0.096 C 
BRANCH  18  22
ATOM     22  C   UNL     1      10.865   8.562  20.167  0.00  0.00    +0.009 C 
BRANCH  22  24
ATOM     24  C   UNL     1      10.610   7.718  21.420  0.00  0.00    +0.000 C 
BRANCH  24  28
ATOM     28  C   UNL     1      11.656   6.613  21.567  0.00  0.00    -0.003 C 
ATOM     29  C   UNL     1      11.009   5.242  21.672  0.00  0.00    +0.004 C 
ENDBRANCH  24  28
ENDBRANCH  22  24
ENDBRANCH  18  22
ENDBRANCH  15  18
TORSDOF 10
ENDMDL
MODEL 2
REMARK VINA RESULT:      -5.8      2.845      6.664
REMARK  Name = 51136652
REMARK  12 active torsions:
REMARK  status: ('A' for Active; 'I' for Inactive)
REMARK    1  A    between atoms: O_2  and  C_16
REMARK    2  A    between atoms: O_4  and  C_27
REMARK    3  A    between atoms: O_4  and  C_30
REMARK    4  A    between atoms: C_7  and  C_12
REMARK    5  A    between atoms: C_8  and  C_13
REMARK    6  A    between atoms: C_12  and  C_14
REMARK    7  A    between atoms: C_13  and  C_16
REMARK    8  A    between atoms: C_15  and  C_18
REMARK    9  A    between atoms: C_18  and  C_22
REMARK   10  A    between atoms: C_22  and  C_24
REMARK   11  A    between atoms: C_24  and  C_28
REMARK   12  A    between atoms: C_28  and  C_29
REMARK                            x       y       z     vdW  Elec       q    Type
REMARK                         _______ _______ _______ _____ _____    ______ ____
ROOT
ATOM      1  O   UNL     1      11.601   5.920  21.437  0.00  0.00    -0.276 OA
ATOM      5  N   UNL     1      11.324   8.197  21.075  0.00  0.00    -0.301 N 
ATOM      7  C   UNL     1      12.137  10.542  21.192  0.00  0.00    +0.016 C 
ATOM      8  C   UNL     1      11.203  10.766  22.410  0.00  0.00    +0.006 C 
ATOM      9  C   UNL     1      10.928   9.451  23.160  0.00  0.00    +0.023 C 
ATOM     10  C   UNL     1      11.574   9.421  20.301  0.00  0.00    +0.112 C 
ATOM     11  C   UNL     1      10.420   8.368  22.211  0.00  0.00    +0.108 C 
ATOM     15  C   UNL     1      11.849   6.938  20.786  0.00  0.00    +0.216 C 
ENDROOT
BRANCH   7  12
ATOM     12  C   UNL     1      13.592  10.244  21.571  0.00  0.00    +0.061 C 
BRANCH  12  14
ATOM      6  N   UNL     1      13.952  12.379  20.532  0.00  0.00    -0.287 NA
ATOM     14  C   UNL     1      14.500  11.305  20.995  0.00  0.00    +0.044 C 
ATOM     17  C   UNL     1      15.965  11.062  20.981  0.00  0.00    -0.001 A 
ATOM     19  C   UNL     1      16.728  11.855  20.114  0.00  0.00    -0.033 A 
ATOM     20  C   UNL     1      16.026  12.871  19.261  0.00  0.00    +0.059 C 
ATOM     21  C   UNL     1      14.837  13.435  20.028  0.00  0.00    +0.146 C 
ATOM     23  C   UNL     1      16.577  10.087  21.771  0.00  0.00    +0.013 A 
ATOM     25  C   UNL     1      18.107  11.650  20.025  0.00  0.00    +0.050 A 
ATOM     26  C   UNL     1      17.956   9.899  21.686  0.00  0.00    +0.046 A 
ATOM     27  C   UNL     1      18.720  10.676  20.813  0.00  0.00    +0.120 A 
BRANCH  27   4
ATOM      4  O   UNL     1      20.064  10.482  20.730  0.00  0.00    -0.495 OA
ATOM     30  C   UNL     1      20.583   9.283  21.304  0.00  0.00    +0.277 C 
ENDBRANCH  27   4
ENDBRANCH  12  14
ENDBRANCH   7  12
BRANCH   8  13
ATOM     13  C   UNL     1      11.715  11.838  23.372  0.00  0.00    +0.124 C 
BRANCH  13  16
ATOM      3  O   UNL     1      10.527  12.125  25.481  0.00  0.00    -0.251 OA
ATOM     16  C   UNL     1      10.625  12.333  24.281  0.00  0.00    +0.305 C 
BRANCH  16   2
ATOM      2  O   UNL     1       9.734  13.070  23.567  0.00  0.00    -0.481 OA
ATOM     31  H   UNL     1       9.423  12.594  22.768  0.00  0.00    +0.295 HD
ENDBRANCH  16   2
ENDBRANCH  13  16
ENDBRANCH   8  13
BRANCH  15  18
ATOM     18  C   UNL     1      12.774   6.847  19.599  0.00  0.00    +0.096 C 
BRANCH  18  22
ATOM     22  C   UNL     1      14.225   6.913  20.050  0.00  0.00    +0.009 C 
BRANCH  22  24
ATOM     24  C   UNL     1      15.082   7.813  19.154  0.00  0.00    +0.000 C 
BRANCH  24  28
ATOM     28  C   UNL     1      14.295   8.291  17.934  0.00  0.00    -0.003 C 
ATOM     29  C   UNL     1      14.453   9.788  17.719  0.00  0.00    +0.004 C 
ENDBRANCH  24  28
ENDBRANCH  22  24
ENDBRANCH  18  22
ENDBRANCH  15  18
TORSDOF 10
ENDMDL
MODEL 3
REMARK VINA RESULT:      -5.7      3.440      7.147
REMARK  Name = 51136652
REMARK  12 active torsions:
REMARK  status: ('A' for Active; 'I' for Inactive)
REMARK    1  A    between atoms: O_2  and  C_16
REMARK    2  A    between atoms: O_4  and  C_27
REMARK    3  A    between atoms: O_4  and  C_30
REMARK    4  A    between atoms: C_7  and  C_12
REMARK    5  A    between atoms: C_8  and  C_13
REMARK    6  A    between atoms: C_12  and  C_14
REMARK    7  A    between atoms: C_13  and  C_16
REMARK    8  A    between atoms: C_15  and  C_18
REMARK    9  A    between atoms: C_18  and  C_22
REMARK   10  A    between atoms: C_22  and  C_24
REMARK   11  A    between atoms: C_24  and  C_28
REMARK   12  A    between atoms: C_28  and  C_29
REMARK                            x       y       z     vdW  Elec       q    Type
REMARK                         _______ _______ _______ _____ _____    ______ ____
ROOT
ATOM      1  O   UNL     1      13.451  13.831  22.474  0.00  0.00    -0.276 OA
ATOM      5  N   UNL     1      13.318  11.519  22.640  0.00  0.00    -0.301 N 
ATOM      7  C   UNL     1      13.490   9.245  21.654  0.00  0.00    +0.016 C 
ATOM      8  C   UNL     1      11.942   9.189  21.604  0.00  0.00    +0.006 C 
ATOM      9  C   UNL     1      11.328  10.597  21.514  0.00  0.00    +0.023 C 
ATOM     10  C   UNL     1      13.943  10.196  22.775  0.00  0.00    +0.112 C 
ATOM     11  C   UNL     1      11.856  11.504  22.624  0.00  0.00    +0.108 C 
ATOM     15  C   UNL     1      14.003  12.731  22.561  0.00  0.00    +0.216 C 
ENDROOT
BRANCH   7  12
ATOM     12  C   UNL     1      14.141   9.639  20.323  0.00  0.00    +0.061 C 
BRANCH  12  14
ATOM      6  N   UNL     1      14.640   7.722  18.966  0.00  0.00    -0.287 NA
ATOM     14  C   UNL     1      15.073   8.544  19.863  0.00  0.00    +0.044 C 
ATOM     17  C   UNL     1      16.429   8.458  20.464  0.00  0.00    -0.001 A 
ATOM     19  C   UNL     1      17.109   7.243  20.319  0.00  0.00    -0.033 A 
ATOM     20  C   UNL     1      16.429   6.120  19.591  0.00  0.00    +0.059 C 
ATOM     21  C   UNL     1      15.565   6.695  18.475  0.00  0.00    +0.146 C 
ATOM     23  C   UNL     1      17.015   9.518  21.159  0.00  0.00    +0.013 A 
ATOM     25  C   UNL     1      18.372   7.085  20.895  0.00  0.00    +0.050 A 
ATOM     26  C   UNL     1      18.282   9.357  21.718  0.00  0.00    +0.046 A 
ATOM     27  C   UNL     1      18.958   8.142  21.590  0.00  0.00    +0.120 A 
BRANCH  27   4
ATOM      4  O   UNL     1      20.192   7.989  22.145  0.00  0.00    -0.495 OA
ATOM     30  C   UNL     1      20.263   7.953  23.569  0.00  0.00    +0.277 C 
ENDBRANCH  27   4
ENDBRANCH  12  14
ENDBRANCH   7  12
BRANCH   8  13
ATOM     13  C   UNL     1      11.406   8.297  20.484  0.00  0.00    +0.124 C 
BRANCH  13  16
ATOM      3  O   UNL     1      11.335   6.262  21.825  0.00  0.00    -0.251 OA
ATOM     16  C   UNL     1      11.619   6.839  20.787  0.00  0.00    +0.305 C 
BRANCH  16   2
ATOM      2  O   UNL     1      12.188   6.229  19.714  0.00  0.00    -0.481 OA
ATOM     31  H   UNL     1      12.711   5.441  19.977  0.00  0.00    +0.295 HD
ENDBRANCH  16   2
ENDBRANCH  13  16
ENDBRANCH   8  13
BRANCH  15  18
ATOM     18  C   UNL     1      15.508  12.660  22.581  0.00  0.00    +0.096 C 
BRANCH  18  22
ATOM     22  C   UNL     1      16.094  13.452  21.424  0.00  0.00    +0.009 C 
BRANCH  22  24
ATOM     24  C   UNL     1      15.771  12.832  20.061  0.00  0.00    +0.000 C 
BRANCH  24  28
ATOM     28  C   UNL     1      17.036  12.646  19.223  0.00  0.00    -0.003 C 
ATOM     29  C   UNL     1      18.291  12.843  20.057  0.00  0.00    +0.004 C 
ENDBRANCH  24  28
ENDBRANCH  22  24
ENDBRANCH  18  22
ENDBRANCH  15  18
TORSDOF 10
ENDMDL
MODEL 4
REMARK VINA RESULT:      -5.6     26.225     28.895
REMARK  Name = 51136652
REMARK  12 active torsions:
REMARK  status: ('A' for Active; 'I' for Inactive)
REMARK    1  A    between atoms: O_2  and  C_16
REMARK    2  A    between atoms: O_4  and  C_27
REMARK    3  A    between atoms: O_4  and  C_30
REMARK    4  A    between atoms: C_7  and  C_12
REMARK    5  A    between atoms: C_8  and  C_13
REMARK    6  A    between atoms: C_12  and  C_14
REMARK    7  A    between atoms: C_13  and  C_16
REMARK    8  A    between atoms: C_15  and  C_18
REMARK    9  A    between atoms: C_18  and  C_22
REMARK   10  A    between atoms: C_22  and  C_24
REMARK   11  A    between atoms: C_24  and  C_28
REMARK   12  A    between atoms: C_28  and  C_29
REMARK                            x       y       z     vdW  Elec       q    Type
REMARK                         _______ _______ _______ _____ _____    ______ ____
ROOT
ATOM      1  O   UNL     1      -1.264  -9.706  12.164  0.00  0.00    -0.276 OA
ATOM      5  N   UNL     1      -2.460 -11.103  13.583  0.00  0.00    -0.301 N 
ATOM      7  C   UNL     1      -4.367 -11.550  15.111  0.00  0.00    +0.016 C 
ATOM      8  C   UNL     1      -3.395 -11.400  16.309  0.00  0.00    +0.006 C 
ATOM      9  C   UNL     1      -2.201 -10.495  15.958  0.00  0.00    +0.023 C 
ATOM     10  C   UNL     1      -3.591 -11.999  13.860  0.00  0.00    +0.112 C 
ATOM     11  C   UNL     1      -1.506 -10.966  14.682  0.00  0.00    +0.108 C 
ATOM     15  C   UNL     1      -2.238 -10.433  12.381  0.00  0.00    +0.216 C 
ENDROOT
BRANCH   7  12
ATOM     12  C   UNL     1      -5.182 -10.287  14.808  0.00  0.00    +0.061 C 
BRANCH  12  14
ATOM      6  N   UNL     1      -6.858 -11.481  13.570  0.00  0.00    -0.287 NA
ATOM     14  C   UNL     1      -6.621 -10.658  14.537  0.00  0.00    +0.044 C 
ATOM     17  C   UNL     1      -7.686 -10.058  15.381  0.00  0.00    -0.001 A 
ATOM     19  C   UNL     1      -8.992 -10.105  14.878  0.00  0.00    -0.033 A 
ATOM     20  C   UNL     1      -9.224 -10.733  13.535  0.00  0.00    +0.059 C 
ATOM     21  C   UNL     1      -8.250 -11.888  13.346  0.00  0.00    +0.146 C 
ATOM     23  C   UNL     1      -7.423  -9.458  16.614  0.00  0.00    +0.013 A 
ATOM     25  C   UNL     1     -10.033  -9.523  15.606  0.00  0.00    +0.050 A 
ATOM     26  C   UNL     1      -8.471  -8.893  17.341  0.00  0.00    +0.046 A 
ATOM     27  C   UNL     1      -9.773  -8.922  16.837  0.00  0.00    +0.120 A 
BRANCH  27   4
ATOM      4  O   UNL     1     -10.789  -8.362  17.548  0.00  0.00    -0.495 OA
ATOM     30  C   UNL     1     -11.753  -9.251  18.113  0.00  0.00    +0.277 C 
ENDBRANCH  27   4
ENDBRANCH  12  14
ENDBRANCH   7  12
BRANCH   8  13
ATOM     13  C   UNL     1      -4.082 -10.912  17.584  0.00  0.00    +0.124 C 
BRANCH  13  16
ATOM      3  O   UNL     1      -5.174 -12.770  18.723  0.00  0.00    -0.251 OA
ATOM     16  C   UNL     1      -4.222 -12.016  18.596  0.00  0.00    +0.305 C 
BRANCH  16   2
ATOM      2  O   UNL     1      -3.109 -12.066  19.374  0.00  0.00    -0.481 OA
ATOM     31  H   UNL     1      -3.173 -12.767  20.058  0.00  0.00    +0.295 HD
ENDBRANCH  16   2
ENDBRANCH  13  16
ENDBRANCH   8  13
BRANCH  15  18
ATOM     18  C   UNL     1      -3.269 -10.625  11.298  0.00  0.00    +0.096 C 
BRANCH  18  22
ATOM     22  C   UNL     1      -3.184  -9.502  10.277  0.00  0.00    +0.009 C 
BRANCH  22  24
ATOM     24  C   UNL     1      -4.424  -8.603  10.282  0.00  0.00    +0.000 C 
BRANCH  24  28
ATOM     28  C   UNL     1      -5.408  -9.021  11.375  0.00  0.00    -0.003 C 
ATOM     29  C   UNL     1      -6.839  -9.036  10.862  0.00  0.00    +0.004 C 
ENDBRANCH  24  28
ENDBRANCH  22  24
ENDBRANCH  18  22
ENDBRANCH  15  18
TORSDOF 10
ENDMDL
MODEL 5
REMARK VINA RESULT:      -5.6     25.960     28.638
REMARK  Name = 51136652
REMARK  12 active torsions:
REMARK  status: ('A' for Active; 'I' for Inactive)
REMARK    1  A    between atoms: O_2  and  C_16
REMARK    2  A    between atoms: O_4  and  C_27
REMARK    3  A    between atoms: O_4  and  C_30
REMARK    4  A    between atoms: C_7  and  C_12
REMARK    5  A    between atoms: C_8  and  C_13
REMARK    6  A    between atoms: C_12  and  C_14
REMARK    7  A    between atoms: C_13  and  C_16
REMARK    8  A    between atoms: C_15  and  C_18
REMARK    9  A    between atoms: C_18  and  C_22
REMARK   10  A    between atoms: C_22  and  C_24
REMARK   11  A    between atoms: C_24  and  C_28
REMARK   12  A    between atoms: C_28  and  C_29
REMARK                            x       y       z     vdW  Elec       q    Type
REMARK                         _______ _______ _______ _____ _____    ______ ____
ROOT
ATOM      1  O   UNL     1      -7.958 -11.447  18.870  0.00  0.00    -0.276 OA
ATOM      5  N   UNL     1      -6.306 -10.399  17.618  0.00  0.00    -0.301 N 
ATOM      7  C   UNL     1      -4.718 -10.345  15.708  0.00  0.00    +0.016 C 
ATOM      8  C   UNL     1      -3.570 -10.657  16.701  0.00  0.00    +0.006 C 
ATOM      9  C   UNL     1      -4.082 -11.415  17.938  0.00  0.00    +0.023 C 
ATOM     10  C   UNL     1      -5.867  -9.633  16.444  0.00  0.00    +0.112 C 
ATOM     11  C   UNL     1      -5.252 -10.682  18.591  0.00  0.00    +0.108 C 
ATOM     15  C   UNL     1      -7.611 -10.827  17.862  0.00  0.00    +0.216 C 
ENDROOT
BRANCH   7  12
ATOM     12  C   UNL     1      -5.245 -11.575  14.959  0.00  0.00    +0.061 C 
BRANCH  12  14
ATOM      6  N   UNL     1      -3.754 -12.641  13.407  0.00  0.00    -0.287 NA
ATOM     14  C   UNL     1      -4.585 -11.672  13.604  0.00  0.00    +0.044 C 
ATOM     17  C   UNL     1      -4.914 -10.654  12.573  0.00  0.00    -0.001 A 
ATOM     19  C   UNL     1      -4.026 -10.535  11.497  0.00  0.00    -0.033 A 
ATOM     20  C   UNL     1      -2.813 -11.417  11.463  0.00  0.00    +0.059 C 
ATOM     21  C   UNL     1      -3.159 -12.770  12.072  0.00  0.00    +0.146 C 
ATOM     23  C   UNL     1      -6.040  -9.832  12.656  0.00  0.00    +0.013 A 
ATOM     25  C   UNL     1      -4.258  -9.568  10.515  0.00  0.00    +0.050 A 
ATOM     26  C   UNL     1      -6.271  -8.880  11.663  0.00  0.00    +0.046 A 
ATOM     27  C   UNL     1      -5.381  -8.746  10.596  0.00  0.00    +0.120 A 
BRANCH  27   4
ATOM      4  O   UNL     1      -5.609  -7.811   9.634  0.00  0.00    -0.495 OA
ATOM     30  C   UNL     1      -6.781  -7.973   8.836  0.00  0.00    +0.277 C 
ENDBRANCH  27   4
ENDBRANCH  12  14
ENDBRANCH   7  12
BRANCH   8  13
ATOM     13  C   UNL     1      -2.403 -11.406  16.056  0.00  0.00    +0.124 C 
BRANCH  13  16
ATOM      3  O   UNL     1      -1.529  -9.922  14.332  0.00  0.00    -0.251 OA
ATOM     16  C   UNL     1      -1.420 -10.461  15.422  0.00  0.00    +0.305 C 
BRANCH  16   2
ATOM      2  O   UNL     1      -0.360 -10.280  16.252  0.00  0.00    -0.481 OA
ATOM     31  H   UNL     1       0.199 -11.084  16.312  0.00  0.00    +0.295 HD
ENDBRANCH  16   2
ENDBRANCH  13  16
ENDBRANCH   8  13
BRANCH  15  18
ATOM     18  C   UNL     1      -8.638 -10.498  16.808  0.00  0.00    +0.096 C 
BRANCH  18  22
ATOM     22  C   UNL     1      -9.704  -9.575  17.376  0.00  0.00    +0.009 C 
BRANCH  22  24
ATOM     24  C   UNL     1      -9.380  -8.093  17.157  0.00  0.00    +0.000 C 
BRANCH  24  28
ATOM     28  C   UNL     1     -10.597  -7.331  16.632  0.00  0.00    -0.003 C 
ATOM     29  C   UNL     1     -11.867  -8.159  16.749  0.00  0.00    +0.004 C 
ENDBRANCH  24  28
ENDBRANCH  22  24
ENDBRANCH  18  22
ENDBRANCH  15  18
TORSDOF 10
ENDMDL
MODEL 6
REMARK VINA RESULT:      -5.6      3.510      4.594
REMARK  Name = 51136652
REMARK  12 active torsions:
REMARK  status: ('A' for Active; 'I' for Inactive)
REMARK    1  A    between atoms: O_2  and  C_16
REMARK    2  A    between atoms: O_4  and  C_27
REMARK    3  A    between atoms: O_4  and  C_30
REMARK    4  A    between atoms: C_7  and  C_12
REMARK    5  A    between atoms: C_8  and  C_13
REMARK    6  A    between atoms: C_12  and  C_14
REMARK    7  A    between atoms: C_13  and  C_16
REMARK    8  A    between atoms: C_15  and  C_18
REMARK    9  A    between atoms: C_18  and  C_22
REMARK   10  A    between atoms: C_22  and  C_24
REMARK   11  A    between atoms: C_24  and  C_28
REMARK   12  A    between atoms: C_28  and  C_29
REMARK                            x       y       z     vdW  Elec       q    Type
REMARK                         _______ _______ _______ _____ _____    ______ ____
ROOT
ATOM      1  O   UNL     1      12.463   7.166  18.593  0.00  0.00    -0.276 OA
ATOM      5  N   UNL     1      13.852   7.469  20.430  0.00  0.00    -0.301 N 
ATOM      7  C   UNL     1      15.496   8.806  21.727  0.00  0.00    +0.016 C 
ATOM      8  C   UNL     1      16.612   7.859  21.217  0.00  0.00    +0.006 C 
ATOM      9  C   UNL     1      16.239   7.218  19.869  0.00  0.00    +0.023 C 
ATOM     10  C   UNL     1      14.147   8.065  21.740  0.00  0.00    +0.112 C 
ATOM     11  C   UNL     1      14.870   6.545  19.936  0.00  0.00    +0.108 C 
ATOM     15  C   UNL     1      12.699   7.700  19.680  0.00  0.00    +0.216 C 
ENDROOT
BRANCH   7  12
ATOM     12  C   UNL     1      15.380  10.113  20.934  0.00  0.00    +0.061 C 
BRANCH  12  14
ATOM      6  N   UNL     1      16.076  11.442  22.809  0.00  0.00    -0.287 NA
ATOM     14  C   UNL     1      15.192  11.273  21.883  0.00  0.00    +0.044 C 
ATOM     17  C   UNL     1      14.007  12.152  21.712  0.00  0.00    -0.001 A 
ATOM     19  C   UNL     1      13.653  12.954  22.805  0.00  0.00    -0.033 A 
ATOM     20  C   UNL     1      14.471  12.863  24.060  0.00  0.00    +0.059 C 
ATOM     21  C   UNL     1      15.927  12.604  23.693  0.00  0.00    +0.146 C 
ATOM     23  C   UNL     1      13.255  12.187  20.537  0.00  0.00    +0.013 A 
ATOM     25  C   UNL     1      12.525  13.774  22.723  0.00  0.00    +0.050 A 
ATOM     26  C   UNL     1      12.139  13.020  20.458  0.00  0.00    +0.046 A 
ATOM     27  C   UNL     1      11.772  13.809  21.549  0.00  0.00    +0.120 A 
BRANCH  27   4
ATOM      4  O   UNL     1      10.678  14.614  21.468  0.00  0.00    -0.495 OA
ATOM     30  C   UNL     1       9.926  14.811  22.664  0.00  0.00    +0.277 C 
ENDBRANCH  27   4
ENDBRANCH  12  14
ENDBRANCH   7  12
BRANCH   8  13
ATOM     13  C   UNL     1      17.982   8.532  21.132  0.00  0.00    +0.124 C 
BRANCH  13  16
ATOM      3  O   UNL     1      20.210   7.561  20.952  0.00  0.00    -0.251 OA
ATOM     16  C   UNL     1      19.094   7.571  21.449  0.00  0.00    +0.305 C 
BRANCH  16   2
ATOM      2  O   UNL     1      18.679   6.688  22.394  0.00  0.00    -0.481 OA
ATOM     31  H   UNL     1      18.729   7.069  23.297  0.00  0.00    +0.295 HD
ENDBRANCH  16   2
ENDBRANCH  13  16
ENDBRANCH   8  13
BRANCH  15  18
ATOM     18  C   UNL     1      11.699   8.669  20.258  0.00  0.00    +0.096 C 
BRANCH  18  22
ATOM     22  C   UNL     1      10.701   7.939  21.142  0.00  0.00    +0.009 C 
BRANCH  22  24
ATOM     24  C   UNL     1      10.515   8.613  22.505  0.00  0.00    +0.000 C 
BRANCH  24  28
ATOM     28  C   UNL     1      10.968  10.072  22.468  0.00  0.00    -0.003 C 
ATOM     29  C   UNL     1      10.962  10.693  23.856  0.00  0.00    +0.004 C 
ENDBRANCH  24  28
ENDBRANCH  22  24
ENDBRANCH  18  22
ENDBRANCH  15  18
TORSDOF 10
ENDMDL
MODEL 7
REMARK VINA RESULT:      -5.6      3.631      5.614
REMARK  Name = 51136652
REMARK  12 active torsions:
REMARK  status: ('A' for Active; 'I' for Inactive)
REMARK    1  A    between atoms: O_2  and  C_16
REMARK    2  A    between atoms: O_4  and  C_27
REMARK    3  A    between atoms: O_4  and  C_30
REMARK    4  A    between atoms: C_7  and  C_12
REMARK    5  A    between atoms: C_8  and  C_13
REMARK    6  A    between atoms: C_12  and  C_14
REMARK    7  A    between atoms: C_13  and  C_16
REMARK    8  A    between atoms: C_15  and  C_18
REMARK    9  A    between atoms: C_18  and  C_22
REMARK   10  A    between atoms: C_22  and  C_24
REMARK   11  A    between atoms: C_24  and  C_28
REMARK   12  A    between atoms: C_28  and  C_29
REMARK                            x       y       z     vdW  Elec       q    Type
REMARK                         _______ _______ _______ _____ _____    ______ ____
ROOT
ATOM      1  O   UNL     1      14.744   7.135  17.291  0.00  0.00    -0.276 OA
ATOM      5  N   UNL     1      15.420   7.011  19.509  0.00  0.00    -0.301 N 
ATOM      7  C   UNL     1      16.579   7.953  21.495  0.00  0.00    +0.016 C 
ATOM      8  C   UNL     1      17.750   6.973  21.230  0.00  0.00    +0.006 C 
ATOM      9  C   UNL     1      17.836   6.582  19.745  0.00  0.00    +0.023 C 
ATOM     10  C   UNL     1      15.272   7.373  20.926  0.00  0.00    +0.112 C 
ATOM     11  C   UNL     1      16.496   6.062  19.230  0.00  0.00    +0.108 C 
ATOM     15  C   UNL     1      14.615   7.476  18.470  0.00  0.00    +0.216 C 
ENDROOT
BRANCH   7  12
ATOM     12  C   UNL     1      16.816   9.367  20.952  0.00  0.00    +0.061 C 
BRANCH  12  14
ATOM      6  N   UNL     1      15.206  10.164  22.545  0.00  0.00    -0.287 NA
ATOM     14  C   UNL     1      15.668  10.267  21.344  0.00  0.00    +0.044 C 
ATOM     17  C   UNL     1      15.125  11.214  20.336  0.00  0.00    -0.001 A 
ATOM     19  C   UNL     1      13.851  11.738  20.586  0.00  0.00    -0.033 A 
ATOM     20  C   UNL     1      13.124  11.306  21.825  0.00  0.00    +0.059 C 
ATOM     21  C   UNL     1      14.132  11.079  22.945  0.00  0.00    +0.146 C 
ATOM     23  C   UNL     1      15.823  11.569  19.181  0.00  0.00    +0.013 A 
ATOM     25  C   UNL     1      13.267  12.604  19.657  0.00  0.00    +0.050 A 
ATOM     26  C   UNL     1      15.238  12.446  18.266  0.00  0.00    +0.046 A 
ATOM     27  C   UNL     1      13.962  12.960  18.502  0.00  0.00    +0.120 A 
BRANCH  27   4
ATOM      4  O   UNL     1      13.395  13.809  17.602  0.00  0.00    -0.495 OA
ATOM     30  C   UNL     1      14.092  14.012  16.374  0.00  0.00    +0.277 C 
ENDBRANCH  27   4
ENDBRANCH  12  14
ENDBRANCH   7  12
BRANCH   8  13
ATOM     13  C   UNL     1      19.098   7.496  21.728  0.00  0.00    +0.124 C 
BRANCH  13  16
ATOM      3  O   UNL     1      20.652   5.625  21.881  0.00  0.00    -0.251 OA
ATOM     16  C   UNL     1      19.892   6.419  22.413  0.00  0.00    +0.305 C 
BRANCH  16   2
ATOM      2  O   UNL     1      19.646   6.450  23.749  0.00  0.00    -0.481 OA
ATOM     31  H   UNL     1      18.763   6.081  23.966  0.00  0.00    +0.295 HD
ENDBRANCH  16   2
ENDBRANCH  13  16
ENDBRANCH   8  13
BRANCH  15  18
ATOM     18  C   UNL     1      13.529   8.455  18.840  0.00  0.00    +0.096 C 
BRANCH  18  22
ATOM     22  C   UNL     1      12.247   7.718  19.194  0.00  0.00    +0.009 C 
BRANCH  22  24
ATOM     24  C   UNL     1      11.136   8.660  19.668  0.00  0.00    +0.000 C 
BRANCH  24  28
ATOM     28  C   UNL     1      10.788   8.411  21.136  0.00  0.00    -0.003 C 
ATOM     29  C   UNL     1      10.962   6.948  21.510  0.00  0.00    +0.004 C 
ENDBRANCH  24  28
ENDBRANCH  22  24
ENDBRANCH  18  22
ENDBRANCH  15  18
TORSDOF 10
ENDMDL
MODEL 8
REMARK VINA RESULT:      -5.5      3.603      4.998
REMARK  Name = 51136652
REMARK  12 active torsions:
REMARK  status: ('A' for Active; 'I' for Inactive)
REMARK    1  A    between atoms: O_2  and  C_16
REMARK    2  A    between atoms: O_4  and  C_27
REMARK    3  A    between atoms: O_4  and  C_30
REMARK    4  A    between atoms: C_7  and  C_12
REMARK    5  A    between atoms: C_8  and  C_13
REMARK    6  A    between atoms: C_12  and  C_14
REMARK    7  A    between atoms: C_13  and  C_16
REMARK    8  A    between atoms: C_15  and  C_18
REMARK    9  A    between atoms: C_18  and  C_22
REMARK   10  A    between atoms: C_22  and  C_24
REMARK   11  A    between atoms: C_24  and  C_28
REMARK   12  A    between atoms: C_28  and  C_29
REMARK                            x       y       z     vdW  Elec       q    Type
REMARK                         _______ _______ _______ _____ _____    ______ ____
ROOT
ATOM      1  O   UNL     1      14.792   6.966  17.429  0.00  0.00    -0.276 OA
ATOM      5  N   UNL     1      15.475   7.099  19.645  0.00  0.00    -0.301 N 
ATOM      7  C   UNL     1      16.607   8.282  21.514  0.00  0.00    +0.016 C 
ATOM      8  C   UNL     1      17.808   7.315  21.350  0.00  0.00    +0.006 C 
ATOM      9  C   UNL     1      17.904   6.772  19.914  0.00  0.00    +0.023 C 
ATOM     10  C   UNL     1      15.318   7.605  21.016  0.00  0.00    +0.112 C 
ATOM     11  C   UNL     1      16.579   6.159  19.464  0.00  0.00    +0.108 C 
ATOM     15  C   UNL     1      14.654   7.426  18.566  0.00  0.00    +0.216 C 
ENDROOT
BRANCH   7  12
ATOM     12  C   UNL     1      16.800   9.637  20.822  0.00  0.00    +0.061 C 
BRANCH  12  14
ATOM      6  N   UNL     1      17.679  11.271  22.347  0.00  0.00    -0.287 NA
ATOM     14  C   UNL     1      16.618  10.754  21.822  0.00  0.00    +0.044 C 
ATOM     17  C   UNL     1      15.240  11.196  22.157  0.00  0.00    -0.001 A 
ATOM     19  C   UNL     1      15.084  11.934  23.337  0.00  0.00    -0.033 A 
ATOM     20  C   UNL     1      16.294  12.213  24.179  0.00  0.00    +0.059 C 
ATOM     21  C   UNL     1      17.505  12.396  23.272  0.00  0.00    +0.146 C 
ATOM     23  C   UNL     1      14.135  10.892  21.361  0.00  0.00    +0.013 A 
ATOM     25  C   UNL     1      13.807  12.346  23.729  0.00  0.00    +0.050 A 
ATOM     26  C   UNL     1      12.866  11.320  21.752  0.00  0.00    +0.046 A 
ATOM     27  C   UNL     1      12.702  12.043  22.935  0.00  0.00    +0.120 A 
BRANCH  27   4
ATOM      4  O   UNL     1      11.460  12.451  23.315  0.00  0.00    -0.495 OA
ATOM     30  C   UNL     1      10.890  11.818  24.459  0.00  0.00    +0.277 C 
ENDBRANCH  27   4
ENDBRANCH  12  14
ENDBRANCH   7  12
BRANCH   8  13
ATOM     13  C   UNL     1      19.139   7.929  21.782  0.00  0.00    +0.124 C 
BRANCH  13  16
ATOM      3  O   UNL     1      20.196   5.998  22.828  0.00  0.00    -0.251 OA
ATOM     16  C   UNL     1      19.778   7.144  22.894  0.00  0.00    +0.305 C 
BRANCH  16   2
ATOM      2  O   UNL     1      19.831   7.904  24.019  0.00  0.00    -0.481 OA
ATOM     31  H   UNL     1      18.950   7.989  24.444  0.00  0.00    +0.295 HD
ENDBRANCH  16   2
ENDBRANCH  13  16
ENDBRANCH   8  13
BRANCH  15  18
ATOM     18  C   UNL     1      13.540   8.405  18.835  0.00  0.00    +0.096 C 
BRANCH  18  22
ATOM     22  C   UNL     1      12.234   7.668  19.083  0.00  0.00    +0.009 C 
BRANCH  22  24
ATOM     24  C   UNL     1      11.181   8.546  19.768  0.00  0.00    +0.000 C 
BRANCH  24  28
ATOM     28  C   UNL     1      10.748   7.950  21.107  0.00  0.00    -0.003 C 
ATOM     29  C   UNL     1      11.405   6.602  21.356  0.00  0.00    +0.004 C 
ENDBRANCH  24  28
ENDBRANCH  22  24
ENDBRANCH  18  22
ENDBRANCH  15  18
TORSDOF 10
ENDMDL
MODEL 9
REMARK VINA RESULT:      -5.3     25.685     29.582
REMARK  Name = 51136652
REMARK  12 active torsions:
REMARK  status: ('A' for Active; 'I' for Inactive)
REMARK    1  A    between atoms: O_2  and  C_16
REMARK    2  A    between atoms: O_4  and  C_27
REMARK    3  A    between atoms: O_4  and  C_30
REMARK    4  A    between atoms: C_7  and  C_12
REMARK    5  A    between atoms: C_8  and  C_13
REMARK    6  A    between atoms: C_12  and  C_14
REMARK    7  A    between atoms: C_13  and  C_16
REMARK    8  A    between atoms: C_15  and  C_18
REMARK    9  A    between atoms: C_18  and  C_22
REMARK   10  A    between atoms: C_22  and  C_24
REMARK   11  A    between atoms: C_24  and  C_28
REMARK   12  A    between atoms: C_28  and  C_29
REMARK                            x       y       z     vdW  Elec       q    Type
REMARK                         _______ _______ _______ _____ _____    ______ ____
ROOT
ATOM      1  O   UNL     1      -2.013 -10.570  16.109  0.00  0.00    -0.276 OA
ATOM      5  N   UNL     1      -4.046 -11.608  16.533  0.00  0.00    -0.301 N 
ATOM      7  C   UNL     1      -6.523 -11.563  16.729  0.00  0.00    +0.016 C 
ATOM      8  C   UNL     1      -6.363 -11.559  18.271  0.00  0.00    +0.006 C 
ATOM      9  C   UNL     1      -5.019 -10.947  18.700  0.00  0.00    +0.023 C 
ATOM     10  C   UNL     1      -5.298 -12.230  16.078  0.00  0.00    +0.112 C 
ATOM     11  C   UNL     1      -3.850 -11.619  17.982  0.00  0.00    +0.108 C 
ATOM     15  C   UNL     1      -3.069 -11.062  15.702  0.00  0.00    +0.216 C 
ENDROOT
BRANCH   7  12
ATOM     12  C   UNL     1      -6.758 -10.173  16.125  0.00  0.00    +0.061 C 
BRANCH  12  14
ATOM      6  N   UNL     1      -8.125 -11.058  14.360  0.00  0.00    -0.287 NA
ATOM     14  C   UNL     1      -8.024 -10.180  15.302  0.00  0.00    +0.044 C 
ATOM     17  C   UNL     1      -9.081  -9.181  15.606  0.00  0.00    -0.001 A 
ATOM     19  C   UNL     1     -10.041  -8.956  14.612  0.00  0.00    -0.033 A 
ATOM     20  C   UNL     1      -9.933  -9.713  13.321  0.00  0.00    +0.059 C 
ATOM     21  C   UNL     1      -9.378 -11.104  13.600  0.00  0.00    +0.146 C 
ATOM     23  C   UNL     1      -9.130  -8.477  16.811  0.00  0.00    +0.013 A 
ATOM     25  C   UNL     1     -11.039  -8.000  14.821  0.00  0.00    +0.050 A 
ATOM     26  C   UNL     1     -10.138  -7.535  17.016  0.00  0.00    +0.046 A 
ATOM     27  C   UNL     1     -11.089  -7.295  16.023  0.00  0.00    +0.120 A 
BRANCH  27   4
ATOM      4  O   UNL     1     -12.066  -6.370  16.228  0.00  0.00    -0.495 OA
ATOM     30  C   UNL     1     -12.820  -5.958  15.089  0.00  0.00    +0.277 C 
ENDBRANCH  27   4
ENDBRANCH  12  14
ENDBRANCH   7  12
BRANCH   8  13
ATOM     13  C   UNL     1      -7.522 -10.873  18.995  0.00  0.00    +0.124 C 
BRANCH  13  16
ATOM      3  O   UNL     1      -8.141 -13.046  19.909  0.00  0.00    -0.251 OA
ATOM     16  C   UNL     1      -8.386 -11.864  19.724  0.00  0.00    +0.305 C 
BRANCH  16   2
ATOM      2  O   UNL     1      -9.514 -11.249  20.166  0.00  0.00    -0.481 OA
ATOM     31  H   UNL     1      -9.499 -10.285  19.984  0.00  0.00    +0.295 HD
ENDBRANCH  16   2
ENDBRANCH  13  16
ENDBRANCH   8  13
BRANCH  15  18
ATOM     18  C   UNL     1      -3.348 -11.088  14.221  0.00  0.00    +0.096 C 
BRANCH  18  22
ATOM     22  C   UNL     1      -2.227 -10.402  13.457  0.00  0.00    +0.009 C 
BRANCH  22  24
ATOM     24  C   UNL     1      -2.180 -10.812  11.982  0.00  0.00    +0.000 C 
BRANCH  24  28
ATOM     28  C   UNL     1      -2.047  -9.591  11.071  0.00  0.00    -0.003 C 
ATOM     29  C   UNL     1      -0.664  -8.967  11.173  0.00  0.00    +0.004 C 
ENDBRANCH  24  28
ENDBRANCH  22  24
ENDBRANCH  18  22
ENDBRANCH  15  18
TORSDOF 10
ENDMDL
MODEL 10
REMARK VINA RESULT:      -5.3     26.785     29.539
REMARK  Name = 51136652
REMARK  12 active torsions:
REMARK  status: ('A' for Active; 'I' for Inactive)
REMARK    1  A    between atoms: O_2  and  C_16
REMARK    2  A    between atoms: O_4  and  C_27
REMARK    3  A    between atoms: O_4  and  C_30
REMARK    4  A    between atoms: C_7  and  C_12
REMARK    5  A    between atoms: C_8  and  C_13
REMARK    6  A    between atoms: C_12  and  C_14
REMARK    7  A    between atoms: C_13  and  C_16
REMARK    8  A    between atoms: C_15  and  C_18
REMARK    9  A    between atoms: C_18  and  C_22
REMARK   10  A    between atoms: C_22  and  C_24
REMARK   11  A    between atoms: C_24  and  C_28
REMARK   12  A    between atoms: C_28  and  C_29
REMARK                            x       y       z     vdW  Elec       q    Type
REMARK                         _______ _______ _______ _____ _____    ______ ____
ROOT
ATOM      1  O   UNL     1      -1.886 -10.259  13.405  0.00  0.00    -0.276 OA
ATOM      5  N   UNL     1      -3.524 -11.253  14.717  0.00  0.00    -0.301 N 
ATOM      7  C   UNL     1      -5.545 -11.124  16.157  0.00  0.00    +0.016 C 
ATOM      8  C   UNL     1      -4.632 -11.328  17.393  0.00  0.00    +0.006 C 
ATOM      9  C   UNL     1      -3.199 -10.836  17.124  0.00  0.00    +0.023 C 
ATOM     10  C   UNL     1      -4.891 -11.754  14.914  0.00  0.00    +0.112 C 
ATOM     11  C   UNL     1      -2.628 -11.460  15.853  0.00  0.00    +0.108 C 
ATOM     15  C   UNL     1      -3.047 -10.648  13.555  0.00  0.00    +0.216 C 
ENDROOT
BRANCH   7  12
ATOM     12  C   UNL     1      -5.907  -9.659  15.885  0.00  0.00    +0.061 C 
BRANCH  12  14
ATOM      6  N   UNL     1      -7.946  -9.132  17.039  0.00  0.00    -0.287 NA
ATOM     14  C   UNL     1      -7.407  -9.486  15.920  0.00  0.00    +0.044 C 
ATOM     17  C   UNL     1      -8.184  -9.736  14.679  0.00  0.00    -0.001 A 
ATOM     19  C   UNL     1      -9.560  -9.948  14.829  0.00  0.00    -0.033 A 
ATOM     20  C   UNL     1     -10.147  -9.924  16.210  0.00  0.00    +0.059 C 
ATOM     21  C   UNL     1      -9.395  -8.906  17.057  0.00  0.00    +0.146 C 
ATOM     23  C   UNL     1      -7.595  -9.778  13.414  0.00  0.00    +0.013 A 
ATOM     25  C   UNL     1     -10.342 -10.228  13.705  0.00  0.00    +0.050 A 
ATOM     26  C   UNL     1      -8.386 -10.043  12.296  0.00  0.00    +0.046 A 
ATOM     27  C   UNL     1      -9.756 -10.271  12.441  0.00  0.00    +0.120 A 
BRANCH  27   4
ATOM      4  O   UNL     1     -10.519 -10.536  11.346  0.00  0.00    -0.495 OA
ATOM     30  C   UNL     1     -11.839 -11.028  11.578  0.00  0.00    +0.277 C 
ENDBRANCH  27   4
ENDBRANCH  12  14
ENDBRANCH   7  12
BRANCH   8  13
ATOM     13  C   UNL     1      -5.189 -10.691  18.665  0.00  0.00    +0.124 C 
BRANCH  13  16
ATOM      3  O   UNL     1      -6.607 -12.626  19.096  0.00  0.00    -0.251 OA
ATOM     16  C   UNL     1      -6.402 -11.424  19.168  0.00  0.00    +0.305 C 
BRANCH  16   2
ATOM      2  O   UNL     1      -7.268 -10.543  19.733  0.00  0.00    -0.481 OA
ATOM     31  H   UNL     1      -7.073 -10.399  20.684  0.00  0.00    +0.295 HD
ENDBRANCH  16   2
ENDBRANCH  13  16
ENDBRANCH   8  13
BRANCH  15  18
ATOM     18  C   UNL     1      -4.035 -10.469  12.430  0.00  0.00    +0.096 C 
BRANCH  18  22
ATOM     22  C   UNL     1      -3.346 -10.634  11.086  0.00  0.00    +0.009 C 
BRANCH  22  24
ATOM     24  C   UNL     1      -3.185  -9.307  10.337  0.00  0.00    +0.000 C 
BRANCH  24  28
ATOM     28  C   UNL     1      -4.248  -9.152   9.249  0.00  0.00    -0.003 C 
ATOM     29  C   UNL     1      -5.371  -8.229   9.694  0.00  0.00    +0.004 C 
ENDBRANCH  24  28
ENDBRANCH  22  24
ENDBRANCH  18  22
ENDBRANCH  15  18
TORSDOF 10
ENDMDL
