MODEL 1
REMARK VINA RESULT:      -5.7      0.000      0.000
REMARK  Name = 38029820
REMARK  12 active torsions:
REMARK  status: ('A' for Active; 'I' for Inactive)
REMARK    1  A    between atoms: O_2  and  C_21
REMARK    2  A    between atoms: O_2  and  C_22
REMARK    3  A    between atoms: N_4  and  C_11
REMARK    4  A    between atoms: C_5  and  C_9
REMARK    5  A    between atoms: C_6  and  C_11
REMARK    6  A    between atoms: C_8  and  C_16
REMARK    7  A    between atoms: C_9  and  C_18
REMARK    8  A    between atoms: C_9  and  C_19
REMARK    9  A    between atoms: C_10  and  C_17
REMARK   10  A    between atoms: C_12  and  C_20
REMARK   11  A    between atoms: C_16  and  C_21
REMARK   12  A    between atoms: C_22  and  C_23
REMARK                            x       y       z     vdW  Elec       q    Type
REMARK                         _______ _______ _______ _____ _____    ______ ____
ROOT
ATOM      5  C   UNL     1      14.450   8.958  20.594  0.00  0.00    +0.000 C 
ATOM      6  C   UNL     1      14.558   7.501  20.078  0.00  0.00    +0.032 C 
ATOM      7  C   UNL     1      13.828   8.984  21.998  0.00  0.00    +0.012 C 
ATOM      8  C   UNL     1      12.424   8.351  22.025  0.00  0.00    +0.025 C 
ATOM     12  C   UNL     1      12.391   7.024  21.295  0.00  0.00    -0.073 C 
ATOM     13  C   UNL     1      13.360   6.655  20.439  0.00  0.00    -0.022 C 
ATOM     20  C   UNL     1      11.239   6.108  21.606  0.00  0.00    +0.039 C 
ENDROOT
BRANCH   5   9
ATOM      9  C   UNL     1      15.813   9.656  20.618  0.00  0.00    -0.013 C 
ATOM     18  C   UNL     1      15.665  11.095  21.100  0.00  0.00    +0.007 C 
ATOM     19  C   UNL     1      16.789   8.887  21.502  0.00  0.00    +0.007 C 
ENDBRANCH   5   9
BRANCH   6  11
ATOM     11  C   UNL     1      14.769   7.466  18.560  0.00  0.00    +0.112 C 
BRANCH  11   4
ATOM      1  O   UNL     1      12.080   7.078  17.522  0.00  0.00    -0.276 OA
ATOM      4  N   UNL     1      13.938   8.430  17.910  0.00  0.00    -0.315 N 
ATOM     17  C   UNL     1      12.658   8.156  17.444  0.00  0.00    +0.216 C 
ATOM     24  H   UNL     1      14.286   9.382  17.824  0.00  0.00    +0.149 HD
BRANCH  17  10
ATOM     10  C   UNL     1      11.971   9.314  16.799  0.00  0.00    +0.075 C 
ATOM     14  C   UNL     1      12.166   9.555  15.330  0.00  0.00    +0.013 C 
ATOM     15  C   UNL     1      10.847   9.054  15.839  0.00  0.00    +0.013 C 
ENDBRANCH  17  10
ENDBRANCH  11   4
ENDBRANCH   6  11
BRANCH   8  16
ATOM     16  C   UNL     1      11.373   9.314  21.462  0.00  0.00    +0.128 C 
BRANCH  16  21
ATOM      3  O   UNL     1      10.926  10.416  23.582  0.00  0.00    -0.251 OA
ATOM     21  C   UNL     1      11.143  10.484  22.380  0.00  0.00    +0.308 C 
BRANCH  21   2
ATOM      2  O   UNL     1      11.217  11.632  21.644  0.00  0.00    -0.465 OA
BRANCH   2  22
ATOM     22  C   UNL     1      12.080  12.646  22.168  0.00  0.00    +0.229 C 
ATOM     23  C   UNL     1      12.699  13.411  21.018  0.00  0.00    +0.048 C 
ENDBRANCH   2  22
ENDBRANCH  21   2
ENDBRANCH  16  21
ENDBRANCH   8  16
TORSDOF 8
ENDMDL
MODEL 2
REMARK VINA RESULT:      -5.3      2.511      6.390
REMARK  Name = 38029820
REMARK  12 active torsions:
REMARK  status: ('A' for Active; 'I' for Inactive)
REMARK    1  A    between atoms: O_2  and  C_21
REMARK    2  A    between atoms: O_2  and  C_22
REMARK    3  A    between atoms: N_4  and  C_11
REMARK    4  A    between atoms: C_5  and  C_9
REMARK    5  A    between atoms: C_6  and  C_11
REMARK    6  A    between atoms: C_8  and  C_16
REMARK    7  A    between atoms: C_9  and  C_18
REMARK    8  A    between atoms: C_9  and  C_19
REMARK    9  A    between atoms: C_10  and  C_17
REMARK   10  A    between atoms: C_12  and  C_20
REMARK   11  A    between atoms: C_16  and  C_21
REMARK   12  A    between atoms: C_22  and  C_23
REMARK                            x       y       z     vdW  Elec       q    Type
REMARK                         _______ _______ _______ _____ _____    ______ ____
ROOT
ATOM      5  C   UNL     1      12.659   9.007  20.940  0.00  0.00    +0.000 C 
ATOM      6  C   UNL     1      12.357  10.297  21.743  0.00  0.00    +0.032 C 
ATOM      7  C   UNL     1      13.871   9.221  20.020  0.00  0.00    +0.012 C 
ATOM      8  C   UNL     1      13.650  10.375  19.025  0.00  0.00    +0.025 C 
ATOM     12  C   UNL     1      13.093  11.608  19.706  0.00  0.00    -0.073 C 
ATOM     13  C   UNL     1      12.531  11.556  20.927  0.00  0.00    -0.022 C 
ATOM     20  C   UNL     1      13.237  12.912  18.972  0.00  0.00    +0.039 C 
ENDROOT
BRANCH   5   9
ATOM      9  C   UNL     1      12.913   7.810  21.861  0.00  0.00    -0.013 C 
ATOM     18  C   UNL     1      12.127   6.594  21.381  0.00  0.00    +0.007 C 
ATOM     19  C   UNL     1      14.404   7.497  21.930  0.00  0.00    +0.007 C 
ENDBRANCH   5   9
BRANCH   6  11
ATOM     11  C   UNL     1      10.942  10.262  22.332  0.00  0.00    +0.112 C 
BRANCH  11   4
ATOM      1  O   UNL     1      11.265  10.940  25.143  0.00  0.00    -0.276 OA
ATOM      4  N   UNL     1      10.628  11.501  22.972  0.00  0.00    -0.315 N 
ATOM     17  C   UNL     1      10.816  11.738  24.328  0.00  0.00    +0.216 C 
ATOM     24  H   UNL     1      10.290  12.266  22.394  0.00  0.00    +0.149 HD
BRANCH  17  10
ATOM     10  C   UNL     1      10.421  13.105  24.780  0.00  0.00    +0.075 C 
ATOM     14  C   UNL     1      11.402  14.234  24.640  0.00  0.00    +0.013 C 
ATOM     15  C   UNL     1      10.192  14.176  23.754  0.00  0.00    +0.013 C 
ENDBRANCH  17  10
ENDBRANCH  11   4
ENDBRANCH   6  11
BRANCH   8  16
ATOM     16  C   UNL     1      12.752   9.938  17.861  0.00  0.00    +0.128 C 
BRANCH  16  21
ATOM      3  O   UNL     1      13.209   7.780  16.839  0.00  0.00    -0.251 OA
ATOM     21  C   UNL     1      13.459   8.973  16.948  0.00  0.00    +0.308 C 
BRANCH  21   2
ATOM      2  O   UNL     1      14.424   9.655  16.262  0.00  0.00    -0.465 OA
BRANCH   2  22
ATOM     22  C   UNL     1      13.962  10.768  15.491  0.00  0.00    +0.229 C 
ATOM     23  C   UNL     1      15.010  11.860  15.524  0.00  0.00    +0.048 C 
ENDBRANCH   2  22
ENDBRANCH  21   2
ENDBRANCH  16  21
ENDBRANCH   8  16
TORSDOF 8
ENDMDL
MODEL 3
REMARK VINA RESULT:      -5.2     25.922     27.768
REMARK  Name = 38029820
REMARK  12 active torsions:
REMARK  status: ('A' for Active; 'I' for Inactive)
REMARK    1  A    between atoms: O_2  and  C_21
REMARK    2  A    between atoms: O_2  and  C_22
REMARK    3  A    between atoms: N_4  and  C_11
REMARK    4  A    between atoms: C_5  and  C_9
REMARK    5  A    between atoms: C_6  and  C_11
REMARK    6  A    between atoms: C_8  and  C_16
REMARK    7  A    between atoms: C_9  and  C_18
REMARK    8  A    between atoms: C_9  and  C_19
REMARK    9  A    between atoms: C_10  and  C_17
REMARK   10  A    between atoms: C_12  and  C_20
REMARK   11  A    between atoms: C_16  and  C_21
REMARK   12  A    between atoms: C_22  and  C_23
REMARK                            x       y       z     vdW  Elec       q    Type
REMARK                         _______ _______ _______ _____ _____    ______ ____
ROOT
ATOM      5  C   UNL     1      -5.805 -10.705  17.710  0.00  0.00    +0.000 C 
ATOM      6  C   UNL     1      -5.177 -11.014  16.327  0.00  0.00    +0.032 C 
ATOM      7  C   UNL     1      -7.305 -11.036  17.702  0.00  0.00    +0.012 C 
ATOM      8  C   UNL     1      -8.071 -10.240  16.629  0.00  0.00    +0.025 C 
ATOM     12  C   UNL     1      -7.365 -10.275  15.289  0.00  0.00    -0.073 C 
ATOM     13  C   UNL     1      -6.074 -10.636  15.173  0.00  0.00    -0.022 C 
ATOM     20  C   UNL     1      -8.187  -9.929  14.080  0.00  0.00    +0.039 C 
ENDROOT
BRANCH   5   9
ATOM      9  C   UNL     1      -5.110 -11.477  18.835  0.00  0.00    -0.013 C 
ATOM     18  C   UNL     1      -5.944 -11.422  20.111  0.00  0.00    +0.007 C 
ATOM     19  C   UNL     1      -4.859 -12.921  18.415  0.00  0.00    +0.007 C 
ENDBRANCH   5   9
BRANCH   6  11
ATOM     11  C   UNL     1      -3.820 -10.317  16.169  0.00  0.00    +0.112 C 
BRANCH  11   4
ATOM      1  O   UNL     1      -1.344 -11.336  15.031  0.00  0.00    -0.276 OA
ATOM      4  N   UNL     1      -3.418 -10.296  14.798  0.00  0.00    -0.315 N 
ATOM     17  C   UNL     1      -2.209 -10.810  14.341  0.00  0.00    +0.216 C 
ATOM     24  H   UNL     1      -4.071  -9.926  14.112  0.00  0.00    +0.149 HD
BRANCH  17  10
ATOM     10  C   UNL     1      -1.998 -10.683  12.868  0.00  0.00    +0.075 C 
ATOM     14  C   UNL     1      -2.583 -11.721  11.954  0.00  0.00    +0.013 C 
ATOM     15  C   UNL     1      -3.165 -10.338  11.990  0.00  0.00    +0.013 C 
ENDBRANCH  17  10
ENDBRANCH  11   4
ENDBRANCH   6  11
BRANCH   8  16
ATOM     16  C   UNL     1      -8.318  -8.796  17.082  0.00  0.00    +0.128 C 
BRANCH  16  21
ATOM      3  O   UNL     1     -10.433  -9.382  18.127  0.00  0.00    -0.251 OA
ATOM     21  C   UNL     1      -9.746  -8.584  17.505  0.00  0.00    +0.308 C 
BRANCH  21   2
ATOM      2  O   UNL     1     -10.144  -7.349  17.077  0.00  0.00    -0.465 OA
BRANCH   2  22
ATOM     22  C   UNL     1     -10.082  -7.136  15.663  0.00  0.00    +0.229 C 
ATOM     23  C   UNL     1     -11.250  -7.842  15.007  0.00  0.00    +0.048 C 
ENDBRANCH   2  22
ENDBRANCH  21   2
ENDBRANCH  16  21
ENDBRANCH   8  16
TORSDOF 8
ENDMDL
MODEL 4
REMARK VINA RESULT:      -5.1     25.396     28.223
REMARK  Name = 38029820
REMARK  12 active torsions:
REMARK  status: ('A' for Active; 'I' for Inactive)
REMARK    1  A    between atoms: O_2  and  C_21
REMARK    2  A    between atoms: O_2  and  C_22
REMARK    3  A    between atoms: N_4  and  C_11
REMARK    4  A    between atoms: C_5  and  C_9
REMARK    5  A    between atoms: C_6  and  C_11
REMARK    6  A    between atoms: C_8  and  C_16
REMARK    7  A    between atoms: C_9  and  C_18
REMARK    8  A    between atoms: C_9  and  C_19
REMARK    9  A    between atoms: C_10  and  C_17
REMARK   10  A    between atoms: C_12  and  C_20
REMARK   11  A    between atoms: C_16  and  C_21
REMARK   12  A    between atoms: C_22  and  C_23
REMARK                            x       y       z     vdW  Elec       q    Type
REMARK                         _______ _______ _______ _____ _____    ______ ____
ROOT
ATOM      5  C   UNL     1      -5.260 -10.536  10.598  0.00  0.00    +0.000 C 
ATOM      6  C   UNL     1      -4.751  -9.506   9.557  0.00  0.00    +0.032 C 
ATOM      7  C   UNL     1      -4.679 -10.225  11.986  0.00  0.00    +0.012 C 
ATOM      8  C   UNL     1      -3.139 -10.246  11.991  0.00  0.00    +0.025 C 
ATOM     12  C   UNL     1      -2.562  -9.467  10.827  0.00  0.00    -0.073 C 
ATOM     13  C   UNL     1      -3.301  -9.134   9.754  0.00  0.00    -0.022 C 
ATOM     20  C   UNL     1      -1.125  -9.040  10.944  0.00  0.00    +0.039 C 
ENDROOT
BRANCH   5   9
ATOM      9  C   UNL     1      -6.789 -10.562  10.670  0.00  0.00    -0.013 C 
ATOM     18  C   UNL     1      -7.253 -11.493  11.787  0.00  0.00    +0.007 C 
ATOM     19  C   UNL     1      -7.338  -9.155  10.876  0.00  0.00    +0.007 C 
ENDBRANCH   5   9
BRANCH   6  11
ATOM     11  C   UNL     1      -4.957 -10.019   8.127  0.00  0.00    +0.112 C 
BRANCH  11   4
ATOM      1  O   UNL     1      -6.047 -10.445   5.464  0.00  0.00    -0.276 OA
ATOM      4  N   UNL     1      -5.875  -9.184   7.416  0.00  0.00    -0.315 N 
ATOM     17  C   UNL     1      -6.345  -9.467   6.140  0.00  0.00    +0.216 C 
ATOM     24  H   UNL     1      -6.238  -8.361   7.889  0.00  0.00    +0.149 HD
BRANCH  17  10
ATOM     10  C   UNL     1      -7.298  -8.458   5.591  0.00  0.00    +0.075 C 
ATOM     14  C   UNL     1      -8.773  -8.663   5.784  0.00  0.00    +0.013 C 
ATOM     15  C   UNL     1      -8.061  -7.581   6.541  0.00  0.00    +0.013 C 
ENDBRANCH  17  10
ENDBRANCH  11   4
ENDBRANCH   6  11
BRANCH   8  16
ATOM     16  C   UNL     1      -2.606 -11.683  12.010  0.00  0.00    +0.128 C 
BRANCH  16  21
ATOM      3  O   UNL     1      -1.516 -13.102  13.655  0.00  0.00    -0.251 OA
ATOM     21  C   UNL     1      -1.900 -11.996  13.301  0.00  0.00    +0.308 C 
BRANCH  21   2
ATOM      2  O   UNL     1      -1.760 -10.836  14.010  0.00  0.00    -0.465 OA
BRANCH   2  22
ATOM     22  C   UNL     1      -1.768 -10.978  15.434  0.00  0.00    +0.229 C 
ATOM     23  C   UNL     1      -3.188 -10.831  15.936  0.00  0.00    +0.048 C 
ENDBRANCH   2  22
ENDBRANCH  21   2
ENDBRANCH  16  21
ENDBRANCH   8  16
TORSDOF 8
ENDMDL
MODEL 5
REMARK VINA RESULT:      -5.1     13.622     16.438
REMARK  Name = 38029820
REMARK  12 active torsions:
REMARK  status: ('A' for Active; 'I' for Inactive)
REMARK    1  A    between atoms: O_2  and  C_21
REMARK    2  A    between atoms: O_2  and  C_22
REMARK    3  A    between atoms: N_4  and  C_11
REMARK    4  A    between atoms: C_5  and  C_9
REMARK    5  A    between atoms: C_6  and  C_11
REMARK    6  A    between atoms: C_8  and  C_16
REMARK    7  A    between atoms: C_9  and  C_18
REMARK    8  A    between atoms: C_9  and  C_19
REMARK    9  A    between atoms: C_10  and  C_17
REMARK   10  A    between atoms: C_12  and  C_20
REMARK   11  A    between atoms: C_16  and  C_21
REMARK   12  A    between atoms: C_22  and  C_23
REMARK                            x       y       z     vdW  Elec       q    Type
REMARK                         _______ _______ _______ _____ _____    ______ ____
ROOT
ATOM      5  C   UNL     1      17.358  -3.494  23.805  0.00  0.00    +0.000 C 
ATOM      6  C   UNL     1      17.091  -3.930  25.268  0.00  0.00    +0.032 C 
ATOM      7  C   UNL     1      17.104  -4.665  22.844  0.00  0.00    +0.012 C 
ATOM      8  C   UNL     1      17.993  -5.882  23.161  0.00  0.00    +0.025 C 
ATOM     12  C   UNL     1      17.992  -6.210  24.639  0.00  0.00    -0.073 C 
ATOM     13  C   UNL     1      17.573  -5.329  25.566  0.00  0.00    -0.022 C 
ATOM     20  C   UNL     1      18.442  -7.591  25.028  0.00  0.00    +0.039 C 
ENDROOT
BRANCH   5   9
ATOM      9  C   UNL     1      16.494  -2.296  23.402  0.00  0.00    -0.013 C 
ATOM     18  C   UNL     1      17.295  -1.330  22.534  0.00  0.00    +0.007 C 
ATOM     19  C   UNL     1      15.239  -2.764  22.673  0.00  0.00    +0.007 C 
ENDBRANCH   5   9
BRANCH   6  11
ATOM     11  C   UNL     1      17.726  -2.949  26.261  0.00  0.00    +0.112 C 
BRANCH  11   4
ATOM      1  O   UNL     1      19.244  -0.649  25.332  0.00  0.00    -0.276 OA
ATOM      4  N   UNL     1      19.138  -2.862  26.056  0.00  0.00    -0.315 N 
ATOM     17  C   UNL     1      19.782  -1.715  25.607  0.00  0.00    +0.216 C 
ATOM     24  H   UNL     1      19.708  -3.669  26.294  0.00  0.00    +0.149 HD
BRANCH  17  10
ATOM     10  C   UNL     1      21.263  -1.849  25.467  0.00  0.00    +0.075 C 
ATOM     14  C   UNL     1      22.110  -1.927  26.704  0.00  0.00    +0.013 C 
ATOM     15  C   UNL     1      21.918  -3.145  25.848  0.00  0.00    +0.013 C 
ENDBRANCH  17  10
ENDBRANCH  11   4
ENDBRANCH   6  11
BRANCH   8  16
ATOM     16  C   UNL     1      19.421  -5.673  22.645  0.00  0.00    +0.128 C 
BRANCH  16  21
ATOM      3  O   UNL     1      19.372  -6.668  20.427  0.00  0.00    -0.251 OA
ATOM     21  C   UNL     1      19.779  -6.675  21.581  0.00  0.00    +0.308 C 
BRANCH  21   2
ATOM      2  O   UNL     1      20.635  -7.593  22.122  0.00  0.00    -0.465 OA
BRANCH   2  22
ATOM     22  C   UNL     1      21.542  -7.085  23.105  0.00  0.00    +0.229 C 
ATOM     23  C   UNL     1      22.041  -8.233  23.956  0.00  0.00    +0.048 C 
ENDBRANCH   2  22
ENDBRANCH  21   2
ENDBRANCH  16  21
ENDBRANCH   8  16
TORSDOF 8
ENDMDL
MODEL 6
REMARK VINA RESULT:      -5.0     25.553     28.711
REMARK  Name = 38029820
REMARK  12 active torsions:
REMARK  status: ('A' for Active; 'I' for Inactive)
REMARK    1  A    between atoms: O_2  and  C_21
REMARK    2  A    between atoms: O_2  and  C_22
REMARK    3  A    between atoms: N_4  and  C_11
REMARK    4  A    between atoms: C_5  and  C_9
REMARK    5  A    between atoms: C_6  and  C_11
REMARK    6  A    between atoms: C_8  and  C_16
REMARK    7  A    between atoms: C_9  and  C_18
REMARK    8  A    between atoms: C_9  and  C_19
REMARK    9  A    between atoms: C_10  and  C_17
REMARK   10  A    between atoms: C_12  and  C_20
REMARK   11  A    between atoms: C_16  and  C_21
REMARK   12  A    between atoms: C_22  and  C_23
REMARK                            x       y       z     vdW  Elec       q    Type
REMARK                         _______ _______ _______ _____ _____    ______ ____
ROOT
ATOM      5  C   UNL     1      -5.920 -11.497  17.606  0.00  0.00    +0.000 C 
ATOM      6  C   UNL     1      -7.285 -10.825  17.312  0.00  0.00    +0.032 C 
ATOM      7  C   UNL     1      -4.782 -10.707  16.942  0.00  0.00    +0.012 C 
ATOM      8  C   UNL     1      -4.957 -10.602  15.416  0.00  0.00    +0.025 C 
ATOM     12  C   UNL     1      -6.368 -10.201  15.037  0.00  0.00    -0.073 C 
ATOM     13  C   UNL     1      -7.393 -10.296  15.903  0.00  0.00    -0.022 C 
ATOM     20  C   UNL     1      -6.566  -9.647  13.654  0.00  0.00    +0.039 C 
ENDROOT
BRANCH   5   9
ATOM      9  C   UNL     1      -5.658 -11.620  19.109  0.00  0.00    -0.013 C 
ATOM     18  C   UNL     1      -4.190 -11.947  19.368  0.00  0.00    +0.007 C 
ATOM     19  C   UNL     1      -6.061 -10.337  19.828  0.00  0.00    +0.007 C 
ENDBRANCH   5   9
BRANCH   6  11
ATOM     11  C   UNL     1      -8.446 -11.789  17.586  0.00  0.00    +0.112 C 
BRANCH  11   4
ATOM      1  O   UNL     1      -9.488 -10.913  20.156  0.00  0.00    -0.276 OA
ATOM      4  N   UNL     1      -9.655 -11.070  17.837  0.00  0.00    -0.315 N 
ATOM     17  C   UNL     1     -10.077 -10.690  19.105  0.00  0.00    +0.216 C 
ATOM     24  H   UNL     1     -10.215 -10.781  17.038  0.00  0.00    +0.149 HD
BRANCH  17  10
ATOM     10  C   UNL     1     -11.371  -9.944  19.131  0.00  0.00    +0.075 C 
ATOM     14  C   UNL     1     -12.658 -10.714  19.198  0.00  0.00    +0.013 C 
ATOM     15  C   UNL     1     -12.185  -9.937  20.391  0.00  0.00    +0.013 C 
ENDBRANCH  17  10
ENDBRANCH  11   4
ENDBRANCH   6  11
BRANCH   8  16
ATOM     16  C   UNL     1      -4.552 -11.908  14.723  0.00  0.00    +0.128 C 
BRANCH  16  21
ATOM      3  O   UNL     1      -2.668 -12.647  13.375  0.00  0.00    -0.251 OA
ATOM     21  C   UNL     1      -3.277 -11.748  13.939  0.00  0.00    +0.308 C 
BRANCH  21   2
ATOM      2  O   UNL     1      -2.917 -10.430  13.964  0.00  0.00    -0.465 OA
BRANCH   2  22
ATOM     22  C   UNL     1      -1.529 -10.175  14.200  0.00  0.00    +0.229 C 
ATOM     23  C   UNL     1      -1.241 -10.341  15.677  0.00  0.00    +0.048 C 
ENDBRANCH   2  22
ENDBRANCH  21   2
ENDBRANCH  16  21
ENDBRANCH   8  16
TORSDOF 8
ENDMDL
MODEL 7
REMARK VINA RESULT:      -5.0     25.558     28.296
REMARK  Name = 38029820
REMARK  12 active torsions:
REMARK  status: ('A' for Active; 'I' for Inactive)
REMARK    1  A    between atoms: O_2  and  C_21
REMARK    2  A    between atoms: O_2  and  C_22
REMARK    3  A    between atoms: N_4  and  C_11
REMARK    4  A    between atoms: C_5  and  C_9
REMARK    5  A    between atoms: C_6  and  C_11
REMARK    6  A    between atoms: C_8  and  C_16
REMARK    7  A    between atoms: C_9  and  C_18
REMARK    8  A    between atoms: C_9  and  C_19
REMARK    9  A    between atoms: C_10  and  C_17
REMARK   10  A    between atoms: C_12  and  C_20
REMARK   11  A    between atoms: C_16  and  C_21
REMARK   12  A    between atoms: C_22  and  C_23
REMARK                            x       y       z     vdW  Elec       q    Type
REMARK                         _______ _______ _______ _____ _____    ______ ____
ROOT
ATOM      5  C   UNL     1      -3.029 -12.256  12.540  0.00  0.00    +0.000 C 
ATOM      6  C   UNL     1      -1.989 -11.111  12.447  0.00  0.00    +0.032 C 
ATOM      7  C   UNL     1      -3.564 -12.607  11.143  0.00  0.00    +0.012 C 
ATOM      8  C   UNL     1      -4.227 -11.400  10.453  0.00  0.00    +0.025 C 
ATOM     12  C   UNL     1      -3.372 -10.154  10.555  0.00  0.00    -0.073 C 
ATOM     13  C   UNL     1      -2.368 -10.047  11.444  0.00  0.00    -0.022 C 
ATOM     20  C   UNL     1      -3.669  -9.047   9.582  0.00  0.00    +0.039 C 
ENDROOT
BRANCH   5   9
ATOM      9  C   UNL     1      -2.440 -13.507  13.198  0.00  0.00    -0.013 C 
ATOM     18  C   UNL     1      -3.276 -13.914  14.408  0.00  0.00    +0.007 C 
ATOM     19  C   UNL     1      -2.353 -14.649  12.192  0.00  0.00    +0.007 C 
ENDBRANCH   5   9
BRANCH   6  11
ATOM     11  C   UNL     1      -1.758 -10.462  13.817  0.00  0.00    +0.112 C 
BRANCH  11   4
ATOM      1  O   UNL     1      -2.219 -10.925  16.651  0.00  0.00    -0.276 OA
ATOM      4  N   UNL     1      -2.989 -10.334  14.532  0.00  0.00    -0.315 N 
ATOM     17  C   UNL     1      -3.118 -10.577  15.894  0.00  0.00    +0.216 C 
ATOM     24  H   UNL     1      -3.806 -10.005  14.024  0.00  0.00    +0.149 HD
BRANCH  17  10
ATOM     10  C   UNL     1      -4.497 -10.380  16.432  0.00  0.00    +0.075 C 
ATOM     14  C   UNL     1      -5.378 -11.577  16.642  0.00  0.00    +0.013 C 
ATOM     15  C   UNL     1      -4.812 -10.846  17.823  0.00  0.00    +0.013 C 
ENDBRANCH  17  10
ENDBRANCH  11   4
ENDBRANCH   6  11
BRANCH   8  16
ATOM     16  C   UNL     1      -5.633 -11.150  11.009  0.00  0.00    +0.128 C 
BRANCH  16  21
ATOM      3  O   UNL     1      -7.660 -12.286  10.293  0.00  0.00    -0.251 OA
ATOM     21  C   UNL     1      -6.699 -11.575  10.035  0.00  0.00    +0.308 C 
BRANCH  21   2
ATOM      2  O   UNL     1      -6.411 -11.031   8.815  0.00  0.00    -0.465 OA
BRANCH   2  22
ATOM     22  C   UNL     1      -7.454 -10.246   8.227  0.00  0.00    +0.229 C 
ATOM     23  C   UNL     1      -7.292  -8.805   8.661  0.00  0.00    +0.048 C 
ENDBRANCH   2  22
ENDBRANCH  21   2
ENDBRANCH  16  21
ENDBRANCH   8  16
TORSDOF 8
ENDMDL
MODEL 8
REMARK VINA RESULT:      -4.9     13.809     15.982
REMARK  Name = 38029820
REMARK  12 active torsions:
REMARK  status: ('A' for Active; 'I' for Inactive)
REMARK    1  A    between atoms: O_2  and  C_21
REMARK    2  A    between atoms: O_2  and  C_22
REMARK    3  A    between atoms: N_4  and  C_11
REMARK    4  A    between atoms: C_5  and  C_9
REMARK    5  A    between atoms: C_6  and  C_11
REMARK    6  A    between atoms: C_8  and  C_16
REMARK    7  A    between atoms: C_9  and  C_18
REMARK    8  A    between atoms: C_9  and  C_19
REMARK    9  A    between atoms: C_10  and  C_17
REMARK   10  A    between atoms: C_12  and  C_20
REMARK   11  A    between atoms: C_16  and  C_21
REMARK   12  A    between atoms: C_22  and  C_23
REMARK                            x       y       z     vdW  Elec       q    Type
REMARK                         _______ _______ _______ _____ _____    ______ ____
ROOT
ATOM      5  C   UNL     1      18.031  -3.350  23.737  0.00  0.00    +0.000 C 
ATOM      6  C   UNL     1      18.931  -4.425  23.076  0.00  0.00    +0.032 C 
ATOM      7  C   UNL     1      18.892  -2.256  24.385  0.00  0.00    +0.012 C 
ATOM      8  C   UNL     1      19.844  -2.821  25.456  0.00  0.00    +0.025 C 
ATOM     12  C   UNL     1      20.575  -4.054  24.965  0.00  0.00    -0.073 C 
ATOM     13  C   UNL     1      20.160  -4.750  23.892  0.00  0.00    -0.022 C 
ATOM     20  C   UNL     1      21.821  -4.444  25.710  0.00  0.00    +0.039 C 
ENDROOT
BRANCH   5   9
ATOM      9  C   UNL     1      17.065  -2.721  22.730  0.00  0.00    -0.013 C 
ATOM     18  C   UNL     1      15.622  -2.911  23.187  0.00  0.00    +0.007 C 
ATOM     19  C   UNL     1      17.382  -1.241  22.540  0.00  0.00    +0.007 C 
ENDBRANCH   5   9
BRANCH   6  11
ATOM     11  C   UNL     1      18.145  -5.712  22.802  0.00  0.00    +0.112 C 
BRANCH  11   4
ATOM      1  O   UNL     1      18.495  -7.834  24.760  0.00  0.00    -0.276 OA
ATOM      4  N   UNL     1      17.293  -6.031  23.904  0.00  0.00    -0.315 N 
ATOM     17  C   UNL     1      17.539  -7.068  24.795  0.00  0.00    +0.216 C 
ATOM     24  H   UNL     1      16.484  -5.437  24.072  0.00  0.00    +0.149 HD
BRANCH  17  10
ATOM     10  C   UNL     1      16.516  -7.218  25.872  0.00  0.00    +0.075 C 
ATOM     14  C   UNL     1      15.520  -8.338  25.784  0.00  0.00    +0.013 C 
ATOM     15  C   UNL     1      16.611  -8.383  26.813  0.00  0.00    +0.013 C 
ENDBRANCH  17  10
ENDBRANCH  11   4
ENDBRANCH   6  11
BRANCH   8  16
ATOM     16  C   UNL     1      19.097  -3.109  26.763  0.00  0.00    +0.128 C 
BRANCH  16  21
ATOM      3  O   UNL     1      20.355  -1.303  27.796  0.00  0.00    -0.251 OA
ATOM     21  C   UNL     1      19.634  -2.286  27.903  0.00  0.00    +0.308 C 
BRANCH  21   2
ATOM      2  O   UNL     1      19.181  -2.823  29.075  0.00  0.00    -0.465 OA
BRANCH   2  22
ATOM     22  C   UNL     1      18.423  -1.939  29.906  0.00  0.00    +0.229 C 
ATOM     23  C   UNL     1      16.950  -2.133  29.617  0.00  0.00    +0.048 C 
ENDBRANCH   2  22
ENDBRANCH  21   2
ENDBRANCH  16  21
ENDBRANCH   8  16
TORSDOF 8
ENDMDL
MODEL 9
REMARK VINA RESULT:      -4.9     13.795     16.471
REMARK  Name = 38029820
REMARK  12 active torsions:
REMARK  status: ('A' for Active; 'I' for Inactive)
REMARK    1  A    between atoms: O_2  and  C_21
REMARK    2  A    between atoms: O_2  and  C_22
REMARK    3  A    between atoms: N_4  and  C_11
REMARK    4  A    between atoms: C_5  and  C_9
REMARK    5  A    between atoms: C_6  and  C_11
REMARK    6  A    between atoms: C_8  and  C_16
REMARK    7  A    between atoms: C_9  and  C_18
REMARK    8  A    between atoms: C_9  and  C_19
REMARK    9  A    between atoms: C_10  and  C_17
REMARK   10  A    between atoms: C_12  and  C_20
REMARK   11  A    between atoms: C_16  and  C_21
REMARK   12  A    between atoms: C_22  and  C_23
REMARK                            x       y       z     vdW  Elec       q    Type
REMARK                         _______ _______ _______ _____ _____    ______ ____
ROOT
ATOM      5  C   UNL     1      19.300  -3.379  25.217  0.00  0.00    +0.000 C 
ATOM      6  C   UNL     1      18.185  -2.521  25.866  0.00  0.00    +0.032 C 
ATOM      7  C   UNL     1      19.338  -3.145  23.699  0.00  0.00    +0.012 C 
ATOM      8  C   UNL     1      17.999  -3.491  23.022  0.00  0.00    +0.025 C 
ATOM     12  C   UNL     1      16.821  -2.897  23.767  0.00  0.00    -0.073 C 
ATOM     13  C   UNL     1      16.927  -2.456  25.034  0.00  0.00    -0.022 C 
ATOM     20  C   UNL     1      15.529  -2.779  23.009  0.00  0.00    +0.039 C 
ENDROOT
BRANCH   5   9
ATOM      9  C   UNL     1      20.674  -3.079  25.822  0.00  0.00    -0.013 C 
ATOM     18  C   UNL     1      21.704  -4.093  25.331  0.00  0.00    +0.007 C 
ATOM     19  C   UNL     1      21.109  -1.658  25.480  0.00  0.00    +0.007 C 
ENDBRANCH   5   9
BRANCH   6  11
ATOM     11  C   UNL     1      17.842  -3.032  27.271  0.00  0.00    +0.112 C 
BRANCH  11   4
ATOM      1  O   UNL     1      17.612  -4.923  29.469  0.00  0.00    -0.276 OA
ATOM      4  N   UNL     1      17.357  -4.375  27.218  0.00  0.00    -0.315 N 
ATOM     17  C   UNL     1      17.281  -5.212  28.324  0.00  0.00    +0.216 C 
ATOM     24  H   UNL     1      17.005  -4.722  26.329  0.00  0.00    +0.149 HD
BRANCH  17  10
ATOM     10  C   UNL     1      16.739  -6.573  28.037  0.00  0.00    +0.075 C 
ATOM     14  C   UNL     1      15.274  -6.834  28.236  0.00  0.00    +0.013 C 
ATOM     15  C   UNL     1      15.843  -6.767  26.849  0.00  0.00    +0.013 C 
ENDBRANCH  17  10
ENDBRANCH  11   4
ENDBRANCH   6  11
BRANCH   8  16
ATOM     16  C   UNL     1      17.837  -5.006  22.858  0.00  0.00    +0.128 C 
BRANCH  16  21
ATOM      3  O   UNL     1      19.529  -5.390  21.155  0.00  0.00    -0.251 OA
ATOM     21  C   UNL     1      19.068  -5.634  22.261  0.00  0.00    +0.308 C 
BRANCH  21   2
ATOM      2  O   UNL     1      19.581  -6.522  23.164  0.00  0.00    -0.465 OA
BRANCH   2  22
ATOM     22  C   UNL     1      18.678  -6.950  24.190  0.00  0.00    +0.229 C 
ATOM     23  C   UNL     1      19.451  -7.146  25.476  0.00  0.00    +0.048 C 
ENDBRANCH   2  22
ENDBRANCH  21   2
ENDBRANCH  16  21
ENDBRANCH   8  16
TORSDOF 8
ENDMDL
MODEL 10
REMARK VINA RESULT:      -4.8     25.654     27.908
REMARK  Name = 38029820
REMARK  12 active torsions:
REMARK  status: ('A' for Active; 'I' for Inactive)
REMARK    1  A    between atoms: O_2  and  C_21
REMARK    2  A    between atoms: O_2  and  C_22
REMARK    3  A    between atoms: N_4  and  C_11
REMARK    4  A    between atoms: C_5  and  C_9
REMARK    5  A    between atoms: C_6  and  C_11
REMARK    6  A    between atoms: C_8  and  C_16
REMARK    7  A    between atoms: C_9  and  C_18
REMARK    8  A    between atoms: C_9  and  C_19
REMARK    9  A    between atoms: C_10  and  C_17
REMARK   10  A    between atoms: C_12  and  C_20
REMARK   11  A    between atoms: C_16  and  C_21
REMARK   12  A    between atoms: C_22  and  C_23
REMARK                            x       y       z     vdW  Elec       q    Type
REMARK                         _______ _______ _______ _____ _____    ______ ____
ROOT
ATOM      5  C   UNL     1      -3.449 -10.927  11.453  0.00  0.00    +0.000 C 
ATOM      6  C   UNL     1      -3.524 -12.344  10.830  0.00  0.00    +0.032 C 
ATOM      7  C   UNL     1      -2.148 -10.763  12.253  0.00  0.00    +0.012 C 
ATOM      8  C   UNL     1      -2.024 -11.801  13.383  0.00  0.00    +0.025 C 
ATOM     12  C   UNL     1      -2.348 -13.200  12.902  0.00  0.00    -0.073 C 
ATOM     13  C   UNL     1      -3.008 -13.424  11.751  0.00  0.00    -0.022 C 
ATOM     20  C   UNL     1      -1.858 -14.340  13.751  0.00  0.00    +0.039 C 
ENDROOT
BRANCH   5   9
ATOM      9  C   UNL     1      -3.544  -9.832  10.387  0.00  0.00    -0.013 C 
ATOM     18  C   UNL     1      -4.760  -8.946  10.643  0.00  0.00    +0.007 C 
ATOM     19  C   UNL     1      -2.266  -9.001  10.361  0.00  0.00    +0.007 C 
ENDBRANCH   5   9
BRANCH   6  11
ATOM     11  C   UNL     1      -4.955 -12.683  10.397  0.00  0.00    +0.112 C 
BRANCH  11   4
ATOM      1  O   UNL     1      -7.215 -11.224   9.289  0.00  0.00    -0.276 OA
ATOM      4  N   UNL     1      -5.173 -12.319   9.033  0.00  0.00    -0.315 N 
ATOM     17  C   UNL     1      -6.288 -11.617   8.590  0.00  0.00    +0.216 C 
ATOM     24  H   UNL     1      -4.450 -12.546   8.355  0.00  0.00    +0.149 HD
BRANCH  17  10
ATOM     10  C   UNL     1      -6.307 -11.342   7.122  0.00  0.00    +0.075 C 
ATOM     14  C   UNL     1      -5.912  -9.981   6.628  0.00  0.00    +0.013 C 
ATOM     15  C   UNL     1      -5.006 -11.154   6.398  0.00  0.00    +0.013 C 
ENDBRANCH  17  10
ENDBRANCH  11   4
ENDBRANCH   6  11
BRANCH   8  16
ATOM     16  C   UNL     1      -2.896 -11.417  14.584  0.00  0.00    +0.128 C 
BRANCH  16  21
ATOM      3  O   UNL     1      -0.903 -10.552  15.676  0.00  0.00    -0.251 OA
ATOM     21  C   UNL     1      -2.065 -10.930  15.741  0.00  0.00    +0.308 C 
BRANCH  21   2
ATOM      2  O   UNL     1      -2.828 -10.982  16.873  0.00  0.00    -0.465 OA
BRANCH   2  22
ATOM     22  C   UNL     1      -4.142 -10.427  16.757  0.00  0.00    +0.229 C 
ATOM     23  C   UNL     1      -4.941 -10.788  17.991  0.00  0.00    +0.048 C 
ENDBRANCH   2  22
ENDBRANCH  21   2
ENDBRANCH  16  21
ENDBRANCH   8  16
TORSDOF 8
ENDMDL
