MODEL 1
REMARK VINA RESULT:      -7.8      0.000      0.000
REMARK  Name = 26743118
REMARK  9 active torsions:
REMARK  status: ('A' for Active; 'I' for Inactive)
REMARK    1  A    between atoms: S_1  and  C_21
REMARK    2  A    between atoms: S_1  and  C_28
REMARK    3  A    between atoms: N_7  and  C_20
REMARK    4  A    between atoms: C_9  and  C_15
REMARK    5  A    between atoms: C_10  and  C_14
REMARK    6  A    between atoms: C_14  and  C_16
REMARK    7  A    between atoms: C_15  and  C_17
REMARK    8  A    between atoms: C_19  and  C_21
REMARK    9  A    between atoms: C_20  and  C_22
REMARK                            x       y       z     vdW  Elec       q    Type
REMARK                         _______ _______ _______ _____ _____    ______ ____
ROOT
ATOM      6  N   UNL     1     -18.396   5.098  27.176  0.00  0.00    -0.316 NA
ATOM      9  C   UNL     1     -16.073   3.344  27.651  0.00  0.00    +0.004 C 
ATOM     10  C   UNL     1     -16.415   3.918  26.256  0.00  0.00    +0.012 C 
ATOM     11  C   UNL     1     -16.671   4.260  28.732  0.00  0.00    +0.019 C 
ATOM     12  C   UNL     1     -17.919   4.211  26.116  0.00  0.00    +0.085 C 
ATOM     13  C   UNL     1     -18.156   4.537  28.504  0.00  0.00    +0.081 C 
ATOM     35  H   UNL     1     -19.395   5.263  27.054  0.00  0.00    +0.122 HD
ENDROOT
BRANCH  10  14
ATOM     14  C   UNL     1     -15.932   3.033  25.107  0.00  0.00    +0.064 C 
BRANCH  14  16
ATOM      3  O   UNL     1     -16.189   4.299  21.748  0.00  0.00    -0.359 OA
ATOM      8  N   UNL     1     -16.482   3.368  22.736  0.00  0.00    -0.083 NA
ATOM     16  C   UNL     1     -15.838   3.804  23.823  0.00  0.00    +0.084 A 
ATOM     18  C   UNL     1     -15.130   4.993  23.582  0.00  0.00    +0.071 A 
ATOM     19  C   UNL     1     -15.383   5.261  22.263  0.00  0.00    +0.148 A 
BRANCH  19  21
ATOM     21  C   UNL     1     -14.973   6.332  21.346  0.00  0.00    +0.151 C 
BRANCH  21   1
ATOM      1  S   UNL     1     -14.473   7.865  22.205  0.00  0.00    -0.117 S 
BRANCH   1  28
ATOM     28  C   UNL     1     -13.045   8.345  21.244  0.00  0.00    +0.008 A 
ATOM     30  C   UNL     1     -12.704   9.692  21.128  0.00  0.00    +0.015 A 
ATOM     31  C   UNL     1     -12.272   7.372  20.611  0.00  0.00    +0.015 A 
ATOM     32  C   UNL     1     -11.589  10.067  20.377  0.00  0.00    +0.001 A 
ATOM     33  C   UNL     1     -11.158   7.747  19.861  0.00  0.00    +0.001 A 
ATOM     34  C   UNL     1     -10.815   9.094  19.744  0.00  0.00    +0.000 A 
ENDBRANCH   1  28
ENDBRANCH  21   1
ENDBRANCH  19  21
ENDBRANCH  14  16
ENDBRANCH  10  14
BRANCH   9  15
ATOM     15  C   UNL     1     -16.522   1.892  27.856  0.00  0.00    +0.099 C 
BRANCH  15  17
ATOM      2  O   UNL     1     -16.241   0.241  29.600  0.00  0.00    -0.276 OA
ATOM      7  N   UNL     1     -14.619   1.880  29.309  0.00  0.00    -0.311 N 
ATOM     17  C   UNL     1     -15.807   1.228  29.012  0.00  0.00    +0.214 C 
ATOM     36  H   UNL     1     -14.344   2.696  28.771  0.00  0.00    +0.149 HD
BRANCH   7  20
ATOM     20  C   UNL     1     -13.734   1.462  30.372  0.00  0.00    +0.139 C 
BRANCH  20  22
ATOM      4  O   UNL     1     -13.763   5.583  33.103  0.00  0.00    -0.453 OA
ATOM      5  O   UNL     1     -14.607   4.431  35.044  0.00  0.00    -0.453 OA
ATOM     22  C   UNL     1     -13.978   2.226  31.641  0.00  0.00    -0.027 A 
ATOM     23  C   UNL     1     -13.717   3.597  31.685  0.00  0.00    +0.054 A 
ATOM     24  C   UNL     1     -14.469   1.554  32.773  0.00  0.00    +0.009 A 
ATOM     25  C   UNL     1     -13.959   4.257  32.873  0.00  0.00    +0.167 A 
ATOM     26  C   UNL     1     -14.440   3.599  33.982  0.00  0.00    +0.166 A 
ATOM     27  C   UNL     1     -14.706   2.245  33.963  0.00  0.00    +0.050 A 
ATOM     29  C   UNL     1     -14.176   5.687  34.481  0.00  0.00    +0.466 C 
ENDBRANCH  20  22
ENDBRANCH   7  20
ENDBRANCH  15  17
ENDBRANCH   9  15
TORSDOF 9
ENDMDL
MODEL 2
REMARK VINA RESULT:      -7.2     18.003     21.199
REMARK  Name = 26743118
REMARK  9 active torsions:
REMARK  status: ('A' for Active; 'I' for Inactive)
REMARK    1  A    between atoms: S_1  and  C_21
REMARK    2  A    between atoms: S_1  and  C_28
REMARK    3  A    between atoms: N_7  and  C_20
REMARK    4  A    between atoms: C_9  and  C_15
REMARK    5  A    between atoms: C_10  and  C_14
REMARK    6  A    between atoms: C_14  and  C_16
REMARK    7  A    between atoms: C_15  and  C_17
REMARK    8  A    between atoms: C_19  and  C_21
REMARK    9  A    between atoms: C_20  and  C_22
REMARK                            x       y       z     vdW  Elec       q    Type
REMARK                         _______ _______ _______ _____ _____    ______ ____
ROOT
ATOM      6  N   UNL     1      -7.889 -11.112  19.640  0.00  0.00    -0.316 NA
ATOM      9  C   UNL     1      -6.004 -10.283  17.527  0.00  0.00    +0.004 C 
ATOM     10  C   UNL     1      -7.538 -10.138  17.384  0.00  0.00    +0.012 C 
ATOM     11  C   UNL     1      -5.639 -10.302  19.021  0.00  0.00    +0.019 C 
ATOM     12  C   UNL     1      -8.289 -11.176  18.234  0.00  0.00    +0.085 C 
ATOM     13  C   UNL     1      -6.453 -11.329  19.807  0.00  0.00    +0.081 C 
ATOM     35  H   UNL     1      -8.401 -11.817  20.169  0.00  0.00    +0.122 HD
ENDROOT
BRANCH  10  14
ATOM     14  C   UNL     1      -8.012 -10.190  15.931  0.00  0.00    +0.064 C 
BRANCH  14  16
ATOM      3  O   UNL     1     -10.753  -8.231  14.664  0.00  0.00    -0.359 OA
ATOM      8  N   UNL     1      -9.883  -9.312  14.602  0.00  0.00    -0.083 NA
ATOM     16  C   UNL     1      -9.090  -9.180  15.670  0.00  0.00    +0.084 A 
ATOM     18  C   UNL     1      -9.411  -8.045  16.435  0.00  0.00    +0.071 A 
ATOM     19  C   UNL     1     -10.462  -7.483  15.759  0.00  0.00    +0.148 A 
BRANCH  19  21
ATOM     21  C   UNL     1     -11.291  -6.292  15.978  0.00  0.00    +0.151 C 
BRANCH  21   1
ATOM      1  S   UNL     1     -13.054  -6.558  15.578  0.00  0.00    -0.117 S 
BRANCH   1  28
ATOM     28  C   UNL     1     -13.273  -5.416  14.220  0.00  0.00    +0.008 A 
ATOM     30  C   UNL     1     -12.160  -4.830  13.617  0.00  0.00    +0.015 A 
ATOM     31  C   UNL     1     -14.556  -5.111  13.765  0.00  0.00    +0.015 A 
ATOM     32  C   UNL     1     -12.331  -3.938  12.558  0.00  0.00    +0.001 A 
ATOM     33  C   UNL     1     -14.726  -4.221  12.706  0.00  0.00    +0.001 A 
ATOM     34  C   UNL     1     -13.613  -3.633  12.102  0.00  0.00    +0.000 A 
ENDBRANCH   1  28
ENDBRANCH  21   1
ENDBRANCH  19  21
ENDBRANCH  14  16
ENDBRANCH  10  14
BRANCH   9  15
ATOM     15  C   UNL     1      -5.424 -11.507  16.808  0.00  0.00    +0.099 C 
BRANCH  15  17
ATOM      2  O   UNL     1      -3.179 -10.616  16.682  0.00  0.00    -0.276 OA
ATOM      7  N   UNL     1      -4.095 -11.668  14.822  0.00  0.00    -0.311 N 
ATOM     17  C   UNL     1      -4.106 -11.203  16.130  0.00  0.00    +0.214 C 
ATOM     36  H   UNL     1      -4.914 -12.137  14.448  0.00  0.00    +0.149 HD
BRANCH   7  20
ATOM     20  C   UNL     1      -2.963 -11.511  13.939  0.00  0.00    +0.139 C 
BRANCH  20  22
ATOM      4  O   UNL     1      -6.118  -9.118  10.977  0.00  0.00    -0.453 OA
ATOM      5  O   UNL     1      -4.371  -8.458   9.455  0.00  0.00    -0.453 OA
ATOM     22  C   UNL     1      -3.304 -10.694  12.727  0.00  0.00    -0.027 A 
ATOM     23  C   UNL     1      -4.630 -10.322  12.493  0.00  0.00    +0.054 A 
ATOM     24  C   UNL     1      -2.285 -10.309  11.838  0.00  0.00    +0.009 A 
ATOM     25  C   UNL     1      -4.895  -9.569  11.367  0.00  0.00    +0.167 A 
ATOM     26  C   UNL     1      -3.897  -9.192  10.497  0.00  0.00    +0.166 A 
ATOM     27  C   UNL     1      -2.580  -9.547  10.705  0.00  0.00    +0.050 A 
ATOM     29  C   UNL     1      -5.779  -8.414   9.765  0.00  0.00    +0.466 C 
ENDBRANCH  20  22
ENDBRANCH   7  20
ENDBRANCH  15  17
ENDBRANCH   9  15
TORSDOF 9
ENDMDL
MODEL 3
REMARK VINA RESULT:      -7.2     19.898     22.387
REMARK  Name = 26743118
REMARK  9 active torsions:
REMARK  status: ('A' for Active; 'I' for Inactive)
REMARK    1  A    between atoms: S_1  and  C_21
REMARK    2  A    between atoms: S_1  and  C_28
REMARK    3  A    between atoms: N_7  and  C_20
REMARK    4  A    between atoms: C_9  and  C_15
REMARK    5  A    between atoms: C_10  and  C_14
REMARK    6  A    between atoms: C_14  and  C_16
REMARK    7  A    between atoms: C_15  and  C_17
REMARK    8  A    between atoms: C_19  and  C_21
REMARK    9  A    between atoms: C_20  and  C_22
REMARK                            x       y       z     vdW  Elec       q    Type
REMARK                         _______ _______ _______ _____ _____    ______ ____
ROOT
ATOM      6  N   UNL     1      -3.760 -13.522  10.304  0.00  0.00    -0.316 NA
ATOM      9  C   UNL     1      -3.615 -11.863  12.740  0.00  0.00    +0.004 C 
ATOM     10  C   UNL     1      -4.221 -11.348  11.412  0.00  0.00    +0.012 C 
ATOM     11  C   UNL     1      -3.704 -13.398  12.770  0.00  0.00    +0.019 C 
ATOM     12  C   UNL     1      -3.618 -12.070  10.196  0.00  0.00    +0.085 C 
ATOM     13  C   UNL     1      -3.122 -14.041  11.512  0.00  0.00    +0.081 C 
ATOM     35  H   UNL     1      -3.343 -13.964   9.485  0.00  0.00    +0.122 HD
ENDROOT
BRANCH  10  14
ATOM     14  C   UNL     1      -4.106  -9.832  11.248  0.00  0.00    +0.064 C 
BRANCH  14  16
ATOM      3  O   UNL     1      -6.425  -8.124   9.090  0.00  0.00    -0.359 OA
ATOM      8  N   UNL     1      -5.138  -8.457   9.494  0.00  0.00    -0.083 NA
ATOM     16  C   UNL     1      -5.304  -9.266  10.545  0.00  0.00    +0.084 A 
ATOM     18  C   UNL     1      -6.661  -9.477  10.847  0.00  0.00    +0.071 A 
ATOM     19  C   UNL     1      -7.323  -8.736   9.904  0.00  0.00    +0.148 A 
BRANCH  19  21
ATOM     21  C   UNL     1      -8.742  -8.490   9.617  0.00  0.00    +0.151 C 
BRANCH  21   1
ATOM      1  S   UNL     1      -9.007  -7.390   8.182  0.00  0.00    -0.117 S 
BRANCH   1  28
ATOM     28  C   UNL     1     -10.078  -6.150   8.895  0.00  0.00    +0.008 A 
ATOM     30  C   UNL     1     -11.151  -6.534   9.698  0.00  0.00    +0.015 A 
ATOM     31  C   UNL     1      -9.840  -4.797   8.647  0.00  0.00    +0.015 A 
ATOM     32  C   UNL     1     -11.987  -5.566  10.254  0.00  0.00    +0.001 A 
ATOM     33  C   UNL     1     -10.676  -3.830   9.203  0.00  0.00    +0.001 A 
ATOM     34  C   UNL     1     -11.750  -4.214  10.007  0.00  0.00    +0.000 A 
ENDBRANCH   1  28
ENDBRANCH  21   1
ENDBRANCH  19  21
ENDBRANCH  14  16
ENDBRANCH  10  14
BRANCH   9  15
ATOM     15  C   UNL     1      -2.177 -11.394  12.992  0.00  0.00    +0.099 C 
BRANCH  15  17
ATOM      2  O   UNL     1      -1.247  -9.728  14.478  0.00  0.00    -0.276 OA
ATOM      7  N   UNL     1      -2.906 -11.156  15.260  0.00  0.00    -0.311 N 
ATOM     17  C   UNL     1      -2.036 -10.653  14.303  0.00  0.00    +0.214 C 
ATOM     36  H   UNL     1      -3.520 -11.930  15.026  0.00  0.00    +0.149 HD
BRANCH   7  20
ATOM     20  C   UNL     1      -2.984 -10.638  16.606  0.00  0.00    +0.139 C 
BRANCH  20  22
ATOM      4  O   UNL     1      -7.703  -9.225  16.183  0.00  0.00    -0.453 OA
ATOM      5  O   UNL     1      -8.311 -10.211  18.295  0.00  0.00    -0.453 OA
ATOM     22  C   UNL     1      -4.402 -10.541  17.090  0.00  0.00    -0.027 A 
ATOM     23  C   UNL     1      -5.356  -9.883  16.312  0.00  0.00    +0.054 A 
ATOM     24  C   UNL     1      -4.756 -11.116  18.323  0.00  0.00    +0.009 A 
ATOM     25  C   UNL     1      -6.647  -9.822  16.797  0.00  0.00    +0.167 A 
ATOM     26  C   UNL     1      -6.994 -10.384  18.004  0.00  0.00    +0.166 A 
ATOM     27  C   UNL     1      -6.069 -11.040  18.792  0.00  0.00    +0.050 A 
ATOM     29  C   UNL     1      -8.755  -9.475  17.137  0.00  0.00    +0.466 C 
ENDBRANCH  20  22
ENDBRANCH   7  20
ENDBRANCH  15  17
ENDBRANCH   9  15
TORSDOF 9
ENDMDL
MODEL 4
REMARK VINA RESULT:      -7.1      1.963      2.821
REMARK  Name = 26743118
REMARK  9 active torsions:
REMARK  status: ('A' for Active; 'I' for Inactive)
REMARK    1  A    between atoms: S_1  and  C_21
REMARK    2  A    between atoms: S_1  and  C_28
REMARK    3  A    between atoms: N_7  and  C_20
REMARK    4  A    between atoms: C_9  and  C_15
REMARK    5  A    between atoms: C_10  and  C_14
REMARK    6  A    between atoms: C_14  and  C_16
REMARK    7  A    between atoms: C_15  and  C_17
REMARK    8  A    between atoms: C_19  and  C_21
REMARK    9  A    between atoms: C_20  and  C_22
REMARK                            x       y       z     vdW  Elec       q    Type
REMARK                         _______ _______ _______ _____ _____    ______ ____
ROOT
ATOM      6  N   UNL     1     -18.903   7.114  26.341  0.00  0.00    -0.316 NA
ATOM      9  C   UNL     1     -17.089   4.896  25.637  0.00  0.00    +0.004 C 
ATOM     10  C   UNL     1     -17.509   5.987  24.623  0.00  0.00    +0.012 C 
ATOM     11  C   UNL     1     -17.216   5.460  27.062  0.00  0.00    +0.019 C 
ATOM     12  C   UNL     1     -18.878   6.591  24.974  0.00  0.00    +0.085 C 
ATOM     13  C   UNL     1     -18.588   6.079  27.323  0.00  0.00    +0.081 C 
ATOM     35  H   UNL     1     -19.826   7.498  26.538  0.00  0.00    +0.122 HD
ENDROOT
BRANCH  10  14
ATOM     14  C   UNL     1     -17.494   5.497  23.174  0.00  0.00    +0.064 C 
BRANCH  14  16
ATOM      3  O   UNL     1     -14.236   4.598  21.938  0.00  0.00    -0.359 OA
ATOM      8  N   UNL     1     -15.485   4.279  22.456  0.00  0.00    -0.083 NA
ATOM     16  C   UNL     1     -16.099   5.455  22.624  0.00  0.00    +0.084 A 
ATOM     18  C   UNL     1     -15.293   6.538  22.235  0.00  0.00    +0.071 A 
ATOM     19  C   UNL     1     -14.133   5.946  21.812  0.00  0.00    +0.148 A 
BRANCH  19  21
ATOM     21  C   UNL     1     -12.866   6.458  21.276  0.00  0.00    +0.151 C 
BRANCH  21   1
ATOM      1  S   UNL     1     -12.779   8.283  21.251  0.00  0.00    -0.117 S 
BRANCH   1  28
ATOM     28  C   UNL     1     -11.740   8.556  19.822  0.00  0.00    +0.008 A 
ATOM     30  C   UNL     1     -10.964   9.711  19.735  0.00  0.00    +0.015 A 
ATOM     31  C   UNL     1     -11.707   7.613  18.794  0.00  0.00    +0.015 A 
ATOM     32  C   UNL     1     -10.154   9.924  18.619  0.00  0.00    +0.001 A 
ATOM     33  C   UNL     1     -10.896   7.826  17.680  0.00  0.00    +0.001 A 
ATOM     34  C   UNL     1     -10.119   8.982  17.592  0.00  0.00    +0.000 A 
ENDBRANCH   1  28
ENDBRANCH  21   1
ENDBRANCH  19  21
ENDBRANCH  14  16
ENDBRANCH  10  14
BRANCH   9  15
ATOM     15  C   UNL     1     -17.867   3.582  25.498  0.00  0.00    +0.099 C 
BRANCH  15  17
ATOM      2  O   UNL     1     -16.303   1.797  25.030  0.00  0.00    -0.276 OA
ATOM      7  N   UNL     1     -17.172   2.020  27.175  0.00  0.00    -0.311 N 
ATOM     17  C   UNL     1     -17.022   2.376  25.842  0.00  0.00    +0.214 C 
ATOM     36  H   UNL     1     -17.796   2.555  27.771  0.00  0.00    +0.149 HD
BRANCH   7  20
ATOM     20  C   UNL     1     -16.483   0.902  27.776  0.00  0.00    +0.139 C 
BRANCH  20  22
ATOM      4  O   UNL     1     -14.717   4.235  30.973  0.00  0.00    -0.453 OA
ATOM      5  O   UNL     1     -13.292   2.619  32.051  0.00  0.00    -0.453 OA
ATOM     22  C   UNL     1     -15.614   1.328  28.923  0.00  0.00    -0.027 A 
ATOM     23  C   UNL     1     -15.641   2.655  29.358  0.00  0.00    +0.054 A 
ATOM     24  C   UNL     1     -14.781   0.385  29.552  0.00  0.00    +0.009 A 
ATOM     25  C   UNL     1     -14.826   2.998  30.417  0.00  0.00    +0.167 A 
ATOM     26  C   UNL     1     -14.011   2.076  31.032  0.00  0.00    +0.166 A 
ATOM     27  C   UNL     1     -13.966   0.759  30.622  0.00  0.00    +0.050 A 
ATOM     29  C   UNL     1     -13.744   3.988  32.008  0.00  0.00    +0.466 C 
ENDBRANCH  20  22
ENDBRANCH   7  20
ENDBRANCH  15  17
ENDBRANCH   9  15
TORSDOF 9
ENDMDL
MODEL 5
REMARK VINA RESULT:      -7.0     20.055     23.066
REMARK  Name = 26743118
REMARK  9 active torsions:
REMARK  status: ('A' for Active; 'I' for Inactive)
REMARK    1  A    between atoms: S_1  and  C_21
REMARK    2  A    between atoms: S_1  and  C_28
REMARK    3  A    between atoms: N_7  and  C_20
REMARK    4  A    between atoms: C_9  and  C_15
REMARK    5  A    between atoms: C_10  and  C_14
REMARK    6  A    between atoms: C_14  and  C_16
REMARK    7  A    between atoms: C_15  and  C_17
REMARK    8  A    between atoms: C_19  and  C_21
REMARK    9  A    between atoms: C_20  and  C_22
REMARK                            x       y       z     vdW  Elec       q    Type
REMARK                         _______ _______ _______ _____ _____    ______ ____
ROOT
ATOM      6  N   UNL     1      -6.479 -11.738  19.968  0.00  0.00    -0.316 NA
ATOM      9  C   UNL     1      -7.357 -11.367  17.176  0.00  0.00    +0.004 C 
ATOM     10  C   UNL     1      -5.912 -11.070  17.645  0.00  0.00    +0.012 C 
ATOM     11  C   UNL     1      -7.993 -12.392  18.130  0.00  0.00    +0.019 C 
ATOM     12  C   UNL     1      -5.864 -10.702  19.137  0.00  0.00    +0.085 C 
ATOM     13  C   UNL     1      -7.871 -11.978  19.595  0.00  0.00    +0.081 C 
ATOM     35  H   UNL     1      -6.434 -11.456  20.947  0.00  0.00    +0.122 HD
ENDROOT
BRANCH  10  14
ATOM     14  C   UNL     1      -5.217  -9.997  16.806  0.00  0.00    +0.064 C 
BRANCH  14  16
ATOM      3  O   UNL     1      -2.066 -11.323  15.682  0.00  0.00    -0.359 OA
ATOM      8  N   UNL     1      -2.903 -10.808  16.664  0.00  0.00    -0.083 NA
ATOM     16  C   UNL     1      -4.060 -10.566  16.040  0.00  0.00    +0.084 A 
ATOM     18  C   UNL     1      -4.011 -10.906  14.676  0.00  0.00    +0.071 A 
ATOM     19  C   UNL     1      -2.736 -11.375  14.503  0.00  0.00    +0.148 A 
BRANCH  19  21
ATOM     21  C   UNL     1      -1.994 -11.898  13.350  0.00  0.00    +0.151 C 
BRANCH  21   1
ATOM      1  S   UNL     1      -3.056 -12.761  12.138  0.00  0.00    -0.117 S 
BRANCH   1  28
ATOM     28  C   UNL     1      -3.383 -11.445  10.973  0.00  0.00    +0.008 A 
ATOM     30  C   UNL     1      -2.803 -10.191  11.158  0.00  0.00    +0.015 A 
ATOM     31  C   UNL     1      -4.219 -11.674   9.880  0.00  0.00    +0.015 A 
ATOM     32  C   UNL     1      -3.059  -9.164  10.249  0.00  0.00    +0.001 A 
ATOM     33  C   UNL     1      -4.474 -10.648   8.972  0.00  0.00    +0.001 A 
ATOM     34  C   UNL     1      -3.894  -9.392   9.155  0.00  0.00    +0.000 A 
ENDBRANCH   1  28
ENDBRANCH  21   1
ENDBRANCH  19  21
ENDBRANCH  14  16
ENDBRANCH  10  14
BRANCH   9  15
ATOM     15  C   UNL     1      -8.239 -10.119  17.046  0.00  0.00    +0.099 C 
BRANCH  15  17
ATOM      2  O   UNL     1      -9.911  -9.287  15.510  0.00  0.00    -0.276 OA
ATOM      7  N   UNL     1      -8.645 -11.146  14.921  0.00  0.00    -0.311 N 
ATOM     17  C   UNL     1      -9.035 -10.111  15.760  0.00  0.00    +0.214 C 
ATOM     36  H   UNL     1      -7.914 -11.785  15.216  0.00  0.00    +0.149 HD
BRANCH   7  20
ATOM     20  C   UNL     1      -9.241 -11.378  13.626  0.00  0.00    +0.139 C 
BRANCH  20  22
ATOM      4  O   UNL     1      -9.343  -8.822   9.394  0.00  0.00    -0.453 OA
ATOM      5  O   UNL     1      -7.023  -8.197   9.578  0.00  0.00    -0.453 OA
ATOM     22  C   UNL     1      -8.614 -10.528  12.559  0.00  0.00    -0.027 A 
ATOM     23  C   UNL     1      -9.380 -10.105  11.471  0.00  0.00    +0.054 A 
ATOM     24  C   UNL     1      -7.260 -10.164  12.666  0.00  0.00    +0.009 A 
ATOM     25  C   UNL     1      -8.761  -9.323  10.516  0.00  0.00    +0.167 A 
ATOM     26  C   UNL     1      -7.436  -8.967  10.621  0.00  0.00    +0.166 A 
ATOM     27  C   UNL     1      -6.657  -9.372  11.686  0.00  0.00    +0.050 A 
ATOM     29  C   UNL     1      -8.237  -8.110   8.804  0.00  0.00    +0.466 C 
ENDBRANCH  20  22
ENDBRANCH   7  20
ENDBRANCH  15  17
ENDBRANCH   9  15
TORSDOF 9
ENDMDL
MODEL 6
REMARK VINA RESULT:      -6.9      4.971      7.673
REMARK  Name = 26743118
REMARK  9 active torsions:
REMARK  status: ('A' for Active; 'I' for Inactive)
REMARK    1  A    between atoms: S_1  and  C_21
REMARK    2  A    between atoms: S_1  and  C_28
REMARK    3  A    between atoms: N_7  and  C_20
REMARK    4  A    between atoms: C_9  and  C_15
REMARK    5  A    between atoms: C_10  and  C_14
REMARK    6  A    between atoms: C_14  and  C_16
REMARK    7  A    between atoms: C_15  and  C_17
REMARK    8  A    between atoms: C_19  and  C_21
REMARK    9  A    between atoms: C_20  and  C_22
REMARK                            x       y       z     vdW  Elec       q    Type
REMARK                         _______ _______ _______ _____ _____    ______ ____
ROOT
ATOM      6  N   UNL     1     -12.104  10.611  32.136  0.00  0.00    -0.316 NA
ATOM      9  C   UNL     1     -13.569   8.059  32.350  0.00  0.00    +0.004 C 
ATOM     10  C   UNL     1     -14.125   9.280  31.579  0.00  0.00    +0.012 C 
ATOM     11  C   UNL     1     -12.035   8.157  32.406  0.00  0.00    +0.019 C 
ATOM     12  C   UNL     1     -13.567  10.602  32.132  0.00  0.00    +0.085 C 
ATOM     13  C   UNL     1     -11.556   9.511  32.927  0.00  0.00    +0.081 C 
ATOM     35  H   UNL     1     -11.773  11.498  32.514  0.00  0.00    +0.122 HD
ENDROOT
BRANCH  10  14
ATOM     14  C   UNL     1     -15.653   9.318  31.537  0.00  0.00    +0.064 C 
BRANCH  14  16
ATOM      3  O   UNL     1     -16.932   7.888  28.492  0.00  0.00    -0.359 OA
ATOM      8  N   UNL     1     -16.460   8.956  29.245  0.00  0.00    -0.083 NA
ATOM     16  C   UNL     1     -16.193   8.438  30.449  0.00  0.00    +0.084 A 
ATOM     18  C   UNL     1     -16.474   7.063  30.512  0.00  0.00    +0.071 A 
ATOM     19  C   UNL     1     -16.937   6.766  29.257  0.00  0.00    +0.148 A 
BRANCH  19  21
ATOM     21  C   UNL     1     -17.411   5.536  28.613  0.00  0.00    +0.151 C 
BRANCH  21   1
ATOM      1  S   UNL     1     -16.574   4.032  29.226  0.00  0.00    -0.117 S 
BRANCH   1  28
ATOM     28  C   UNL     1     -16.578   3.016  27.755  0.00  0.00    +0.008 A 
ATOM     30  C   UNL     1     -16.380   3.599  26.504  0.00  0.00    +0.015 A 
ATOM     31  C   UNL     1     -16.780   1.639  27.860  0.00  0.00    +0.015 A 
ATOM     32  C   UNL     1     -16.384   2.806  25.357  0.00  0.00    +0.001 A 
ATOM     33  C   UNL     1     -16.783   0.847  26.712  0.00  0.00    +0.001 A 
ATOM     34  C   UNL     1     -16.585   1.430  25.460  0.00  0.00    +0.000 A 
ENDBRANCH   1  28
ENDBRANCH  21   1
ENDBRANCH  19  21
ENDBRANCH  14  16
ENDBRANCH  10  14
BRANCH   9  15
ATOM     15  C   UNL     1     -14.157   7.888  33.756  0.00  0.00    +0.099 C 
BRANCH  15  17
ATOM      2  O   UNL     1     -16.148   6.517  33.837  0.00  0.00    -0.276 OA
ATOM      7  N   UNL     1     -14.066   5.523  34.121  0.00  0.00    -0.311 N 
ATOM     17  C   UNL     1     -14.923   6.592  33.903  0.00  0.00    +0.214 C 
ATOM     36  H   UNL     1     -13.064   5.683  34.168  0.00  0.00    +0.149 HD
BRANCH   7  20
ATOM     20  C   UNL     1     -14.526   4.166  34.300  0.00  0.00    +0.139 C 
BRANCH  20  22
ATOM      4  O   UNL     1     -14.998   0.036  31.623  0.00  0.00    -0.453 OA
ATOM      5  O   UNL     1     -13.676   0.918  29.812  0.00  0.00    -0.453 OA
ATOM     22  C   UNL     1     -14.277   3.323  33.083  0.00  0.00    -0.027 A 
ATOM     23  C   UNL     1     -14.816   2.036  33.010  0.00  0.00    +0.054 A 
ATOM     24  C   UNL     1     -13.505   3.838  32.028  0.00  0.00    +0.009 A 
ATOM     25  C   UNL     1     -14.561   1.300  31.870  0.00  0.00    +0.167 A 
ATOM     26  C   UNL     1     -13.805   1.804  30.837  0.00  0.00    +0.166 A 
ATOM     27  C   UNL     1     -13.263   3.072  30.885  0.00  0.00    +0.050 A 
ATOM     29  C   UNL     1     -14.434  -0.200  30.317  0.00  0.00    +0.466 C 
ENDBRANCH  20  22
ENDBRANCH   7  20
ENDBRANCH  15  17
ENDBRANCH   9  15
TORSDOF 9
ENDMDL
MODEL 7
REMARK VINA RESULT:      -6.9     32.775     37.484
REMARK  Name = 26743118
REMARK  9 active torsions:
REMARK  status: ('A' for Active; 'I' for Inactive)
REMARK    1  A    between atoms: S_1  and  C_21
REMARK    2  A    between atoms: S_1  and  C_28
REMARK    3  A    between atoms: N_7  and  C_20
REMARK    4  A    between atoms: C_9  and  C_15
REMARK    5  A    between atoms: C_10  and  C_14
REMARK    6  A    between atoms: C_14  and  C_16
REMARK    7  A    between atoms: C_15  and  C_17
REMARK    8  A    between atoms: C_19  and  C_21
REMARK    9  A    between atoms: C_20  and  C_22
REMARK                            x       y       z     vdW  Elec       q    Type
REMARK                         _______ _______ _______ _____ _____    ______ ____
ROOT
ATOM      6  N   UNL     1      14.355  10.994   3.257  0.00  0.00    -0.316 NA
ATOM      9  C   UNL     1      14.255   8.069   2.886  0.00  0.00    +0.004 C 
ATOM     10  C   UNL     1      14.233   8.736   4.282  0.00  0.00    +0.012 C 
ATOM     11  C   UNL     1      13.726   9.069   1.844  0.00  0.00    +0.019 C 
ATOM     12  C   UNL     1      14.931  10.106   4.267  0.00  0.00    +0.085 C 
ATOM     13  C   UNL     1      14.438  10.418   1.917  0.00  0.00    +0.081 C 
ATOM     35  H   UNL     1      14.847  11.887   3.273  0.00  0.00    +0.122 HD
ENDROOT
BRANCH  10  14
ATOM     14  C   UNL     1      14.818   7.848   5.381  0.00  0.00    +0.064 C 
BRANCH  14  16
ATOM      3  O   UNL     1      12.847   6.089   7.824  0.00  0.00    -0.359 OA
ATOM      8  N   UNL     1      14.061   6.507   7.294  0.00  0.00    -0.083 NA
ATOM     16  C   UNL     1      13.738   7.226   6.215  0.00  0.00    +0.084 A 
ATOM     18  C   UNL     1      12.348   7.296   6.017  0.00  0.00    +0.071 A 
ATOM     19  C   UNL     1      11.834   6.564   7.055  0.00  0.00    +0.148 A 
BRANCH  19  21
ATOM     21  C   UNL     1      10.472   6.213   7.475  0.00  0.00    +0.151 C 
BRANCH  21   1
ATOM      1  S   UNL     1       9.620   5.099   6.303  0.00  0.00    -0.117 S 
BRANCH   1  28
ATOM     28  C   UNL     1       9.209   6.236   4.988  0.00  0.00    +0.008 A 
ATOM     30  C   UNL     1       8.249   7.226   5.197  0.00  0.00    +0.015 A 
ATOM     31  C   UNL     1       9.847   6.133   3.752  0.00  0.00    +0.015 A 
ATOM     32  C   UNL     1       7.928   8.114   4.169  0.00  0.00    +0.001 A 
ATOM     33  C   UNL     1       9.526   7.020   2.725  0.00  0.00    +0.001 A 
ATOM     34  C   UNL     1       8.566   8.011   2.934  0.00  0.00    +0.000 A 
ENDBRANCH   1  28
ENDBRANCH  21   1
ENDBRANCH  19  21
ENDBRANCH  14  16
ENDBRANCH  10  14
BRANCH   9  15
ATOM     15  C   UNL     1      15.629   7.527   2.475  0.00  0.00    +0.099 C 
BRANCH  15  17
ATOM      2  O   UNL     1      15.899   6.264   0.430  0.00  0.00    -0.276 OA
ATOM      7  N   UNL     1      14.950   5.238   2.288  0.00  0.00    -0.311 N 
ATOM     17  C   UNL     1      15.523   6.298   1.599  0.00  0.00    +0.214 C 
ATOM     36  H   UNL     1      14.663   5.362   3.254  0.00  0.00    +0.149 HD
BRANCH   7  20
ATOM     20  C   UNL     1      14.725   3.941   1.695  0.00  0.00    +0.139 C 
BRANCH  20  22
ATOM      4  O   UNL     1      12.285   3.118  -2.527  0.00  0.00    -0.453 OA
ATOM      5  O   UNL     1      10.178   3.806  -1.580  0.00  0.00    -0.453 OA
ATOM     22  C   UNL     1      13.487   3.919   0.846  0.00  0.00    -0.027 A 
ATOM     23  C   UNL     1      13.566   3.498  -0.484  0.00  0.00    +0.054 A 
ATOM     24  C   UNL     1      12.258   4.320   1.398  0.00  0.00    +0.009 A 
ATOM     25  C   UNL     1      12.401   3.492  -1.224  0.00  0.00    +0.167 A 
ATOM     26  C   UNL     1      11.198   3.886  -0.683  0.00  0.00    +0.166 A 
ATOM     27  C   UNL     1      11.094   4.305   0.627  0.00  0.00    +0.050 A 
ATOM     29  C   UNL     1      10.874   3.319  -2.746  0.00  0.00    +0.466 C 
ENDBRANCH  20  22
ENDBRANCH   7  20
ENDBRANCH  15  17
ENDBRANCH   9  15
TORSDOF 9
ENDMDL
MODEL 8
REMARK VINA RESULT:      -6.8     20.708     22.890
REMARK  Name = 26743118
REMARK  9 active torsions:
REMARK  status: ('A' for Active; 'I' for Inactive)
REMARK    1  A    between atoms: S_1  and  C_21
REMARK    2  A    between atoms: S_1  and  C_28
REMARK    3  A    between atoms: N_7  and  C_20
REMARK    4  A    between atoms: C_9  and  C_15
REMARK    5  A    between atoms: C_10  and  C_14
REMARK    6  A    between atoms: C_14  and  C_16
REMARK    7  A    between atoms: C_15  and  C_17
REMARK    8  A    between atoms: C_19  and  C_21
REMARK    9  A    between atoms: C_20  and  C_22
REMARK                            x       y       z     vdW  Elec       q    Type
REMARK                         _______ _______ _______ _____ _____    ______ ____
ROOT
ATOM      6  N   UNL     1     -10.292 -13.460  18.946  0.00  0.00    -0.316 NA
ATOM      9  C   UNL     1      -7.827 -12.045  18.155  0.00  0.00    +0.004 C 
ATOM     10  C   UNL     1      -8.446 -13.182  17.309  0.00  0.00    +0.012 C 
ATOM     11  C   UNL     1      -8.928 -11.401  19.014  0.00  0.00    +0.019 C 
ATOM     12  C   UNL     1      -9.261 -14.156  18.176  0.00  0.00    +0.085 C 
ATOM     13  C   UNL     1      -9.720 -12.434  19.816  0.00  0.00    +0.081 C 
ATOM     35  H   UNL     1     -10.804 -14.136  19.512  0.00  0.00    +0.122 HD
ENDROOT
BRANCH  10  14
ATOM     14  C   UNL     1      -7.413 -13.942  16.476  0.00  0.00    +0.064 C 
BRANCH  14  16
ATOM      3  O   UNL     1      -6.913 -13.368  12.958  0.00  0.00    -0.359 OA
ATOM      8  N   UNL     1      -6.849 -14.164  14.095  0.00  0.00    -0.083 NA
ATOM     16  C   UNL     1      -7.329 -13.398  15.080  0.00  0.00    +0.084 A 
ATOM     18  C   UNL     1      -7.707 -12.122  14.628  0.00  0.00    +0.071 A 
ATOM     19  C   UNL     1      -7.424 -12.154  13.288  0.00  0.00    +0.148 A 
BRANCH  19  21
ATOM     21  C   UNL     1      -7.560 -11.183  12.196  0.00  0.00    +0.151 C 
BRANCH  21   1
ATOM      1  S   UNL     1      -6.928  -9.523  12.624  0.00  0.00    -0.117 S 
BRANCH   1  28
ATOM     28  C   UNL     1      -5.358  -9.524  11.770  0.00  0.00    +0.008 A 
ATOM     30  C   UNL     1      -5.207  -8.800  10.588  0.00  0.00    +0.015 A 
ATOM     31  C   UNL     1      -4.284 -10.252  12.285  0.00  0.00    +0.015 A 
ATOM     32  C   UNL     1      -3.982  -8.802   9.921  0.00  0.00    +0.001 A 
ATOM     33  C   UNL     1      -3.060 -10.253  11.618  0.00  0.00    +0.001 A 
ATOM     34  C   UNL     1      -2.908  -9.528  10.435  0.00  0.00    +0.000 A 
ENDBRANCH   1  28
ENDBRANCH  21   1
ENDBRANCH  19  21
ENDBRANCH  14  16
ENDBRANCH  10  14
BRANCH   9  15
ATOM     15  C   UNL     1      -6.645 -12.488  19.025  0.00  0.00    +0.099 C 
BRANCH  15  17
ATOM      2  O   UNL     1      -4.398 -11.702  19.453  0.00  0.00    -0.276 OA
ATOM      7  N   UNL     1      -5.501 -11.011  17.527  0.00  0.00    -0.311 N 
ATOM     17  C   UNL     1      -5.385 -11.707  18.722  0.00  0.00    +0.214 C 
ATOM     36  H   UNL     1      -6.361 -11.070  16.991  0.00  0.00    +0.149 HD
BRANCH   7  20
ATOM     20  C   UNL     1      -4.447 -10.179  16.993  0.00  0.00    +0.139 C 
BRANCH  20  22
ATOM      4  O   UNL     1      -3.403 -13.846  13.845  0.00  0.00    -0.453 OA
ATOM      5  O   UNL     1      -1.115 -13.133  13.590  0.00  0.00    -0.453 OA
ATOM     22  C   UNL     1      -3.527 -10.948  16.091  0.00  0.00    -0.027 A 
ATOM     23  C   UNL     1      -4.003 -12.067  15.405  0.00  0.00    +0.054 A 
ATOM     24  C   UNL     1      -2.192 -10.532  15.942  0.00  0.00    +0.009 A 
ATOM     25  C   UNL     1      -3.120 -12.740  14.586  0.00  0.00    +0.167 A 
ATOM     26  C   UNL     1      -1.814 -12.334  14.441  0.00  0.00    +0.166 A 
ATOM     27  C   UNL     1      -1.318 -11.231  15.106  0.00  0.00    +0.050 A 
ATOM     29  C   UNL     1      -2.128 -14.090  13.217  0.00  0.00    +0.466 C 
ENDBRANCH  20  22
ENDBRANCH   7  20
ENDBRANCH  15  17
ENDBRANCH   9  15
TORSDOF 9
ENDMDL
MODEL 9
REMARK VINA RESULT:      -6.8     20.412     22.796
REMARK  Name = 26743118
REMARK  9 active torsions:
REMARK  status: ('A' for Active; 'I' for Inactive)
REMARK    1  A    between atoms: S_1  and  C_21
REMARK    2  A    between atoms: S_1  and  C_28
REMARK    3  A    between atoms: N_7  and  C_20
REMARK    4  A    between atoms: C_9  and  C_15
REMARK    5  A    between atoms: C_10  and  C_14
REMARK    6  A    between atoms: C_14  and  C_16
REMARK    7  A    between atoms: C_15  and  C_17
REMARK    8  A    between atoms: C_19  and  C_21
REMARK    9  A    between atoms: C_20  and  C_22
REMARK                            x       y       z     vdW  Elec       q    Type
REMARK                         _______ _______ _______ _____ _____    ______ ____
ROOT
ATOM      6  N   UNL     1      -2.614 -15.664  12.056  0.00  0.00    -0.316 NA
ATOM      9  C   UNL     1      -3.062 -13.521  14.034  0.00  0.00    +0.004 C 
ATOM     10  C   UNL     1      -3.775 -13.554  12.661  0.00  0.00    +0.012 C 
ATOM     11  C   UNL     1      -2.652 -14.952  14.421  0.00  0.00    +0.019 C 
ATOM     12  C   UNL     1      -2.946 -14.311  11.609  0.00  0.00    +0.085 C 
ATOM     13  C   UNL     1      -1.868 -15.653  13.312  0.00  0.00    +0.081 C 
ATOM     35  H   UNL     1      -2.060 -16.130  11.338  0.00  0.00    +0.122 HD
ENDROOT
BRANCH  10  14
ATOM     14  C   UNL     1      -4.153 -12.164  12.147  0.00  0.00    +0.064 C 
BRANCH  14  16
ATOM      3  O   UNL     1      -5.823  -9.942  14.434  0.00  0.00    -0.359 OA
ATOM      8  N   UNL     1      -4.746 -10.299  13.632  0.00  0.00    -0.083 NA
ATOM     16  C   UNL     1      -5.092 -11.470  13.089  0.00  0.00    +0.084 A 
ATOM     18  C   UNL     1      -6.364 -11.897  13.508  0.00  0.00    +0.071 A 
ATOM     19  C   UNL     1      -6.780 -10.902  14.353  0.00  0.00    +0.148 A 
BRANCH  19  21
ATOM     21  C   UNL     1      -7.996 -10.682  15.145  0.00  0.00    +0.151 C 
BRANCH  21   1
ATOM      1  S   UNL     1      -7.752  -9.520  16.534  0.00  0.00    -0.117 S 
BRANCH   1  28
ATOM     28  C   UNL     1      -9.411  -9.422  17.192  0.00  0.00    +0.008 A 
ATOM     30  C   UNL     1      -9.720 -10.051  18.398  0.00  0.00    +0.015 A 
ATOM     31  C   UNL     1     -10.396  -8.718  16.499  0.00  0.00    +0.015 A 
ATOM     32  C   UNL     1     -11.015  -9.975  18.911  0.00  0.00    +0.001 A 
ATOM     33  C   UNL     1     -11.690  -8.642  17.013  0.00  0.00    +0.001 A 
ATOM     34  C   UNL     1     -12.000  -9.271  18.219  0.00  0.00    +0.000 A 
ENDBRANCH   1  28
ENDBRANCH  21   1
ENDBRANCH  19  21
ENDBRANCH  14  16
ENDBRANCH  10  14
BRANCH   9  15
ATOM     15  C   UNL     1      -1.858 -12.574  14.089  0.00  0.00    +0.099 C 
BRANCH  15  17
ATOM      2  O   UNL     1      -1.054 -10.804  15.528  0.00  0.00    -0.276 OA
ATOM      7  N   UNL     1      -3.114 -11.786  15.970  0.00  0.00    -0.311 N 
ATOM     17  C   UNL     1      -1.934 -11.617  15.259  0.00  0.00    +0.214 C 
ATOM     36  H   UNL     1      -3.783 -12.491  15.676  0.00  0.00    +0.149 HD
BRANCH   7  20
ATOM     20  C   UNL     1      -3.449 -11.006  17.139  0.00  0.00    +0.139 C 
BRANCH  20  22
ATOM      4  O   UNL     1      -7.433 -13.921  17.434  0.00  0.00    -0.453 OA
ATOM      5  O   UNL     1      -8.141 -12.940  19.517  0.00  0.00    -0.453 OA
ATOM     22  C   UNL     1      -4.702 -11.499  17.803  0.00  0.00    -0.027 A 
ATOM     23  C   UNL     1      -5.444 -12.522  17.210  0.00  0.00    +0.054 A 
ATOM     24  C   UNL     1      -5.116 -10.926  19.018  0.00  0.00    +0.009 A 
ATOM     25  C   UNL     1      -6.588 -12.943  17.859  0.00  0.00    +0.167 A 
ATOM     26  C   UNL     1      -6.993 -12.382  19.048  0.00  0.00    +0.166 A 
ATOM     27  C   UNL     1      -6.277 -11.370  19.654  0.00  0.00    +0.050 A 
ATOM     29  C   UNL     1      -8.415 -13.914  18.490  0.00  0.00    +0.466 C 
ENDBRANCH  20  22
ENDBRANCH   7  20
ENDBRANCH  15  17
ENDBRANCH   9  15
TORSDOF 9
ENDMDL
MODEL 10
REMARK VINA RESULT:      -6.8     17.996     20.724
REMARK  Name = 26743118
REMARK  9 active torsions:
REMARK  status: ('A' for Active; 'I' for Inactive)
REMARK    1  A    between atoms: S_1  and  C_21
REMARK    2  A    between atoms: S_1  and  C_28
REMARK    3  A    between atoms: N_7  and  C_20
REMARK    4  A    between atoms: C_9  and  C_15
REMARK    5  A    between atoms: C_10  and  C_14
REMARK    6  A    between atoms: C_14  and  C_16
REMARK    7  A    between atoms: C_15  and  C_17
REMARK    8  A    between atoms: C_19  and  C_21
REMARK    9  A    between atoms: C_20  and  C_22
REMARK                            x       y       z     vdW  Elec       q    Type
REMARK                         _______ _______ _______ _____ _____    ______ ____
ROOT
ATOM      6  N   UNL     1      -8.395 -13.537  19.915  0.00  0.00    -0.316 NA
ATOM      9  C   UNL     1      -8.335 -11.606  17.685  0.00  0.00    +0.004 C 
ATOM     10  C   UNL     1      -7.057 -12.071  18.423  0.00  0.00    +0.012 C 
ATOM     11  C   UNL     1      -9.422 -12.683  17.838  0.00  0.00    +0.019 C 
ATOM     12  C   UNL     1      -7.361 -12.503  19.868  0.00  0.00    +0.085 C 
ATOM     13  C   UNL     1      -9.640 -13.089  19.295  0.00  0.00    +0.081 C 
ATOM     35  H   UNL     1      -8.573 -13.791  20.886  0.00  0.00    +0.122 HD
ENDROOT
BRANCH  10  14
ATOM     14  C   UNL     1      -5.937 -11.030  18.399  0.00  0.00    +0.064 C 
BRANCH  14  16
ATOM      3  O   UNL     1      -4.202 -12.163  15.457  0.00  0.00    -0.359 OA
ATOM      8  N   UNL     1      -5.156 -12.313  16.455  0.00  0.00    -0.083 NA
ATOM     16  C   UNL     1      -5.044 -11.214  17.208  0.00  0.00    +0.084 A 
ATOM     18  C   UNL     1      -4.045 -10.345  16.737  0.00  0.00    +0.071 A 
ATOM     19  C   UNL     1      -3.546 -10.988  15.635  0.00  0.00    +0.148 A 
BRANCH  19  21
ATOM     21  C   UNL     1      -2.495 -10.670  14.661  0.00  0.00    +0.151 C 
BRANCH  21   1
ATOM      1  S   UNL     1      -2.611 -11.656  13.127  0.00  0.00    -0.117 S 
BRANCH   1  28
ATOM     28  C   UNL     1      -3.394 -10.486  12.026  0.00  0.00    +0.008 A 
ATOM     30  C   UNL     1      -4.714 -10.095  12.249  0.00  0.00    +0.015 A 
ATOM     31  C   UNL     1      -2.685  -9.965  10.944  0.00  0.00    +0.015 A 
ATOM     32  C   UNL     1      -5.325  -9.182  11.389  0.00  0.00    +0.001 A 
ATOM     33  C   UNL     1      -3.296  -9.052  10.085  0.00  0.00    +0.001 A 
ATOM     34  C   UNL     1      -4.616  -8.660  10.308  0.00  0.00    +0.000 A 
ENDBRANCH   1  28
ENDBRANCH  21   1
ENDBRANCH  19  21
ENDBRANCH  14  16
ENDBRANCH  10  14
BRANCH   9  15
ATOM     15  C   UNL     1      -8.854 -10.237  18.140  0.00  0.00    +0.099 C 
BRANCH  15  17
ATOM      2  O   UNL     1      -7.886  -9.172  16.196  0.00  0.00    -0.276 OA
ATOM      7  N   UNL     1      -9.833  -8.303  17.121  0.00  0.00    -0.311 N 
ATOM     17  C   UNL     1      -8.777  -9.200  17.041  0.00  0.00    +0.214 C 
ATOM     36  H   UNL     1     -10.521  -8.401  17.861  0.00  0.00    +0.149 HD
BRANCH   7  20
ATOM     20  C   UNL     1     -10.009  -7.206  16.198  0.00  0.00    +0.139 C 
BRANCH  20  22
ATOM      4  O   UNL     1     -13.656  -4.995  13.697  0.00  0.00    -0.453 OA
ATOM      5  O   UNL     1     -15.337  -6.442  14.638  0.00  0.00    -0.453 OA
ATOM     22  C   UNL     1     -11.446  -7.028  15.803  0.00  0.00    -0.027 A 
ATOM     23  C   UNL     1     -11.796  -6.029  14.893  0.00  0.00    +0.054 A 
ATOM     24  C   UNL     1     -12.427  -7.872  16.353  0.00  0.00    +0.009 A 
ATOM     25  C   UNL     1     -13.130  -5.906  14.559  0.00  0.00    +0.167 A 
ATOM     26  C   UNL     1     -14.090  -6.731  15.097  0.00  0.00    +0.166 A 
ATOM     27  C   UNL     1     -13.770  -7.726  15.998  0.00  0.00    +0.050 A 
ATOM     29  C   UNL     1     -15.055  -5.340  13.751  0.00  0.00    +0.466 C 
ENDBRANCH  20  22
ENDBRANCH   7  20
ENDBRANCH  15  17
ENDBRANCH   9  15
TORSDOF 9
ENDMDL
