MODEL 1
REMARK VINA RESULT:      -7.4      0.000      0.000
REMARK  Name = 11912019
REMARK  9 active torsions:
REMARK  status: ('A' for Active; 'I' for Inactive)
REMARK    1  A    between atoms: N_3  and  C_10
REMARK    2  A    between atoms: N_3  and  C_15
REMARK    3  A    between atoms: N_4  and  C_11
REMARK    4  A    between atoms: N_7  and  C_23
REMARK    5  A    between atoms: N_7  and  C_24
REMARK    6  A    between atoms: N_7  and  C_25
REMARK    7  A    between atoms: C_14  and  C_15
REMARK    8  A    between atoms: C_22  and  C_23
REMARK    9  A    between atoms: C_24  and  C_26
REMARK                            x       y       z     vdW  Elec       q    Type
REMARK                         _______ _______ _______ _____ _____    ______ ____
ROOT
ATOM      1  O   UNL     1     -17.559   4.573  26.043  0.00  0.00    -0.370 OA
ATOM      2  O   UNL     1     -16.370   2.029  24.679  0.00  0.00    -0.370 OA
ATOM      8  C   UNL     1     -15.828   3.015  25.574  0.00  0.00    +0.168 C 
ATOM      9  C   UNL     1     -16.420   4.356  25.189  0.00  0.00    +0.175 C 
ATOM     10  C   UNL     1     -16.328   2.773  26.982  0.00  0.00    +0.111 C 
ATOM     11  C   UNL     1     -16.883   4.173  23.756  0.00  0.00    +0.166 C 
ATOM     12  C   UNL     1     -17.676   3.473  26.958  0.00  0.00    +0.181 C 
ATOM     13  C   UNL     1     -17.170   2.677  23.680  0.00  0.00    +0.189 C 
ENDROOT
BRANCH  11   4
ATOM      4  N   UNL     1     -15.906   4.671  22.784  0.00  0.00    -0.244 N 
ATOM      5  N   UNL     1     -16.172   4.760  21.485  0.00  0.00    -0.065 NA
ATOM      6  N   UNL     1     -15.076   5.250  20.886  0.00  0.00    -0.133 NA
ATOM     21  C   UNL     1     -14.628   5.114  22.982  0.00  0.00    +0.135 A 
ATOM     22  C   UNL     1     -14.079   5.488  21.781  0.00  0.00    +0.097 A 
BRANCH  22  23
ATOM     23  C   UNL     1     -12.767   6.023  21.422  0.00  0.00    +0.143 C 
BRANCH  23   7
ATOM      7  N   UNL     1     -12.824   7.373  20.830  0.00  0.00    -0.295 NA
ATOM     25  C   UNL     1     -13.806   8.186  21.536  0.00  0.00    +0.105 C 
BRANCH   7  24
ATOM     24  C   UNL     1     -11.505   7.992  20.875  0.00  0.00    +0.119 C 
BRANCH  24  26
ATOM     26  C   UNL     1     -11.059   8.463  19.516  0.00  0.00    -0.033 A 
ATOM     27  C   UNL     1     -11.206   7.631  18.406  0.00  0.00    +0.005 A 
ATOM     28  C   UNL     1     -10.500   9.733  19.367  0.00  0.00    +0.005 A 
ATOM     29  C   UNL     1     -10.794   8.068  17.147  0.00  0.00    +0.000 A 
ATOM     30  C   UNL     1     -10.088  10.169  18.107  0.00  0.00    +0.000 A 
ATOM     31  C   UNL     1     -10.235   9.337  16.998  0.00  0.00    +0.000 A 
ENDBRANCH  24  26
ENDBRANCH   7  24
ENDBRANCH  23   7
ENDBRANCH  22  23
ENDBRANCH  11   4
BRANCH  10   3
ATOM      3  N   UNL     1     -15.452   3.423  27.956  0.00  0.00    -0.309 NA
ATOM     32  H   UNL     1     -15.212   4.361  27.635  0.00  0.00    +0.122 HD
BRANCH   3  15
ATOM     15  C   UNL     1     -16.102   3.531  29.253  0.00  0.00    +0.084 C 
BRANCH  15  14
ATOM     14  C   UNL     1     -15.222   2.942  30.353  0.00  0.00    +0.003 C 
ATOM     16  C   UNL     1     -15.271   1.409  30.323  0.00  0.00    +0.005 C 
ATOM     17  C   UNL     1     -15.644   3.476  31.728  0.00  0.00    +0.005 C 
ATOM     18  C   UNL     1     -14.440   0.796  31.449  0.00  0.00    +0.000 C 
ATOM     19  C   UNL     1     -14.813   2.860  32.851  0.00  0.00    +0.000 C 
ATOM     20  C   UNL     1     -14.857   1.336  32.814  0.00  0.00    +0.000 C 
ENDBRANCH  15  14
ENDBRANCH   3  15
ENDBRANCH  10   3
TORSDOF 8
ENDMDL
MODEL 2
REMARK VINA RESULT:      -7.3     27.594     30.064
REMARK  Name = 11912019
REMARK  9 active torsions:
REMARK  status: ('A' for Active; 'I' for Inactive)
REMARK    1  A    between atoms: N_3  and  C_10
REMARK    2  A    between atoms: N_3  and  C_15
REMARK    3  A    between atoms: N_4  and  C_11
REMARK    4  A    between atoms: N_7  and  C_23
REMARK    5  A    between atoms: N_7  and  C_24
REMARK    6  A    between atoms: N_7  and  C_25
REMARK    7  A    between atoms: C_14  and  C_15
REMARK    8  A    between atoms: C_22  and  C_23
REMARK    9  A    between atoms: C_24  and  C_26
REMARK                            x       y       z     vdW  Elec       q    Type
REMARK                         _______ _______ _______ _____ _____    ______ ____
ROOT
ATOM      1  O   UNL     1      13.373   9.100  20.926  0.00  0.00    -0.370 OA
ATOM      2  O   UNL     1      12.099   7.011  18.987  0.00  0.00    -0.370 OA
ATOM      8  C   UNL     1      13.444   7.248  19.440  0.00  0.00    +0.168 C 
ATOM      9  C   UNL     1      13.630   8.748  19.553  0.00  0.00    +0.175 C 
ATOM     10  C   UNL     1      13.615   6.740  20.856  0.00  0.00    +0.111 C 
ATOM     11  C   UNL     1      12.550   9.335  18.664  0.00  0.00    +0.166 C 
ATOM     12  C   UNL     1      13.087   7.908  21.671  0.00  0.00    +0.181 C 
ATOM     13  C   UNL     1      11.466   8.263  18.692  0.00  0.00    +0.189 C 
ENDROOT
BRANCH  11   4
ATOM      4  N   UNL     1      13.050   9.683  17.331  0.00  0.00    -0.244 N 
ATOM      5  N   UNL     1      12.793   8.945  16.256  0.00  0.00    -0.065 NA
ATOM      6  N   UNL     1      13.391   9.539  15.212  0.00  0.00    -0.133 NA
ATOM     21  C   UNL     1      13.816  10.745  16.938  0.00  0.00    +0.135 A 
ATOM     22  C   UNL     1      14.047  10.671  15.587  0.00  0.00    +0.097 A 
BRANCH  22  23
ATOM     23  C   UNL     1      14.790  11.529  14.666  0.00  0.00    +0.143 C 
BRANCH  23   7
ATOM      7  N   UNL     1      13.987  12.639  14.118  0.00  0.00    -0.295 NA
ATOM     25  C   UNL     1      14.503  13.913  14.602  0.00  0.00    +0.105 C 
BRANCH   7  24
ATOM     24  C   UNL     1      13.999  12.590  12.662  0.00  0.00    +0.119 C 
BRANCH  24  26
ATOM     26  C   UNL     1      12.627  12.334  12.097  0.00  0.00    -0.033 A 
ATOM     27  C   UNL     1      12.440  12.278  10.717  0.00  0.00    +0.005 A 
ATOM     28  C   UNL     1      11.542  12.150  12.956  0.00  0.00    +0.005 A 
ATOM     29  C   UNL     1      11.169  12.040  10.193  0.00  0.00    +0.000 A 
ATOM     30  C   UNL     1      10.271  11.912  12.433  0.00  0.00    +0.000 A 
ATOM     31  C   UNL     1      10.084  11.857  11.052  0.00  0.00    +0.000 A 
ENDBRANCH  24  26
ENDBRANCH   7  24
ENDBRANCH  23   7
ENDBRANCH  22  23
ENDBRANCH  11   4
BRANCH  10   3
ATOM      3  N   UNL     1      15.030   6.527  21.157  0.00  0.00    -0.309 NA
ATOM     32  H   UNL     1      15.143   5.675  21.705  0.00  0.00    +0.122 HD
BRANCH   3  15
ATOM     15  C   UNL     1      15.810   6.398  19.936  0.00  0.00    +0.084 C 
BRANCH  15  14
ATOM     14  C   UNL     1      17.190   7.029  20.103  0.00  0.00    +0.003 C 
ATOM     16  C   UNL     1      18.260   5.947  20.301  0.00  0.00    +0.005 C 
ATOM     17  C   UNL     1      17.194   8.023  21.272  0.00  0.00    +0.005 C 
ATOM     18  C   UNL     1      19.643   6.555  20.524  0.00  0.00    +0.000 C 
ATOM     19  C   UNL     1      18.578   8.628  21.492  0.00  0.00    +0.000 C 
ATOM     20  C   UNL     1      19.641   7.549  21.681  0.00  0.00    +0.000 C 
ENDBRANCH  15  14
ENDBRANCH   3  15
ENDBRANCH  10   3
TORSDOF 8
ENDMDL
MODEL 3
REMARK VINA RESULT:      -7.1     17.998     20.718
REMARK  Name = 11912019
REMARK  9 active torsions:
REMARK  status: ('A' for Active; 'I' for Inactive)
REMARK    1  A    between atoms: N_3  and  C_10
REMARK    2  A    between atoms: N_3  and  C_15
REMARK    3  A    between atoms: N_4  and  C_11
REMARK    4  A    between atoms: N_7  and  C_23
REMARK    5  A    between atoms: N_7  and  C_24
REMARK    6  A    between atoms: N_7  and  C_25
REMARK    7  A    between atoms: C_14  and  C_15
REMARK    8  A    between atoms: C_22  and  C_23
REMARK    9  A    between atoms: C_24  and  C_26
REMARK                            x       y       z     vdW  Elec       q    Type
REMARK                         _______ _______ _______ _____ _____    ______ ____
ROOT
ATOM      1  O   UNL     1      -4.166  -9.976  16.785  0.00  0.00    -0.370 OA
ATOM      2  O   UNL     1      -4.545 -12.917  17.761  0.00  0.00    -0.370 OA
ATOM      8  C   UNL     1      -5.018 -12.187  16.616  0.00  0.00    +0.168 C 
ATOM      9  C   UNL     1      -5.329 -10.775  17.072  0.00  0.00    +0.175 C 
ATOM     10  C   UNL     1      -3.904 -12.019  15.605  0.00  0.00    +0.111 C 
ATOM     11  C   UNL     1      -5.514 -10.889  18.573  0.00  0.00    +0.166 C 
ATOM     12  C   UNL     1      -3.180 -10.796  16.141  0.00  0.00    +0.181 C 
ATOM     13  C   UNL     1      -4.650 -12.095  18.931  0.00  0.00    +0.189 C 
ENDROOT
BRANCH  11   4
ATOM      4  N   UNL     1      -6.924 -10.995  18.959  0.00  0.00    -0.244 N 
ATOM      5  N   UNL     1      -7.335 -11.767  19.959  0.00  0.00    -0.065 NA
ATOM      6  N   UNL     1      -8.667 -11.632  20.044  0.00  0.00    -0.133 NA
ATOM     21  C   UNL     1      -8.021 -10.380  18.424  0.00  0.00    +0.135 A 
ATOM     22  C   UNL     1      -9.146 -10.774  19.103  0.00  0.00    +0.097 A 
BRANCH  22  23
ATOM     23  C   UNL     1     -10.558 -10.430  18.952  0.00  0.00    +0.143 C 
BRANCH  23   7
ATOM      7  N   UNL     1     -10.908  -9.955  17.599  0.00  0.00    -0.295 NA
ATOM     25  C   UNL     1     -11.137 -11.092  16.717  0.00  0.00    +0.105 C 
BRANCH   7  24
ATOM     24  C   UNL     1     -12.083  -9.097  17.661  0.00  0.00    +0.119 C 
BRANCH  24  26
ATOM     26  C   UNL     1     -11.979  -7.932  16.712  0.00  0.00    -0.033 A 
ATOM     27  C   UNL     1     -13.103  -7.503  16.007  0.00  0.00    +0.005 A 
ATOM     28  C   UNL     1     -10.757  -7.280  16.540  0.00  0.00    +0.005 A 
ATOM     29  C   UNL     1     -13.007  -6.424  15.129  0.00  0.00    +0.000 A 
ATOM     30  C   UNL     1     -10.661  -6.200  15.661  0.00  0.00    +0.000 A 
ATOM     31  C   UNL     1     -11.785  -5.773  14.956  0.00  0.00    +0.000 A 
ENDBRANCH  24  26
ENDBRANCH   7  24
ENDBRANCH  23   7
ENDBRANCH  22  23
ENDBRANCH  11   4
BRANCH  10   3
ATOM      3  N   UNL     1      -4.452 -11.728  14.282  0.00  0.00    -0.309 NA
ATOM     32  H   UNL     1      -4.967 -10.847  14.305  0.00  0.00    +0.122 HD
BRANCH   3  15
ATOM     15  C   UNL     1      -3.394 -11.618  13.290  0.00  0.00    +0.084 C 
BRANCH  15  14
ATOM     14  C   UNL     1      -3.573 -10.363  12.439  0.00  0.00    +0.003 C 
ATOM     16  C   UNL     1      -5.056 -10.138  12.113  0.00  0.00    +0.005 C 
ATOM     17  C   UNL     1      -2.738 -10.455  11.155  0.00  0.00    +0.005 C 
ATOM     18  C   UNL     1      -5.257  -8.917  11.217  0.00  0.00    +0.000 C 
ATOM     19  C   UNL     1      -2.943  -9.234  10.261  0.00  0.00    +0.000 C 
ATOM     20  C   UNL     1      -4.418  -9.008   9.945  0.00  0.00    +0.000 C 
ENDBRANCH  15  14
ENDBRANCH   3  15
ENDBRANCH  10   3
TORSDOF 8
ENDMDL
MODEL 4
REMARK VINA RESULT:      -7.0     28.800     33.435
REMARK  Name = 11912019
REMARK  9 active torsions:
REMARK  status: ('A' for Active; 'I' for Inactive)
REMARK    1  A    between atoms: N_3  and  C_10
REMARK    2  A    between atoms: N_3  and  C_15
REMARK    3  A    between atoms: N_4  and  C_11
REMARK    4  A    between atoms: N_7  and  C_23
REMARK    5  A    between atoms: N_7  and  C_24
REMARK    6  A    between atoms: N_7  and  C_25
REMARK    7  A    between atoms: C_14  and  C_15
REMARK    8  A    between atoms: C_22  and  C_23
REMARK    9  A    between atoms: C_24  and  C_26
REMARK                            x       y       z     vdW  Elec       q    Type
REMARK                         _______ _______ _______ _____ _____    ______ ____
ROOT
ATOM      1  O   UNL     1      15.473  11.124  13.226  0.00  0.00    -0.370 OA
ATOM      2  O   UNL     1      15.364  12.537  16.007  0.00  0.00    -0.370 OA
ATOM      8  C   UNL     1      16.264  11.582  15.418  0.00  0.00    +0.168 C 
ATOM      9  C   UNL     1      15.435  10.631  14.579  0.00  0.00    +0.175 C 
ATOM     10  C   UNL     1      17.175  12.267  14.422  0.00  0.00    +0.111 C 
ATOM     11  C   UNL     1      14.028  10.761  15.131  0.00  0.00    +0.166 C 
ATOM     12  C   UNL     1      16.309  12.288  13.173  0.00  0.00    +0.181 C 
ATOM     13  C   UNL     1      14.012  12.179  15.692  0.00  0.00    +0.189 C 
ENDROOT
BRANCH  11   4
ATOM      4  N   UNL     1      13.703   9.705  16.094  0.00  0.00    -0.244 N 
ATOM      5  N   UNL     1      13.761   8.414  15.784  0.00  0.00    -0.065 NA
ATOM      6  N   UNL     1      13.408   7.725  16.881  0.00  0.00    -0.133 NA
ATOM     21  C   UNL     1      13.310   9.807  17.399  0.00  0.00    +0.135 A 
ATOM     22  C   UNL     1      13.115   8.553  17.921  0.00  0.00    +0.097 A 
BRANCH  22  23
ATOM     23  C   UNL     1      12.700   8.091  19.244  0.00  0.00    +0.143 C 
BRANCH  23   7
ATOM      7  N   UNL     1      13.767   8.179  20.260  0.00  0.00    -0.295 NA
ATOM     25  C   UNL     1      13.309   8.969  21.395  0.00  0.00    +0.105 C 
BRANCH   7  24
ATOM     24  C   UNL     1      14.164   6.841  20.680  0.00  0.00    +0.119 C 
BRANCH  24  26
ATOM     26  C   UNL     1      15.630   6.590  20.440  0.00  0.00    -0.033 A 
ATOM     27  C   UNL     1      16.545   6.754  21.478  0.00  0.00    +0.005 A 
ATOM     28  C   UNL     1      16.071   6.189  19.178  0.00  0.00    +0.005 A 
ATOM     29  C   UNL     1      17.903   6.520  21.257  0.00  0.00    +0.000 A 
ATOM     30  C   UNL     1      17.428   5.955  18.956  0.00  0.00    +0.000 A 
ATOM     31  C   UNL     1      18.344   6.121  19.994  0.00  0.00    +0.000 A 
ENDBRANCH  24  26
ENDBRANCH   7  24
ENDBRANCH  23   7
ENDBRANCH  22  23
ENDBRANCH  11   4
BRANCH  10   3
ATOM      3  N   UNL     1      18.370  11.461  14.181  0.00  0.00    -0.309 NA
ATOM     32  H   UNL     1      18.162  10.727  13.503  0.00  0.00    +0.122 HD
BRANCH   3  15
ATOM     15  C   UNL     1      19.455  12.277  13.661  0.00  0.00    +0.084 C 
BRANCH  15  14
ATOM     14  C   UNL     1      20.627  12.314  14.640  0.00  0.00    +0.003 C 
ATOM     16  C   UNL     1      21.646  11.216  14.306  0.00  0.00    +0.005 C 
ATOM     17  C   UNL     1      20.129  12.178  16.085  0.00  0.00    +0.005 C 
ATOM     18  C   UNL     1      22.802  11.197  15.305  0.00  0.00    +0.000 C 
ATOM     19  C   UNL     1      21.287  12.158  17.080  0.00  0.00    +0.000 C 
ATOM     20  C   UNL     1      22.303  11.071  16.741  0.00  0.00    +0.000 C 
ENDBRANCH  15  14
ENDBRANCH   3  15
ENDBRANCH  10   3
TORSDOF 8
ENDMDL
MODEL 5
REMARK VINA RESULT:      -7.0     20.880     22.755
REMARK  Name = 11912019
REMARK  9 active torsions:
REMARK  status: ('A' for Active; 'I' for Inactive)
REMARK    1  A    between atoms: N_3  and  C_10
REMARK    2  A    between atoms: N_3  and  C_15
REMARK    3  A    between atoms: N_4  and  C_11
REMARK    4  A    between atoms: N_7  and  C_23
REMARK    5  A    between atoms: N_7  and  C_24
REMARK    6  A    between atoms: N_7  and  C_25
REMARK    7  A    between atoms: C_14  and  C_15
REMARK    8  A    between atoms: C_22  and  C_23
REMARK    9  A    between atoms: C_24  and  C_26
REMARK                            x       y       z     vdW  Elec       q    Type
REMARK                         _______ _______ _______ _____ _____    ______ ____
ROOT
ATOM      1  O   UNL     1      -2.562 -12.842  12.861  0.00  0.00    -0.370 OA
ATOM      2  O   UNL     1      -1.598  -9.890  13.179  0.00  0.00    -0.370 OA
ATOM      8  C   UNL     1      -2.650 -10.657  13.790  0.00  0.00    +0.168 C 
ATOM      9  C   UNL     1      -3.225 -11.570  12.726  0.00  0.00    +0.175 C 
ATOM     10  C   UNL     1      -2.074 -11.600  14.825  0.00  0.00    +0.111 C 
ATOM     11  C   UNL     1      -2.830 -10.924  11.412  0.00  0.00    +0.166 C 
ATOM     12  C   UNL     1      -1.651 -12.781  13.968  0.00  0.00    +0.181 C 
ATOM     13  C   UNL     1      -1.554 -10.172  11.773  0.00  0.00    +0.189 C 
ENDROOT
BRANCH  11   4
ATOM      4  N   UNL     1      -3.902 -10.099  10.848  0.00  0.00    -0.244 N 
ATOM      5  N   UNL     1      -3.701  -8.854  10.432  0.00  0.00    -0.065 NA
ATOM      6  N   UNL     1      -4.876  -8.391   9.976  0.00  0.00    -0.133 NA
ATOM     21  C   UNL     1      -5.219 -10.404  10.644  0.00  0.00    +0.135 A 
ATOM     22  C   UNL     1      -5.860  -9.325  10.088  0.00  0.00    +0.097 A 
BRANCH  22  23
ATOM     23  C   UNL     1      -7.244  -9.109   9.674  0.00  0.00    +0.143 C 
BRANCH  23   7
ATOM      7  N   UNL     1      -7.618  -9.853   8.456  0.00  0.00    -0.295 NA
ATOM     25  C   UNL     1      -9.067  -9.982   8.375  0.00  0.00    +0.105 C 
BRANCH   7  24
ATOM     24  C   UNL     1      -7.088  -9.178   7.278  0.00  0.00    +0.119 C 
BRANCH  24  26
ATOM     26  C   UNL     1      -6.397 -10.137   6.344  0.00  0.00    -0.033 A 
ATOM     27  C   UNL     1      -6.936 -10.393   5.084  0.00  0.00    +0.005 A 
ATOM     28  C   UNL     1      -5.217 -10.767   6.740  0.00  0.00    +0.005 A 
ATOM     29  C   UNL     1      -6.297 -11.280   4.218  0.00  0.00    +0.000 A 
ATOM     30  C   UNL     1      -4.577 -11.655   5.874  0.00  0.00    +0.000 A 
ATOM     31  C   UNL     1      -5.117 -11.911   4.614  0.00  0.00    +0.000 A 
ENDBRANCH  24  26
ENDBRANCH   7  24
ENDBRANCH  23   7
ENDBRANCH  22  23
ENDBRANCH  11   4
BRANCH  10   3
ATOM      3  N   UNL     1      -3.110 -12.021  15.767  0.00  0.00    -0.309 NA
ATOM     32  H   UNL     1      -2.770 -12.799  16.332  0.00  0.00    +0.122 HD
BRANCH   3  15
ATOM     15  C   UNL     1      -3.481 -10.931  16.656  0.00  0.00    +0.084 C 
BRANCH  15  14
ATOM     14  C   UNL     1      -4.992 -10.899  16.876  0.00  0.00    +0.003 C 
ATOM     16  C   UNL     1      -5.650  -9.856  15.963  0.00  0.00    +0.005 C 
ATOM     17  C   UNL     1      -5.319 -10.620  18.350  0.00  0.00    +0.005 C 
ATOM     18  C   UNL     1      -7.157  -9.767  16.203  0.00  0.00    +0.000 C 
ATOM     19  C   UNL     1      -6.825 -10.530  18.585  0.00  0.00    +0.000 C 
ATOM     20  C   UNL     1      -7.478  -9.499  17.670  0.00  0.00    +0.000 C 
ENDBRANCH  15  14
ENDBRANCH   3  15
ENDBRANCH  10   3
TORSDOF 8
ENDMDL
MODEL 6
REMARK VINA RESULT:      -7.0      1.900     10.783
REMARK  Name = 11912019
REMARK  9 active torsions:
REMARK  status: ('A' for Active; 'I' for Inactive)
REMARK    1  A    between atoms: N_3  and  C_10
REMARK    2  A    between atoms: N_3  and  C_15
REMARK    3  A    between atoms: N_4  and  C_11
REMARK    4  A    between atoms: N_7  and  C_23
REMARK    5  A    between atoms: N_7  and  C_24
REMARK    6  A    between atoms: N_7  and  C_25
REMARK    7  A    between atoms: C_14  and  C_15
REMARK    8  A    between atoms: C_22  and  C_23
REMARK    9  A    between atoms: C_24  and  C_26
REMARK                            x       y       z     vdW  Elec       q    Type
REMARK                         _______ _______ _______ _____ _____    ______ ____
ROOT
ATOM      1  O   UNL     1     -15.693   5.778  20.415  0.00  0.00    -0.370 OA
ATOM      2  O   UNL     1     -15.459   7.152  23.208  0.00  0.00    -0.370 OA
ATOM      8  C   UNL     1     -14.580   6.305  22.447  0.00  0.00    +0.168 C 
ATOM      9  C   UNL     1     -15.440   5.275  21.741  0.00  0.00    +0.175 C 
ATOM     10  C   UNL     1     -13.937   7.091  21.325  0.00  0.00    +0.111 C 
ATOM     11  C   UNL     1     -16.733   5.247  22.533  0.00  0.00    +0.166 C 
ATOM     12  C   UNL     1     -15.006   7.026  20.247  0.00  0.00    +0.181 C 
ATOM     13  C   UNL     1     -16.800   6.651  23.124  0.00  0.00    +0.189 C 
ENDROOT
BRANCH  11   4
ATOM      4  N   UNL     1     -16.769   4.156  23.510  0.00  0.00    -0.244 N 
ATOM      5  N   UNL     1     -15.800   3.253  23.608  0.00  0.00    -0.065 NA
ATOM      6  N   UNL     1     -16.142   2.406  24.591  0.00  0.00    -0.133 NA
ATOM     21  C   UNL     1     -17.718   3.857  24.447  0.00  0.00    +0.135 A 
ATOM     22  C   UNL     1     -17.337   2.742  25.150  0.00  0.00    +0.097 A 
BRANCH  22  23
ATOM     23  C   UNL     1     -17.966   2.004  26.243  0.00  0.00    +0.143 C 
BRANCH  23   7
ATOM      7  N   UNL     1     -17.413   2.334  27.571  0.00  0.00    -0.295 NA
ATOM     25  C   UNL     1     -18.343   3.185  28.300  0.00  0.00    +0.105 C 
BRANCH   7  24
ATOM     24  C   UNL     1     -17.134   1.110  28.311  0.00  0.00    +0.119 C 
BRANCH  24  26
ATOM     26  C   UNL     1     -15.983   1.282  29.267  0.00  0.00    -0.033 A 
ATOM     27  C   UNL     1     -15.724   0.306  30.229  0.00  0.00    +0.005 A 
ATOM     28  C   UNL     1     -15.176   2.417  29.189  0.00  0.00    +0.005 A 
ATOM     29  C   UNL     1     -14.658   0.465  31.115  0.00  0.00    +0.000 A 
ATOM     30  C   UNL     1     -14.109   2.576  30.075  0.00  0.00    +0.000 A 
ATOM     31  C   UNL     1     -13.851   1.600  31.038  0.00  0.00    +0.000 A 
ENDBRANCH  24  26
ENDBRANCH   7  24
ENDBRANCH  23   7
ENDBRANCH  22  23
ENDBRANCH  11   4
BRANCH  10   3
ATOM      3  N   UNL     1     -12.725   6.421  20.859  0.00  0.00    -0.309 NA
ATOM     32  H   UNL     1     -12.846   6.118  19.892  0.00  0.00    +0.122 HD
BRANCH   3  15
ATOM     15  C   UNL     1     -11.577   7.311  20.924  0.00  0.00    +0.084 C 
BRANCH  15  14
ATOM     14  C   UNL     1     -11.496   8.188  19.676  0.00  0.00    +0.003 C 
ATOM     16  C   UNL     1     -11.201   7.336  18.434  0.00  0.00    +0.005 C 
ATOM     17  C   UNL     1     -10.437   9.284  19.852  0.00  0.00    +0.005 C 
ATOM     18  C   UNL     1     -11.062   8.197  17.180  0.00  0.00    +0.000 C 
ATOM     19  C   UNL     1     -10.300  10.142  18.596  0.00  0.00    +0.000 C 
ATOM     20  C   UNL     1     -10.015   9.291  17.362  0.00  0.00    +0.000 C 
ENDBRANCH  15  14
ENDBRANCH   3  15
ENDBRANCH  10   3
TORSDOF 8
ENDMDL
MODEL 7
REMARK VINA RESULT:      -6.9     15.630     17.266
REMARK  Name = 11912019
REMARK  9 active torsions:
REMARK  status: ('A' for Active; 'I' for Inactive)
REMARK    1  A    between atoms: N_3  and  C_10
REMARK    2  A    between atoms: N_3  and  C_15
REMARK    3  A    between atoms: N_4  and  C_11
REMARK    4  A    between atoms: N_7  and  C_23
REMARK    5  A    between atoms: N_7  and  C_24
REMARK    6  A    between atoms: N_7  and  C_25
REMARK    7  A    between atoms: C_14  and  C_15
REMARK    8  A    between atoms: C_22  and  C_23
REMARK    9  A    between atoms: C_24  and  C_26
REMARK                            x       y       z     vdW  Elec       q    Type
REMARK                         _______ _______ _______ _____ _____    ______ ____
ROOT
ATOM      1  O   UNL     1     -10.553  -7.495  17.352  0.00  0.00    -0.370 OA
ATOM      2  O   UNL     1     -12.106  -9.257  15.296  0.00  0.00    -0.370 OA
ATOM      8  C   UNL     1     -10.813  -8.628  15.280  0.00  0.00    +0.168 C 
ATOM      9  C   UNL     1     -10.948  -7.291  15.982  0.00  0.00    +0.175 C 
ATOM     10  C   UNL     1      -9.841  -9.408  16.139  0.00  0.00    +0.111 C 
ATOM     11  C   UNL     1     -12.430  -6.973  15.920  0.00  0.00    +0.166 C 
ATOM     12  C   UNL     1     -10.140  -8.859  17.524  0.00  0.00    +0.181 C 
ATOM     13  C   UNL     1     -13.072  -8.355  15.854  0.00  0.00    +0.189 C 
ENDROOT
BRANCH  11   4
ATOM      4  N   UNL     1     -12.765  -6.076  14.810  0.00  0.00    -0.244 N 
ATOM      5  N   UNL     1     -13.992  -5.988  14.308  0.00  0.00    -0.065 NA
ATOM      6  N   UNL     1     -13.953  -5.085  13.317  0.00  0.00    -0.133 NA
ATOM     21  C   UNL     1     -11.963  -5.214  14.115  0.00  0.00    +0.135 A 
ATOM     22  C   UNL     1     -12.703  -4.571  13.155  0.00  0.00    +0.097 A 
BRANCH  22  23
ATOM     23  C   UNL     1     -12.355  -3.566  12.153  0.00  0.00    +0.143 C 
BRANCH  23   7
ATOM      7  N   UNL     1     -12.670  -3.978  10.772  0.00  0.00    -0.295 NA
ATOM     25  C   UNL     1     -13.908  -3.347  10.333  0.00  0.00    +0.105 C 
BRANCH   7  24
ATOM     24  C   UNL     1     -11.565  -3.633   9.886  0.00  0.00    +0.119 C 
BRANCH  24  26
ATOM     26  C   UNL     1     -10.830  -4.856   9.402  0.00  0.00    -0.033 A 
ATOM     27  C   UNL     1     -11.348  -6.126   9.653  0.00  0.00    +0.005 A 
ATOM     28  C   UNL     1      -9.632  -4.717   8.699  0.00  0.00    +0.005 A 
ATOM     29  C   UNL     1     -10.669  -7.258   9.203  0.00  0.00    +0.000 A 
ATOM     30  C   UNL     1      -8.953  -5.849   8.250  0.00  0.00    +0.000 A 
ATOM     31  C   UNL     1      -9.470  -7.119   8.502  0.00  0.00    +0.000 A 
ENDBRANCH  24  26
ENDBRANCH   7  24
ENDBRANCH  23   7
ENDBRANCH  22  23
ENDBRANCH  11   4
BRANCH  10   3
ATOM      3  N   UNL     1      -8.463  -9.091  15.770  0.00  0.00    -0.309 NA
ATOM     32  H   UNL     1      -8.430  -8.191  15.291  0.00  0.00    +0.122 HD
BRANCH   3  15
ATOM     15  C   UNL     1      -7.610  -9.021  16.945  0.00  0.00    +0.084 C 
BRANCH  15  14
ATOM     14  C   UNL     1      -6.642 -10.202  16.988  0.00  0.00    +0.003 C 
ATOM     16  C   UNL     1      -6.482 -10.720  18.423  0.00  0.00    +0.005 C 
ATOM     17  C   UNL     1      -5.283  -9.811  16.392  0.00  0.00    +0.005 C 
ATOM     18  C   UNL     1      -5.478 -11.869  18.500  0.00  0.00    +0.000 C 
ATOM     19  C   UNL     1      -4.282 -10.960  16.472  0.00  0.00    +0.000 C 
ATOM     20  C   UNL     1      -4.131 -11.479  17.899  0.00  0.00    +0.000 C 
ENDBRANCH  15  14
ENDBRANCH   3  15
ENDBRANCH  10   3
TORSDOF 8
ENDMDL
MODEL 8
REMARK VINA RESULT:      -6.9     30.568     35.425
REMARK  Name = 11912019
REMARK  9 active torsions:
REMARK  status: ('A' for Active; 'I' for Inactive)
REMARK    1  A    between atoms: N_3  and  C_10
REMARK    2  A    between atoms: N_3  and  C_15
REMARK    3  A    between atoms: N_4  and  C_11
REMARK    4  A    between atoms: N_7  and  C_23
REMARK    5  A    between atoms: N_7  and  C_24
REMARK    6  A    between atoms: N_7  and  C_25
REMARK    7  A    between atoms: C_14  and  C_15
REMARK    8  A    between atoms: C_22  and  C_23
REMARK    9  A    between atoms: C_24  and  C_26
REMARK                            x       y       z     vdW  Elec       q    Type
REMARK                         _______ _______ _______ _____ _____    ______ ____
ROOT
ATOM      1  O   UNL     1      14.934   9.897   3.024  0.00  0.00    -0.370 OA
ATOM      2  O   UNL     1      16.747   7.751   4.384  0.00  0.00    -0.370 OA
ATOM      8  C   UNL     1      15.739   7.687   3.360  0.00  0.00    +0.168 C 
ATOM      9  C   UNL     1      14.651   8.674   3.731  0.00  0.00    +0.175 C 
ATOM     10  C   UNL     1      16.290   8.209   2.051  0.00  0.00    +0.111 C 
ATOM     11  C   UNL     1      14.824   8.894   5.222  0.00  0.00    +0.166 C 
ATOM     12  C   UNL     1      16.099   9.708   2.208  0.00  0.00    +0.181 C 
ATOM     13  C   UNL     1      16.310   8.622   5.435  0.00  0.00    +0.189 C 
ENDROOT
BRANCH  11   4
ATOM      4  N   UNL     1      13.917   8.065   6.020  0.00  0.00    -0.244 N 
ATOM      5  N   UNL     1      14.345   7.046   6.758  0.00  0.00    -0.065 NA
ATOM      6  N   UNL     1      13.270   6.507   7.355  0.00  0.00    -0.133 NA
ATOM     21  C   UNL     1      12.561   8.151   6.168  0.00  0.00    +0.135 A 
ATOM     22  C   UNL     1      12.127   7.164   7.017  0.00  0.00    +0.097 A 
BRANCH  22  23
ATOM     23  C   UNL     1      10.800   6.805   7.512  0.00  0.00    +0.143 C 
BRANCH  23   7
ATOM      7  N   UNL     1      10.270   5.558   6.926  0.00  0.00    -0.295 NA
ATOM     25  C   UNL     1       9.909   4.624   7.985  0.00  0.00    +0.105 C 
BRANCH   7  24
ATOM     24  C   UNL     1       9.123   5.855   6.079  0.00  0.00    +0.119 C 
BRANCH  24  26
ATOM     26  C   UNL     1       9.506   5.941   4.625  0.00  0.00    -0.033 A 
ATOM     27  C   UNL     1      10.261   4.924   4.041  0.00  0.00    +0.005 A 
ATOM     28  C   UNL     1       9.103   7.038   3.861  0.00  0.00    +0.005 A 
ATOM     29  C   UNL     1      10.615   5.003   2.694  0.00  0.00    +0.000 A 
ATOM     30  C   UNL     1       9.458   7.116   2.514  0.00  0.00    +0.000 A 
ATOM     31  C   UNL     1      10.213   6.100   1.931  0.00  0.00    +0.000 A 
ENDBRANCH  24  26
ENDBRANCH   7  24
ENDBRANCH  23   7
ENDBRANCH  22  23
ENDBRANCH  11   4
BRANCH  10   3
ATOM      3  N   UNL     1      15.489   7.724   0.928  0.00  0.00    -0.309 NA
ATOM     32  H   UNL     1      15.714   8.255   0.086  0.00  0.00    +0.122 HD
BRANCH   3  15
ATOM     15  C   UNL     1      15.748   6.317   0.670  0.00  0.00    +0.084 C 
BRANCH  15  14
ATOM     14  C   UNL     1      14.466   5.496   0.788  0.00  0.00    +0.003 C 
ATOM     16  C   UNL     1      14.754   4.131   1.427  0.00  0.00    +0.005 C 
ATOM     17  C   UNL     1      13.801   5.329  -0.585  0.00  0.00    +0.005 C 
ATOM     18  C   UNL     1      13.495   3.269   1.508  0.00  0.00    +0.000 C 
ATOM     19  C   UNL     1      12.544   4.466  -0.500  0.00  0.00    +0.000 C 
ATOM     20  C   UNL     1      12.832   3.113   0.143  0.00  0.00    +0.000 C 
ENDBRANCH  15  14
ENDBRANCH   3  15
ENDBRANCH  10   3
TORSDOF 8
ENDMDL
MODEL 9
REMARK VINA RESULT:      -6.9     16.581     19.453
REMARK  Name = 11912019
REMARK  9 active torsions:
REMARK  status: ('A' for Active; 'I' for Inactive)
REMARK    1  A    between atoms: N_3  and  C_10
REMARK    2  A    between atoms: N_3  and  C_15
REMARK    3  A    between atoms: N_4  and  C_11
REMARK    4  A    between atoms: N_7  and  C_23
REMARK    5  A    between atoms: N_7  and  C_24
REMARK    6  A    between atoms: N_7  and  C_25
REMARK    7  A    between atoms: C_14  and  C_15
REMARK    8  A    between atoms: C_22  and  C_23
REMARK    9  A    between atoms: C_24  and  C_26
REMARK                            x       y       z     vdW  Elec       q    Type
REMARK                         _______ _______ _______ _____ _____    ______ ____
ROOT
ATOM      1  O   UNL     1     -11.944  -8.350  14.789  0.00  0.00    -0.370 OA
ATOM      2  O   UNL     1     -10.539  -7.214  17.334  0.00  0.00    -0.370 OA
ATOM      8  C   UNL     1     -10.536  -6.828  15.948  0.00  0.00    +0.168 C 
ATOM      9  C   UNL     1     -10.566  -8.099  15.122  0.00  0.00    +0.175 C 
ATOM     10  C   UNL     1     -11.828  -6.122  15.599  0.00  0.00    +0.111 C 
ATOM     11  C   UNL     1     -10.061  -9.179  16.061  0.00  0.00    +0.166 C 
ATOM     12  C   UNL     1     -12.756  -7.292  15.318  0.00  0.00    +0.181 C 
ATOM     13  C   UNL     1     -10.447  -8.641  17.435  0.00  0.00    +0.189 C 
ENDROOT
BRANCH  11   4
ATOM      4  N   UNL     1      -8.634  -9.459  15.878  0.00  0.00    -0.244 N 
ATOM      5  N   UNL     1      -8.133  -9.886  14.724  0.00  0.00    -0.065 NA
ATOM      6  N   UNL     1      -6.811 -10.041  14.897  0.00  0.00    -0.133 NA
ATOM     21  C   UNL     1      -7.605  -9.351  16.770  0.00  0.00    +0.135 A 
ATOM     22  C   UNL     1      -6.430  -9.719  16.164  0.00  0.00    +0.097 A 
BRANCH  22  23
ATOM     23  C   UNL     1      -5.052  -9.789  16.647  0.00  0.00    +0.143 C 
BRANCH  23   7
ATOM      7  N   UNL     1      -4.471 -11.143  16.573  0.00  0.00    -0.295 NA
ATOM     25  C   UNL     1      -3.122 -11.077  16.024  0.00  0.00    +0.105 C 
BRANCH   7  24
ATOM     24  C   UNL     1      -4.467 -11.755  17.895  0.00  0.00    +0.119 C 
BRANCH  24  26
ATOM     26  C   UNL     1      -5.822 -12.297  18.267  0.00  0.00    -0.033 A 
ATOM     27  C   UNL     1      -6.473 -13.190  17.416  0.00  0.00    +0.005 A 
ATOM     28  C   UNL     1      -6.425 -11.908  19.464  0.00  0.00    +0.005 A 
ATOM     29  C   UNL     1      -7.728 -13.693  17.760  0.00  0.00    +0.000 A 
ATOM     30  C   UNL     1      -7.680 -12.411  19.808  0.00  0.00    +0.000 A 
ATOM     31  C   UNL     1      -8.331 -13.303  18.957  0.00  0.00    +0.000 A 
ENDBRANCH  24  26
ENDBRANCH   7  24
ENDBRANCH  23   7
ENDBRANCH  22  23
ENDBRANCH  11   4
BRANCH  10   3
ATOM      3  N   UNL     1     -11.663  -5.321  14.388  0.00  0.00    -0.309 NA
ATOM     32  H   UNL     1     -11.163  -5.860  13.680  0.00  0.00    +0.122 HD
BRANCH   3  15
ATOM     15  C   UNL     1     -12.952  -4.926  13.842  0.00  0.00    +0.084 C 
BRANCH  15  14
ATOM     14  C   UNL     1     -12.891  -4.824  12.320  0.00  0.00    +0.003 C 
ATOM     16  C   UNL     1     -12.327  -6.116  11.712  0.00  0.00    +0.005 C 
ATOM     17  C   UNL     1     -12.056  -3.609  11.892  0.00  0.00    +0.005 C 
ATOM     18  C   UNL     1     -12.206  -6.018  10.193  0.00  0.00    +0.000 C 
ATOM     19  C   UNL     1     -11.936  -3.516  10.373  0.00  0.00    +0.000 C 
ATOM     20  C   UNL     1     -11.384  -4.804   9.771  0.00  0.00    +0.000 C 
ENDBRANCH  15  14
ENDBRANCH   3  15
ENDBRANCH  10   3
TORSDOF 8
ENDMDL
MODEL 10
REMARK VINA RESULT:      -6.8     29.630     34.494
REMARK  Name = 11912019
REMARK  9 active torsions:
REMARK  status: ('A' for Active; 'I' for Inactive)
REMARK    1  A    between atoms: N_3  and  C_10
REMARK    2  A    between atoms: N_3  and  C_15
REMARK    3  A    between atoms: N_4  and  C_11
REMARK    4  A    between atoms: N_7  and  C_23
REMARK    5  A    between atoms: N_7  and  C_24
REMARK    6  A    between atoms: N_7  and  C_25
REMARK    7  A    between atoms: C_14  and  C_15
REMARK    8  A    between atoms: C_22  and  C_23
REMARK    9  A    between atoms: C_24  and  C_26
REMARK                            x       y       z     vdW  Elec       q    Type
REMARK                         _______ _______ _______ _____ _____    ______ ____
ROOT
ATOM      1  O   UNL     1      14.409   9.006   3.344  0.00  0.00    -0.370 OA
ATOM      2  O   UNL     1      15.632   8.580   6.184  0.00  0.00    -0.370 OA
ATOM      8  C   UNL     1      14.935   7.717   5.269  0.00  0.00    +0.168 C 
ATOM      9  C   UNL     1      13.860   8.544   4.593  0.00  0.00    +0.175 C 
ATOM     10  C   UNL     1      15.854   7.299   4.141  0.00  0.00    +0.111 C 
ATOM     11  C   UNL     1      13.641   9.723   5.522  0.00  0.00    +0.166 C 
ATOM     12  C   UNL     1      15.734   8.478   3.190  0.00  0.00    +0.181 C 
ATOM     13  C   UNL     1      14.991   9.863   6.217  0.00  0.00    +0.189 C 
ENDROOT
BRANCH  11   4
ATOM      4  N   UNL     1      12.496   9.527   6.416  0.00  0.00    -0.244 N 
ATOM      5  N   UNL     1      12.192  10.384   7.384  0.00  0.00    -0.065 NA
ATOM      6  N   UNL     1      11.099   9.912   8.005  0.00  0.00    -0.133 NA
ATOM     21  C   UNL     1      11.577   8.516   6.445  0.00  0.00    +0.135 A 
ATOM     22  C   UNL     1      10.675   8.743   7.454  0.00  0.00    +0.097 A 
BRANCH  22  23
ATOM     23  C   UNL     1       9.509   7.994   7.919  0.00  0.00    +0.143 C 
BRANCH  23   7
ATOM      7  N   UNL     1       9.517   6.577   7.508  0.00  0.00    -0.295 NA
ATOM     25  C   UNL     1       9.236   5.724   8.656  0.00  0.00    +0.105 C 
BRANCH   7  24
ATOM     24  C   UNL     1       8.543   6.362   6.446  0.00  0.00    +0.119 C 
BRANCH  24  26
ATOM     26  C   UNL     1       9.207   6.085   5.123  0.00  0.00    -0.033 A 
ATOM     27  C   UNL     1       9.965   4.927   4.952  0.00  0.00    +0.005 A 
ATOM     28  C   UNL     1       9.061   6.986   4.067  0.00  0.00    +0.005 A 
ATOM     29  C   UNL     1      10.579   4.669   3.726  0.00  0.00    +0.000 A 
ATOM     30  C   UNL     1       9.675   6.728   2.841  0.00  0.00    +0.000 A 
ATOM     31  C   UNL     1      10.434   5.571   2.671  0.00  0.00    +0.000 A 
ENDBRANCH  24  26
ENDBRANCH   7  24
ENDBRANCH  23   7
ENDBRANCH  22  23
ENDBRANCH  11   4
BRANCH  10   3
ATOM      3  N   UNL     1      15.351   6.089   3.493  0.00  0.00    -0.309 NA
ATOM     32  H   UNL     1      14.467   5.809   3.919  0.00  0.00    +0.122 HD
BRANCH   3  15
ATOM     15  C   UNL     1      15.131   6.310   2.073  0.00  0.00    +0.084 C 
BRANCH  15  14
ATOM     14  C   UNL     1      13.943   5.491   1.573  0.00  0.00    +0.003 C 
ATOM     16  C   UNL     1      14.222   3.989   1.715  0.00  0.00    +0.005 C 
ATOM     17  C   UNL     1      13.611   5.851   0.118  0.00  0.00    +0.005 C 
ATOM     18  C   UNL     1      13.069   3.147   1.171  0.00  0.00    +0.000 C 
ATOM     19  C   UNL     1      12.459   5.006  -0.422  0.00  0.00    +0.000 C 
ATOM     20  C   UNL     1      12.736   3.514  -0.272  0.00  0.00    +0.000 C 
ENDBRANCH  15  14
ENDBRANCH   3  15
ENDBRANCH  10   3
TORSDOF 8
ENDMDL
