MODEL 1
REMARK VINA RESULT:      -6.7      0.000      0.000
REMARK  Name = 56775131
REMARK  5 active torsions:
REMARK  status: ('A' for Active; 'I' for Inactive)
REMARK    1  A    between atoms: N_6  and  C_13
REMARK    2  A    between atoms: N_7  and  C_15
REMARK    3  A    between atoms: C_13  and  C_17
REMARK    4  A    between atoms: C_15  and  C_18
REMARK    5  A    between atoms: C_23  and  C_28
REMARK                            x       y       z     vdW  Elec       q    Type
REMARK                         _______ _______ _______ _____ _____    ______ ____
ROOT
ATOM      4  O   UNL     1      -8.489 -12.187  16.740  0.00  0.00    -0.364 OA
ATOM      5  O   UNL     1      -5.259 -13.138  17.778  0.00  0.00    -0.273 OA
ATOM      6  N   UNL     1      -8.849  -8.920  16.529  0.00  0.00    -0.294 NA
ATOM      7  N   UNL     1      -5.953 -11.119  16.854  0.00  0.00    -0.288 N 
ATOM      9  C   UNL     1      -7.030 -10.322  16.272  0.00  0.00    +0.120 C 
ATOM     10  C   UNL     1      -8.252 -11.120  15.826  0.00  0.00    +0.154 C 
ATOM     11  C   UNL     1      -7.641  -9.322  17.250  0.00  0.00    +0.110 C 
ATOM     12  C   UNL     1      -9.422 -10.138  15.942  0.00  0.00    +0.118 C 
ATOM     14  C   UNL     1      -6.109 -12.456  17.204  0.00  0.00    +0.242 C 
ATOM     16  C   UNL     1      -7.407 -13.090  16.752  0.00  0.00    +0.256 C 
ENDROOT
BRANCH   6  13
ATOM     13  C   UNL     1      -9.792  -8.198  17.369  0.00  0.00    +0.121 C 
BRANCH  13  17
ATOM      8  N   UNL     1     -11.338  -5.743  14.944  0.00  0.00    -0.263 NA
ATOM     17  C   UNL     1     -10.822  -7.468  16.558  0.00  0.00    -0.015 A 
ATOM     21  C   UNL     1     -12.170  -7.799  16.645  0.00  0.00    +0.008 A 
ATOM     22  C   UNL     1     -10.461  -6.440  15.701  0.00  0.00    +0.115 A 
ATOM     25  C   UNL     1     -13.103  -7.103  15.883  0.00  0.00    +0.020 A 
ATOM     27  C   UNL     1     -12.639  -6.093  15.056  0.00  0.00    +0.111 A 
ENDBRANCH  13  17
ENDBRANCH   6  13
BRANCH   7  15
ATOM     15  C   UNL     1      -4.705 -10.427  17.151  0.00  0.00    +0.143 C 
BRANCH  15  18
ATOM     18  C   UNL     1      -3.707 -10.565  16.037  0.00  0.00    -0.030 A 
ATOM     19  C   UNL     1      -4.138 -10.576  14.711  0.00  0.00    +0.017 A 
ATOM     20  C   UNL     1      -2.348 -10.683  16.331  0.00  0.00    +0.005 A 
ATOM     23  C   UNL     1      -3.209 -10.704  13.677  0.00  0.00    +0.055 A 
ATOM     24  C   UNL     1      -1.420 -10.812  15.297  0.00  0.00    +0.001 A 
ATOM     26  C   UNL     1      -1.851 -10.822  13.970  0.00  0.00    +0.012 A 
BRANCH  23  28
ATOM      1  F   UNL     1      -2.651 -10.938  11.379  0.00  0.00    -0.166 F 
ATOM      2  F   UNL     1      -4.601 -11.680  11.994  0.00  0.00    -0.166 F 
ATOM      3  F   UNL     1      -4.248  -9.543  11.862  0.00  0.00    -0.166 F 
ATOM     28  C   UNL     1      -3.670 -10.716  12.259  0.00  0.00    +0.417 C 
ENDBRANCH  23  28
ENDBRANCH  15  18
ENDBRANCH   7  15
TORSDOF 5
ENDMDL
MODEL 2
REMARK VINA RESULT:      -6.4      3.570      5.426
REMARK  Name = 56775131
REMARK  5 active torsions:
REMARK  status: ('A' for Active; 'I' for Inactive)
REMARK    1  A    between atoms: N_6  and  C_13
REMARK    2  A    between atoms: N_7  and  C_15
REMARK    3  A    between atoms: C_13  and  C_17
REMARK    4  A    between atoms: C_15  and  C_18
REMARK    5  A    between atoms: C_23  and  C_28
REMARK                            x       y       z     vdW  Elec       q    Type
REMARK                         _______ _______ _______ _____ _____    ______ ____
ROOT
ATOM      4  O   UNL     1      -3.782 -15.269  15.868  0.00  0.00    -0.364 OA
ATOM      5  O   UNL     1      -1.034 -15.312  13.663  0.00  0.00    -0.273 OA
ATOM      6  N   UNL     1      -4.970 -12.237  16.367  0.00  0.00    -0.294 NA
ATOM      7  N   UNL     1      -2.661 -13.669  13.927  0.00  0.00    -0.288 N 
ATOM      9  C   UNL     1      -3.892 -13.232  14.580  0.00  0.00    +0.120 C 
ATOM     10  C   UNL     1      -4.682 -14.338  15.274  0.00  0.00    +0.154 C 
ATOM     11  C   UNL     1      -3.658 -12.244  15.720  0.00  0.00    +0.110 C 
ATOM     12  C   UNL     1      -5.435 -13.629  16.404  0.00  0.00    +0.118 C 
ATOM     14  C   UNL     1      -2.114 -14.933  14.120  0.00  0.00    +0.242 C 
ATOM     16  C   UNL     1      -2.989 -15.900  14.890  0.00  0.00    +0.256 C 
ENDROOT
BRANCH   6  13
ATOM     13  C   UNL     1      -4.947 -11.613  17.680  0.00  0.00    +0.121 C 
BRANCH  13  17
ATOM      8  N   UNL     1      -7.983 -11.663  19.932  0.00  0.00    -0.263 NA
ATOM     17  C   UNL     1      -6.329 -11.343  18.198  0.00  0.00    -0.015 A 
ATOM     21  C   UNL     1      -7.225 -10.561  17.478  0.00  0.00    +0.008 A 
ATOM     22  C   UNL     1      -6.754 -11.867  19.409  0.00  0.00    +0.115 A 
ATOM     25  C   UNL     1      -8.500 -10.329  17.983  0.00  0.00    +0.020 A 
ATOM     27  C   UNL     1      -8.826 -10.898  19.203  0.00  0.00    +0.111 A 
ENDBRANCH  13  17
ENDBRANCH   6  13
BRANCH   7  15
ATOM     15  C   UNL     1      -1.954 -12.683  13.120  0.00  0.00    +0.143 C 
BRANCH  15  18
ATOM     18  C   UNL     1      -2.734 -12.294  11.897  0.00  0.00    -0.030 A 
ATOM     19  C   UNL     1      -2.788 -10.957  11.501  0.00  0.00    +0.017 A 
ATOM     20  C   UNL     1      -3.403 -13.269  11.158  0.00  0.00    +0.005 A 
ATOM     23  C   UNL     1      -3.513 -10.596  10.364  0.00  0.00    +0.055 A 
ATOM     24  C   UNL     1      -4.128 -12.907  10.022  0.00  0.00    +0.001 A 
ATOM     26  C   UNL     1      -4.182 -11.571   9.625  0.00  0.00    +0.012 A 
BRANCH  23  28
ATOM      1  F   UNL     1      -4.027  -9.018   8.663  0.00  0.00    -0.166 F 
ATOM      2  F   UNL     1      -4.395  -8.401  10.716  0.00  0.00    -0.166 F 
ATOM      3  F   UNL     1      -2.360  -8.537   9.975  0.00  0.00    -0.166 F 
ATOM     28  C   UNL     1      -3.572  -9.168   9.942  0.00  0.00    +0.417 C 
ENDBRANCH  23  28
ENDBRANCH  15  18
ENDBRANCH   7  15
TORSDOF 5
ENDMDL
MODEL 3
REMARK VINA RESULT:      -6.2      4.293      7.157
REMARK  Name = 56775131
REMARK  5 active torsions:
REMARK  status: ('A' for Active; 'I' for Inactive)
REMARK    1  A    between atoms: N_6  and  C_13
REMARK    2  A    between atoms: N_7  and  C_15
REMARK    3  A    between atoms: C_13  and  C_17
REMARK    4  A    between atoms: C_15  and  C_18
REMARK    5  A    between atoms: C_23  and  C_28
REMARK                            x       y       z     vdW  Elec       q    Type
REMARK                         _______ _______ _______ _____ _____    ______ ____
ROOT
ATOM      4  O   UNL     1      -1.732 -11.904  12.796  0.00  0.00    -0.364 OA
ATOM      5  O   UNL     1      -3.525 -14.135  14.851  0.00  0.00    -0.273 OA
ATOM      6  N   UNL     1      -3.698  -9.964  11.001  0.00  0.00    -0.294 NA
ATOM      7  N   UNL     1      -4.258 -12.159  13.864  0.00  0.00    -0.288 N 
ATOM      9  C   UNL     1      -3.944 -10.979  13.062  0.00  0.00    +0.120 C 
ATOM     10  C   UNL     1      -2.456 -10.682  12.907  0.00  0.00    +0.154 C 
ATOM     11  C   UNL     1      -4.402 -11.093  11.610  0.00  0.00    +0.110 C 
ATOM     12  C   UNL     1      -2.343  -9.949  11.566  0.00  0.00    +0.118 C 
ATOM     14  C   UNL     1      -3.293 -13.083  14.253  0.00  0.00    +0.242 C 
ATOM     16  C   UNL     1      -1.863 -12.677  13.967  0.00  0.00    +0.256 C 
ENDROOT
BRANCH   6  13
ATOM     13  C   UNL     1      -3.704 -10.017   9.547  0.00  0.00    +0.121 C 
BRANCH  13  17
ATOM      8  N   UNL     1      -6.823  -7.930   9.079  0.00  0.00    -0.263 NA
ATOM     17  C   UNL     1      -4.993  -9.508   8.972  0.00  0.00    -0.015 A 
ATOM     21  C   UNL     1      -5.558 -10.097   7.846  0.00  0.00    +0.008 A 
ATOM     22  C   UNL     1      -5.660  -8.437   9.546  0.00  0.00    +0.115 A 
ATOM     25  C   UNL     1      -6.755  -9.604   7.336  0.00  0.00    +0.020 A 
ATOM     27  C   UNL     1      -7.341  -8.529   7.984  0.00  0.00    +0.111 A 
ENDBRANCH  13  17
ENDBRANCH   6  13
BRANCH   7  15
ATOM     15  C   UNL     1      -5.661 -12.396  14.173  0.00  0.00    +0.143 C 
BRANCH  15  18
ATOM     18  C   UNL     1      -6.153 -11.504  15.277  0.00  0.00    -0.030 A 
ATOM     19  C   UNL     1      -5.714 -11.706  16.586  0.00  0.00    +0.017 A 
ATOM     20  C   UNL     1      -7.048 -10.472  14.993  0.00  0.00    +0.005 A 
ATOM     23  C   UNL     1      -6.171 -10.877  17.610  0.00  0.00    +0.055 A 
ATOM     24  C   UNL     1      -7.506  -9.644  16.018  0.00  0.00    +0.001 A 
ATOM     26  C   UNL     1      -7.067  -9.846  17.326  0.00  0.00    +0.012 A 
BRANCH  23  28
ATOM      1  F   UNL     1      -6.047 -10.069  19.842  0.00  0.00    -0.166 F 
ATOM      2  F   UNL     1      -6.211 -12.222  19.588  0.00  0.00    -0.166 F 
ATOM      3  F   UNL     1      -4.347 -11.216  19.119  0.00  0.00    -0.166 F 
ATOM     28  C   UNL     1      -5.703 -11.094  19.009  0.00  0.00    +0.417 C 
ENDBRANCH  23  28
ENDBRANCH  15  18
ENDBRANCH   7  15
TORSDOF 5
ENDMDL
MODEL 4
REMARK VINA RESULT:      -6.2      3.002      5.735
REMARK  Name = 56775131
REMARK  5 active torsions:
REMARK  status: ('A' for Active; 'I' for Inactive)
REMARK    1  A    between atoms: N_6  and  C_13
REMARK    2  A    between atoms: N_7  and  C_15
REMARK    3  A    between atoms: C_13  and  C_17
REMARK    4  A    between atoms: C_15  and  C_18
REMARK    5  A    between atoms: C_23  and  C_28
REMARK                            x       y       z     vdW  Elec       q    Type
REMARK                         _______ _______ _______ _____ _____    ______ ____
ROOT
ATOM      4  O   UNL     1     -10.110 -11.048  14.181  0.00  0.00    -0.364 OA
ATOM      5  O   UNL     1     -10.087  -9.323  17.254  0.00  0.00    -0.273 OA
ATOM      6  N   UNL     1      -7.277 -10.743  12.528  0.00  0.00    -0.294 NA
ATOM      7  N   UNL     1      -8.280 -10.015  15.962  0.00  0.00    -0.288 N 
ATOM      9  C   UNL     1      -7.794 -10.723  14.780  0.00  0.00    +0.120 C 
ATOM     10  C   UNL     1      -8.815 -11.641  14.115  0.00  0.00    +0.154 C 
ATOM     11  C   UNL     1      -7.404  -9.794  13.634  0.00  0.00    +0.110 C 
ATOM     12  C   UNL     1      -8.397 -11.685  12.641  0.00  0.00    +0.118 C 
ATOM     14  C   UNL     1      -9.624  -9.979  16.320  0.00  0.00    +0.242 C 
ATOM     16  C   UNL     1     -10.526 -10.894  15.519  0.00  0.00    +0.256 C 
ENDROOT
BRANCH   6  13
ATOM     13  C   UNL     1      -7.215 -10.090  11.230  0.00  0.00    +0.121 C 
BRANCH  13  17
ATOM      8  N   UNL     1      -4.284  -8.648   9.326  0.00  0.00    -0.263 NA
ATOM     17  C   UNL     1      -5.803  -9.799  10.814  0.00  0.00    -0.015 A 
ATOM     21  C   UNL     1      -4.725 -10.373  11.480  0.00  0.00    +0.008 A 
ATOM     22  C   UNL     1      -5.531  -8.951   9.752  0.00  0.00    +0.115 A 
ATOM     25  C   UNL     1      -3.428 -10.086  11.070  0.00  0.00    +0.020 A 
ATOM     27  C   UNL     1      -3.263  -9.225   9.998  0.00  0.00    +0.111 A 
ENDBRANCH  13  17
ENDBRANCH   6  13
BRANCH   7  15
ATOM     15  C   UNL     1      -7.301  -9.251  16.724  0.00  0.00    +0.143 C 
BRANCH  15  18
ATOM     18  C   UNL     1      -6.136 -10.096  17.152  0.00  0.00    -0.030 A 
ATOM     19  C   UNL     1      -4.975 -10.127  16.380  0.00  0.00    +0.017 A 
ATOM     20  C   UNL     1      -6.216 -10.850  18.323  0.00  0.00    +0.005 A 
ATOM     23  C   UNL     1      -3.893 -10.913  16.779  0.00  0.00    +0.055 A 
ATOM     24  C   UNL     1      -5.135 -11.636  18.722  0.00  0.00    +0.001 A 
ATOM     26  C   UNL     1      -3.973 -11.667  17.950  0.00  0.00    +0.012 A 
BRANCH  23  28
ATOM      1  F   UNL     1      -1.535 -10.633  16.671  0.00  0.00    -0.166 F 
ATOM      2  F   UNL     1      -2.399 -12.169  15.397  0.00  0.00    -0.166 F 
ATOM      3  F   UNL     1      -2.670 -10.073  14.903  0.00  0.00    -0.166 F 
ATOM     28  C   UNL     1      -2.653 -10.948  15.953  0.00  0.00    +0.417 C 
ENDBRANCH  23  28
ENDBRANCH  15  18
ENDBRANCH   7  15
TORSDOF 5
ENDMDL
MODEL 5
REMARK VINA RESULT:      -6.2     18.870     20.958
REMARK  Name = 56775131
REMARK  5 active torsions:
REMARK  status: ('A' for Active; 'I' for Inactive)
REMARK    1  A    between atoms: N_6  and  C_13
REMARK    2  A    between atoms: N_7  and  C_15
REMARK    3  A    between atoms: C_13  and  C_17
REMARK    4  A    between atoms: C_15  and  C_18
REMARK    5  A    between atoms: C_23  and  C_28
REMARK                            x       y       z     vdW  Elec       q    Type
REMARK                         _______ _______ _______ _____ _____    ______ ____
ROOT
ATOM      4  O   UNL     1     -11.757  12.328  13.782  0.00  0.00    -0.364 OA
ATOM      5  O   UNL     1      -8.856  13.092  15.631  0.00  0.00    -0.273 OA
ATOM      6  N   UNL     1     -12.923   9.315  14.427  0.00  0.00    -0.294 NA
ATOM      7  N   UNL     1     -10.467  11.469  16.059  0.00  0.00    -0.288 N 
ATOM      9  C   UNL     1     -11.735  10.846  15.687  0.00  0.00    +0.120 C 
ATOM     10  C   UNL     1     -12.593  11.659  14.722  0.00  0.00    +0.154 C 
ATOM     11  C   UNL     1     -11.567   9.530  14.933  0.00  0.00    +0.110 C 
ATOM     12  C   UNL     1     -13.415  10.617  13.957  0.00  0.00    +0.118 C 
ATOM     14  C   UNL     1      -9.959  12.589  15.411  0.00  0.00    +0.242 C 
ATOM     16  C   UNL     1     -10.905  13.246  14.428  0.00  0.00    +0.256 C 
ENDROOT
BRANCH   6  13
ATOM     13  C   UNL     1     -12.985   8.284  13.403  0.00  0.00    +0.121 C 
BRANCH  13  17
ATOM      8  N   UNL     1     -15.415   5.438  12.864  0.00  0.00    -0.263 NA
ATOM     17  C   UNL     1     -14.140   7.351  13.615  0.00  0.00    -0.015 A 
ATOM     21  C   UNL     1     -14.994   7.501  14.703  0.00  0.00    +0.008 A 
ATOM     22  C   UNL     1     -14.392   6.312  12.732  0.00  0.00    +0.115 A 
ATOM     25  C   UNL     1     -16.058   6.621  14.872  0.00  0.00    +0.020 A 
ATOM     27  C   UNL     1     -16.223   5.616  13.933  0.00  0.00    +0.111 A 
ENDBRANCH  13  17
ENDBRANCH   6  13
BRANCH   7  15
ATOM     15  C   UNL     1      -9.686  10.808  17.096  0.00  0.00    +0.143 C 
BRANCH  15  18
ATOM     18  C   UNL     1     -10.527  10.432  18.282  0.00  0.00    -0.030 A 
ATOM     19  C   UNL     1     -10.734   9.087  18.592  0.00  0.00    +0.017 A 
ATOM     20  C   UNL     1     -11.101  11.427  19.073  0.00  0.00    +0.005 A 
ATOM     23  C   UNL     1     -11.516   8.739  19.694  0.00  0.00    +0.055 A 
ATOM     24  C   UNL     1     -11.883  11.078  20.174  0.00  0.00    +0.001 A 
ATOM     26  C   UNL     1     -12.090   9.734  20.485  0.00  0.00    +0.012 A 
BRANCH  23  28
ATOM      1  F   UNL     1     -11.226   6.461  19.080  0.00  0.00    -0.166 F 
ATOM      2  F   UNL     1     -11.171   6.918  21.206  0.00  0.00    -0.166 F 
ATOM      3  F   UNL     1     -13.058   6.965  20.137  0.00  0.00    -0.166 F 
ATOM     28  C   UNL     1     -11.739   7.302  20.025  0.00  0.00    +0.417 C 
ENDBRANCH  23  28
ENDBRANCH  15  18
ENDBRANCH   7  15
TORSDOF 5
ENDMDL
MODEL 6
REMARK VINA RESULT:      -6.1      3.528      7.650
REMARK  Name = 56775131
REMARK  5 active torsions:
REMARK  status: ('A' for Active; 'I' for Inactive)
REMARK    1  A    between atoms: N_6  and  C_13
REMARK    2  A    between atoms: N_7  and  C_15
REMARK    3  A    between atoms: C_13  and  C_17
REMARK    4  A    between atoms: C_15  and  C_18
REMARK    5  A    between atoms: C_23  and  C_28
REMARK                            x       y       z     vdW  Elec       q    Type
REMARK                         _______ _______ _______ _____ _____    ______ ____
ROOT
ATOM      4  O   UNL     1      -4.818 -11.163  18.860  0.00  0.00    -0.364 OA
ATOM      5  O   UNL     1      -7.788 -12.490  20.214  0.00  0.00    -0.273 OA
ATOM      6  N   UNL     1      -4.829 -11.114  15.567  0.00  0.00    -0.294 NA
ATOM      7  N   UNL     1      -7.422 -11.620  18.087  0.00  0.00    -0.288 N 
ATOM      9  C   UNL     1      -6.508 -10.974  17.148  0.00  0.00    +0.120 C 
ATOM     10  C   UNL     1      -5.270 -10.348  17.782  0.00  0.00    +0.154 C 
ATOM     11  C   UNL     1      -5.896 -11.937  16.135  0.00  0.00    +0.110 C 
ATOM     12  C   UNL     1      -4.203 -10.394  16.683  0.00  0.00    +0.118 C 
ATOM     14  C   UNL     1      -7.086 -11.869  19.414  0.00  0.00    +0.242 C 
ATOM     16  C   UNL     1      -5.790 -11.239  19.877  0.00  0.00    +0.256 C 
ENDROOT
BRANCH   6  13
ATOM     13  C   UNL     1      -3.876 -11.887  14.787  0.00  0.00    +0.121 C 
BRANCH  13  17
ATOM      8  N   UNL     1      -1.817 -10.535  11.918  0.00  0.00    -0.263 NA
ATOM     17  C   UNL     1      -3.520 -11.206  13.498  0.00  0.00    -0.015 A 
ATOM     21  C   UNL     1      -4.500 -10.627  12.698  0.00  0.00    +0.008 A 
ATOM     22  C   UNL     1      -2.205 -11.133  13.067  0.00  0.00    +0.115 A 
ATOM     25  C   UNL     1      -4.140 -10.001  11.509  0.00  0.00    +0.020 A 
ATOM     27  C   UNL     1      -2.797  -9.983  11.168  0.00  0.00    +0.111 A 
ENDBRANCH  13  17
ENDBRANCH   6  13
BRANCH   7  15
ATOM     15  C   UNL     1      -8.692 -12.094  17.554  0.00  0.00    +0.143 C 
BRANCH  15  18
ATOM     18  C   UNL     1      -9.807 -11.121  17.808  0.00  0.00    -0.030 A 
ATOM     19  C   UNL     1      -9.906  -9.958  17.043  0.00  0.00    +0.017 A 
ATOM     20  C   UNL     1     -10.744 -11.380  18.808  0.00  0.00    +0.005 A 
ATOM     23  C   UNL     1     -10.942  -9.055  17.280  0.00  0.00    +0.055 A 
ATOM     24  C   UNL     1     -11.779 -10.476  19.045  0.00  0.00    +0.001 A 
ATOM     26  C   UNL     1     -11.879  -9.314  18.280  0.00  0.00    +0.012 A 
BRANCH  23  28
ATOM      1  F   UNL     1     -10.870  -6.680  17.206  0.00  0.00    -0.166 F 
ATOM      2  F   UNL     1     -10.127  -7.737  15.457  0.00  0.00    -0.166 F 
ATOM      3  F   UNL     1     -12.259  -7.660  15.851  0.00  0.00    -0.166 F 
ATOM     28  C   UNL     1     -11.047  -7.811  16.463  0.00  0.00    +0.417 C 
ENDBRANCH  23  28
ENDBRANCH  15  18
ENDBRANCH   7  15
TORSDOF 5
ENDMDL
MODEL 7
REMARK VINA RESULT:      -6.1     24.915     27.036
REMARK  Name = 56775131
REMARK  5 active torsions:
REMARK  status: ('A' for Active; 'I' for Inactive)
REMARK    1  A    between atoms: N_6  and  C_13
REMARK    2  A    between atoms: N_7  and  C_15
REMARK    3  A    between atoms: C_13  and  C_17
REMARK    4  A    between atoms: C_15  and  C_18
REMARK    5  A    between atoms: C_23  and  C_28
REMARK                            x       y       z     vdW  Elec       q    Type
REMARK                         _______ _______ _______ _____ _____    ______ ____
ROOT
ATOM      4  O   UNL     1      10.307  11.118   3.251  0.00  0.00    -0.364 OA
ATOM      5  O   UNL     1       8.302   8.544   1.919  0.00  0.00    -0.273 OA
ATOM      6  N   UNL     1       9.911  11.490   6.500  0.00  0.00    -0.294 NA
ATOM      7  N   UNL     1       8.952   8.886   4.127  0.00  0.00    -0.288 N 
ATOM      9  C   UNL     1       9.723   9.669   5.090  0.00  0.00    +0.120 C 
ATOM     10  C   UNL     1      10.786  10.575   4.478  0.00  0.00    +0.154 C 
ATOM     11  C   UNL     1       8.876  10.660   5.884  0.00  0.00    +0.110 C 
ATOM     12  C   UNL     1      10.933  11.730   5.474  0.00  0.00    +0.118 C 
ATOM     14  C   UNL     1       9.001   9.118   2.756  0.00  0.00    +0.242 C 
ATOM     16  C   UNL     1      10.064  10.098   2.309  0.00  0.00    +0.256 C 
ENDROOT
BRANCH   6  13
ATOM     13  C   UNL     1       9.381  12.718   7.070  0.00  0.00    +0.121 C 
BRANCH  13  17
ATOM      8  N   UNL     1       7.552  13.129  10.354  0.00  0.00    -0.263 NA
ATOM     17  C   UNL     1       9.015  12.555   8.516  0.00  0.00    -0.015 A 
ATOM     21  C   UNL     1       9.750  11.722   9.353  0.00  0.00    +0.008 A 
ATOM     22  C   UNL     1       7.935  13.231   9.062  0.00  0.00    +0.115 A 
ATOM     25  C   UNL     1       9.388  11.592  10.689  0.00  0.00    +0.020 A 
ATOM     27  C   UNL     1       8.291  12.310  11.136  0.00  0.00    +0.111 A 
ENDBRANCH  13  17
ENDBRANCH   6  13
BRANCH   7  15
ATOM     15  C   UNL     1       8.034   7.891   4.667  0.00  0.00    +0.143 C 
BRANCH  15  18
ATOM     18  C   UNL     1       8.761   6.719   5.261  0.00  0.00    -0.030 A 
ATOM     19  C   UNL     1       8.778   6.537   6.644  0.00  0.00    +0.017 A 
ATOM     20  C   UNL     1       9.418   5.813   4.429  0.00  0.00    +0.005 A 
ATOM     23  C   UNL     1       9.453   5.447   7.194  0.00  0.00    +0.055 A 
ATOM     24  C   UNL     1      10.094   4.724   4.980  0.00  0.00    +0.001 A 
ATOM     26  C   UNL     1      10.111   4.540   6.363  0.00  0.00    +0.012 A 
BRANCH  23  28
ATOM      1  F   UNL     1      10.700   5.500   9.217  0.00  0.00    -0.166 F 
ATOM      2  F   UNL     1       8.603   6.064   9.344  0.00  0.00    -0.166 F 
ATOM      3  F   UNL     1       9.150   3.983   9.061  0.00  0.00    -0.166 F 
ATOM     28  C   UNL     1       9.473   5.252   8.673  0.00  0.00    +0.417 C 
ENDBRANCH  23  28
ENDBRANCH  15  18
ENDBRANCH   7  15
TORSDOF 5
ENDMDL
MODEL 8
REMARK VINA RESULT:      -6.1     26.273     29.273
REMARK  Name = 56775131
REMARK  5 active torsions:
REMARK  status: ('A' for Active; 'I' for Inactive)
REMARK    1  A    between atoms: N_6  and  C_13
REMARK    2  A    between atoms: N_7  and  C_15
REMARK    3  A    between atoms: C_13  and  C_17
REMARK    4  A    between atoms: C_15  and  C_18
REMARK    5  A    between atoms: C_23  and  C_28
REMARK                            x       y       z     vdW  Elec       q    Type
REMARK                         _______ _______ _______ _____ _____    ______ ____
ROOT
ATOM      4  O   UNL     1      16.512  -4.010  30.680  0.00  0.00    -0.364 OA
ATOM      5  O   UNL     1      18.114  -6.049  28.294  0.00  0.00    -0.273 OA
ATOM      6  N   UNL     1      17.848  -1.006  30.892  0.00  0.00    -0.294 NA
ATOM      7  N   UNL     1      18.143  -3.729  28.478  0.00  0.00    -0.288 N 
ATOM      9  C   UNL     1      17.669  -2.530  29.164  0.00  0.00    +0.120 C 
ATOM     10  C   UNL     1      16.440  -2.736  30.045  0.00  0.00    +0.154 C 
ATOM     11  C   UNL     1      18.679  -1.956  30.154  0.00  0.00    +0.110 C 
ATOM     12  C   UNL     1      16.558  -1.665  31.134  0.00  0.00    +0.118 C 
ATOM     14  C   UNL     1      17.679  -5.005  28.782  0.00  0.00    +0.242 C 
ATOM     16  C   UNL     1      16.498  -5.049  29.728  0.00  0.00    +0.256 C 
ENDROOT
BRANCH   6  13
ATOM     13  C   UNL     1      18.481  -0.536  32.114  0.00  0.00    +0.121 C 
BRANCH  13  17
ATOM      8  N   UNL     1      19.335   3.088  32.778  0.00  0.00    -0.263 NA
ATOM     17  C   UNL     1      18.322   0.946  32.295  0.00  0.00    -0.015 A 
ATOM     21  C   UNL     1      17.079   1.556  32.162  0.00  0.00    +0.008 A 
ATOM     22  C   UNL     1      19.409   1.749  32.601  0.00  0.00    +0.115 A 
ATOM     25  C   UNL     1      16.963   2.931  32.337  0.00  0.00    +0.020 A 
ATOM     27  C   UNL     1      18.111   3.644  32.641  0.00  0.00    +0.111 A 
ENDBRANCH  13  17
ENDBRANCH   6  13
BRANCH   7  15
ATOM     15  C   UNL     1      19.214  -3.555  27.506  0.00  0.00    +0.143 C 
BRANCH  15  18
ATOM     18  C   UNL     1      18.783  -2.712  26.340  0.00  0.00    -0.030 A 
ATOM     19  C   UNL     1      17.706  -3.113  25.549  0.00  0.00    +0.017 A 
ATOM     20  C   UNL     1      19.461  -1.528  26.048  0.00  0.00    +0.005 A 
ATOM     23  C   UNL     1      17.306  -2.328  24.466  0.00  0.00    +0.055 A 
ATOM     24  C   UNL     1      19.062  -0.745  24.964  0.00  0.00    +0.001 A 
ATOM     26  C   UNL     1      17.984  -1.145  24.174  0.00  0.00    +0.012 A 
BRANCH  23  28
ATOM      1  F   UNL     1      15.803  -1.814  22.699  0.00  0.00    -0.166 F 
ATOM      2  F   UNL     1      16.395  -3.896  22.906  0.00  0.00    -0.166 F 
ATOM      3  F   UNL     1      15.019  -3.015  24.334  0.00  0.00    -0.166 F 
ATOM     28  C   UNL     1      16.156  -2.757  23.620  0.00  0.00    +0.417 C 
ENDBRANCH  23  28
ENDBRANCH  15  18
ENDBRANCH   7  15
TORSDOF 5
ENDMDL
MODEL 9
REMARK VINA RESULT:      -6.1     26.154     28.796
REMARK  Name = 56775131
REMARK  5 active torsions:
REMARK  status: ('A' for Active; 'I' for Inactive)
REMARK    1  A    between atoms: N_6  and  C_13
REMARK    2  A    between atoms: N_7  and  C_15
REMARK    3  A    between atoms: C_13  and  C_17
REMARK    4  A    between atoms: C_15  and  C_18
REMARK    5  A    between atoms: C_23  and  C_28
REMARK                            x       y       z     vdW  Elec       q    Type
REMARK                         _______ _______ _______ _____ _____    ______ ____
ROOT
ATOM      4  O   UNL     1      16.562   8.764   5.033  0.00  0.00    -0.364 OA
ATOM      5  O   UNL     1      16.864   8.946   1.527  0.00  0.00    -0.273 OA
ATOM      6  N   UNL     1      13.569   7.791   6.005  0.00  0.00    -0.294 NA
ATOM      7  N   UNL     1      15.303   7.773   2.793  0.00  0.00    -0.288 N 
ATOM      9  C   UNL     1      14.823   7.368   4.111  0.00  0.00    +0.120 C 
ATOM     10  C   UNL     1      15.820   7.567   5.249  0.00  0.00    +0.154 C 
ATOM     11  C   UNL     1      13.621   8.174   4.595  0.00  0.00    +0.110 C 
ATOM     12  C   UNL     1      14.953   7.773   6.495  0.00  0.00    +0.118 C 
ATOM     14  C   UNL     1      16.471   8.507   2.609  0.00  0.00    +0.242 C 
ATOM     16  C   UNL     1      17.321   8.681   3.849  0.00  0.00    +0.256 C 
ENDROOT
BRANCH   6  13
ATOM     13  C   UNL     1      12.702   8.654   6.791  0.00  0.00    +0.121 C 
BRANCH  13  17
ATOM      8  N   UNL     1      10.242   5.896   7.589  0.00  0.00    -0.263 NA
ATOM     17  C   UNL     1      11.431   7.963   7.189  0.00  0.00    -0.015 A 
ATOM     21  C   UNL     1      10.290   8.690   7.515  0.00  0.00    +0.008 A 
ATOM     22  C   UNL     1      11.354   6.580   7.240  0.00  0.00    +0.115 A 
ATOM     25  C   UNL     1       9.126   8.021   7.878  0.00  0.00    +0.020 A 
ATOM     27  C   UNL     1       9.154   6.636   7.899  0.00  0.00    +0.111 A 
ENDBRANCH  13  17
ENDBRANCH   6  13
BRANCH   7  15
ATOM     15  C   UNL     1      14.451   7.459   1.653  0.00  0.00    +0.143 C 
BRANCH  15  18
ATOM     18  C   UNL     1      14.118   5.996   1.587  0.00  0.00    -0.030 A 
ATOM     19  C   UNL     1      12.879   5.542   2.040  0.00  0.00    +0.017 A 
ATOM     20  C   UNL     1      15.047   5.093   1.071  0.00  0.00    +0.005 A 
ATOM     23  C   UNL     1      12.570   4.182   1.978  0.00  0.00    +0.055 A 
ATOM     24  C   UNL     1      14.738   3.734   1.009  0.00  0.00    +0.001 A 
ATOM     26  C   UNL     1      13.499   3.279   1.462  0.00  0.00    +0.012 A 
BRANCH  23  28
ATOM      1  F   UNL     1      11.261   2.369   2.783  0.00  0.00    -0.166 F 
ATOM      2  F   UNL     1      10.806   4.338   3.586  0.00  0.00    -0.166 F 
ATOM      3  F   UNL     1      10.242   3.842   1.551  0.00  0.00    -0.166 F 
ATOM     28  C   UNL     1      11.247   3.696   2.464  0.00  0.00    +0.417 C 
ENDBRANCH  23  28
ENDBRANCH  15  18
ENDBRANCH   7  15
TORSDOF 5
ENDMDL
MODEL 10
REMARK VINA RESULT:      -6.1      3.694      5.117
REMARK  Name = 56775131
REMARK  5 active torsions:
REMARK  status: ('A' for Active; 'I' for Inactive)
REMARK    1  A    between atoms: N_6  and  C_13
REMARK    2  A    between atoms: N_7  and  C_15
REMARK    3  A    between atoms: C_13  and  C_17
REMARK    4  A    between atoms: C_15  and  C_18
REMARK    5  A    between atoms: C_23  and  C_28
REMARK                            x       y       z     vdW  Elec       q    Type
REMARK                         _______ _______ _______ _____ _____    ______ ____
ROOT
ATOM      4  O   UNL     1      -3.931 -14.766  15.305  0.00  0.00    -0.364 OA
ATOM      5  O   UNL     1      -1.178 -13.330  13.640  0.00  0.00    -0.273 OA
ATOM      6  N   UNL     1      -5.720 -12.548  16.957  0.00  0.00    -0.294 NA
ATOM      7  N   UNL     1      -3.110 -12.292  14.417  0.00  0.00    -0.288 N 
ATOM      9  C   UNL     1      -4.420 -12.417  15.051  0.00  0.00    +0.120 C 
ATOM     10  C   UNL     1      -4.985 -13.833  15.087  0.00  0.00    +0.154 C 
ATOM     11  C   UNL     1      -4.419 -12.036  16.529  0.00  0.00    +0.110 C 
ATOM     12  C   UNL     1      -5.895 -13.859  16.319  0.00  0.00    +0.118 C 
ATOM     14  C   UNL     1      -2.323 -13.391  14.091  0.00  0.00    +0.242 C 
ATOM     16  C   UNL     1      -3.001 -14.735  14.246  0.00  0.00    +0.256 C 
ENDROOT
BRANCH   6  13
ATOM     13  C   UNL     1      -5.857 -12.599  18.404  0.00  0.00    +0.121 C 
BRANCH  13  17
ATOM      8  N   UNL     1      -9.117 -12.391  20.308  0.00  0.00    -0.263 NA
ATOM     17  C   UNL     1      -7.201 -12.112  18.859  0.00  0.00    -0.015 A 
ATOM     21  C   UNL     1      -7.783 -10.981  18.296  0.00  0.00    +0.008 A 
ATOM     22  C   UNL     1      -7.904 -12.776  19.853  0.00  0.00    +0.115 A 
ATOM     25  C   UNL     1      -9.031 -10.555  18.738  0.00  0.00    +0.020 A 
ATOM     27  C   UNL     1      -9.650 -11.288  19.737  0.00  0.00    +0.111 A 
ENDBRANCH  13  17
ENDBRANCH   6  13
BRANCH   7  15
ATOM     15  C   UNL     1      -2.598 -10.943  14.218  0.00  0.00    +0.143 C 
BRANCH  15  18
ATOM     18  C   UNL     1      -2.993 -10.383  12.882  0.00  0.00    -0.030 A 
ATOM     19  C   UNL     1      -4.332 -10.098  12.613  0.00  0.00    +0.017 A 
ATOM     20  C   UNL     1      -2.020 -10.148  11.909  0.00  0.00    +0.005 A 
ATOM     23  C   UNL     1      -4.698  -9.578  11.371  0.00  0.00    +0.055 A 
ATOM     24  C   UNL     1      -2.387  -9.628  10.668  0.00  0.00    +0.001 A 
ATOM     26  C   UNL     1      -3.726  -9.343  10.399  0.00  0.00    +0.012 A 
BRANCH  23  28
ATOM      1  F   UNL     1      -6.800  -8.820  12.181  0.00  0.00    -0.166 F 
ATOM      2  F   UNL     1      -6.305  -8.318  10.124  0.00  0.00    -0.166 F 
ATOM      3  F   UNL     1      -6.839 -10.356  10.642  0.00  0.00    -0.166 F 
ATOM     28  C   UNL     1      -6.129  -9.275  11.083  0.00  0.00    +0.417 C 
ENDBRANCH  23  28
ENDBRANCH  15  18
ENDBRANCH   7  15
TORSDOF 5
ENDMDL
