MODEL 1
REMARK VINA RESULT:      -6.8      0.000      0.000
REMARK  Name = 56774407
REMARK  3 active torsions:
REMARK  status: ('A' for Active; 'I' for Inactive)
REMARK    1  A    between atoms: N_1  and  C_5
REMARK    2  A    between atoms: N_2  and  C_15
REMARK    3  A    between atoms: C_6  and  C_14
REMARK                            x       y       z     vdW  Elec       q    Type
REMARK                         _______ _______ _______ _____ _____    ______ ____
ROOT
ATOM      1  N   UNL     1      11.171   8.893  21.062  0.00  0.00    -0.299 NA
ATOM      6  C   UNL     1      12.695   7.393  20.099  0.00  0.00    +0.070 C 
ATOM      7  C   UNL     1      12.460   8.886  20.367  0.00  0.00    +0.096 C 
ATOM      8  C   UNL     1      11.247   7.782  22.010  0.00  0.00    +0.085 C 
ATOM      9  C   UNL     1      11.873   6.670  21.180  0.00  0.00    +0.028 C 
ENDROOT
BRANCH   6  14
ATOM      3  N   UNL     1      14.984   7.273  21.122  0.00  0.00    -0.342 N 
ATOM      4  N   UNL     1      14.799   6.449  19.066  0.00  0.00    -0.232 NA
ATOM     14  C   UNL     1      14.160   7.024  20.061  0.00  0.00    +0.113 A 
ATOM     16  C   UNL     1      16.239   6.831  20.792  0.00  0.00    +0.066 A 
ATOM     17  C   UNL     1      16.098   6.321  19.503  0.00  0.00    +0.089 A 
ATOM     18  C   UNL     1      17.449   6.833  21.486  0.00  0.00    +0.028 A 
ATOM     19  C   UNL     1      17.220   5.777  18.856  0.00  0.00    +0.030 A 
ATOM     20  C   UNL     1      18.554   6.288  20.827  0.00  0.00    +0.002 A 
ATOM     21  C   UNL     1      18.445   5.769  19.535  0.00  0.00    +0.002 A 
ATOM     22  H   UNL     1      14.719   7.707  21.997  0.00  0.00    +0.167 HD
ENDBRANCH   6  14
BRANCH   1   5
ATOM      2  N   UNL     1      11.816  12.384  23.398  0.00  0.00    -0.305 NA
ATOM      5  C   UNL     1      10.900  10.169  21.721  0.00  0.00    +0.059 C 
ATOM     10  C   UNL     1      11.854  11.247  21.201  0.00  0.00    +0.034 C 
ATOM     11  C   UNL     1      11.035  10.040  23.241  0.00  0.00    +0.034 C 
ATOM     12  C   UNL     1      11.651  12.567  21.950  0.00  0.00    +0.085 C 
ATOM     13  C   UNL     1      10.859  11.400  23.924  0.00  0.00    +0.085 C 
ATOM     15  C   UNL     1      11.669  13.662  24.095  0.00  0.00    +0.104 C 
ENDBRANCH   1   5
TORSDOF 2
ENDMDL
MODEL 2
REMARK VINA RESULT:      -6.7      1.368      7.371
REMARK  Name = 56774407
REMARK  3 active torsions:
REMARK  status: ('A' for Active; 'I' for Inactive)
REMARK    1  A    between atoms: N_1  and  C_5
REMARK    2  A    between atoms: N_2  and  C_15
REMARK    3  A    between atoms: C_6  and  C_14
REMARK                            x       y       z     vdW  Elec       q    Type
REMARK                         _______ _______ _______ _____ _____    ______ ____
ROOT
ATOM      1  N   UNL     1      12.756   7.168  20.468  0.00  0.00    -0.299 NA
ATOM      6  C   UNL     1      11.234   8.691  21.396  0.00  0.00    +0.070 C 
ATOM      7  C   UNL     1      12.499   7.886  21.718  0.00  0.00    +0.096 C 
ATOM      8  C   UNL     1      12.530   8.154  19.412  0.00  0.00    +0.085 C 
ATOM      9  C   UNL     1      11.252   8.848  19.865  0.00  0.00    +0.028 C 
ENDROOT
BRANCH   6  14
ATOM      3  N   UNL     1      11.307  11.196  21.546  0.00  0.00    -0.342 N 
ATOM      4  N   UNL     1      10.921  10.123  23.455  0.00  0.00    -0.232 NA
ATOM     14  C   UNL     1      11.147   9.988  22.166  0.00  0.00    +0.113 A 
ATOM     16  C   UNL     1      11.175  12.176  22.496  0.00  0.00    +0.066 A 
ATOM     17  C   UNL     1      10.935  11.481  23.679  0.00  0.00    +0.089 A 
ATOM     18  C   UNL     1      11.244  13.567  22.426  0.00  0.00    +0.028 A 
ATOM     19  C   UNL     1      10.750  12.201  24.871  0.00  0.00    +0.030 A 
ATOM     20  C   UNL     1      11.057  14.268  23.622  0.00  0.00    +0.002 A 
ATOM     21  C   UNL     1      10.815  13.599  24.823  0.00  0.00    +0.002 A 
ATOM     22  H   UNL     1      11.490  11.344  20.562  0.00  0.00    +0.167 HD
ENDBRANCH   6  14
BRANCH   1   5
ATOM      2  N   UNL     1      16.993   6.980  20.203  0.00  0.00    -0.305 NA
ATOM      5  C   UNL     1      14.101   6.598  20.418  0.00  0.00    +0.059 C 
ATOM     10  C   UNL     1      14.943   7.125  21.582  0.00  0.00    +0.034 C 
ATOM     11  C   UNL     1      14.785   6.924  19.087  0.00  0.00    +0.034 C 
ATOM     12  C   UNL     1      16.384   6.617  21.491  0.00  0.00    +0.085 C 
ATOM     13  C   UNL     1      16.232   6.423  19.077  0.00  0.00    +0.085 C 
ATOM     15  C   UNL     1      18.385   6.532  20.151  0.00  0.00    +0.104 C 
ENDBRANCH   1   5
TORSDOF 2
ENDMDL
MODEL 3
REMARK VINA RESULT:      -6.6     26.358     27.930
REMARK  Name = 56774407
REMARK  3 active torsions:
REMARK  status: ('A' for Active; 'I' for Inactive)
REMARK    1  A    between atoms: N_1  and  C_5
REMARK    2  A    between atoms: N_2  and  C_15
REMARK    3  A    between atoms: C_6  and  C_14
REMARK                            x       y       z     vdW  Elec       q    Type
REMARK                         _______ _______ _______ _____ _____    ______ ____
ROOT
ATOM      1  N   UNL     1      -2.027 -11.044  12.459  0.00  0.00    -0.299 NA
ATOM      6  C   UNL     1      -2.273 -10.940  14.789  0.00  0.00    +0.070 C 
ATOM      7  C   UNL     1      -2.794 -10.329  13.482  0.00  0.00    +0.096 C 
ATOM      8  C   UNL     1      -2.028 -12.440  12.895  0.00  0.00    +0.085 C 
ATOM      9  C   UNL     1      -1.750 -12.330  14.388  0.00  0.00    +0.028 C 
ENDROOT
BRANCH   6  14
ATOM      3  N   UNL     1      -3.065 -11.552  17.091  0.00  0.00    -0.342 N 
ATOM      4  N   UNL     1      -4.502 -10.395  15.850  0.00  0.00    -0.232 NA
ATOM     14  C   UNL     1      -3.307 -10.943  15.892  0.00  0.00    +0.113 A 
ATOM     16  C   UNL     1      -4.177 -11.388  17.877  0.00  0.00    +0.066 A 
ATOM     17  C   UNL     1      -5.059 -10.663  17.080  0.00  0.00    +0.089 A 
ATOM     18  C   UNL     1      -4.478 -11.798  19.176  0.00  0.00    +0.028 A 
ATOM     19  C   UNL     1      -6.321 -10.319  17.593  0.00  0.00    +0.030 A 
ATOM     20  C   UNL     1      -5.738 -11.447  19.670  0.00  0.00    +0.002 A 
ATOM     21  C   UNL     1      -6.644 -10.721  18.895  0.00  0.00    +0.002 A 
ATOM     22  H   UNL     1      -2.218 -12.038  17.356  0.00  0.00    +0.167 HD
ENDBRANCH   6  14
BRANCH   1   5
ATOM      2  N   UNL     1      -4.865 -10.202   9.411  0.00  0.00    -0.305 NA
ATOM      5  C   UNL     1      -2.590 -10.878  11.122  0.00  0.00    +0.059 C 
ATOM     10  C   UNL     1      -3.059  -9.435  10.919  0.00  0.00    +0.034 C 
ATOM     11  C   UNL     1      -3.757 -11.844  10.895  0.00  0.00    +0.034 C 
ATOM     12  C   UNL     1      -3.742  -9.266   9.560  0.00  0.00    +0.085 C 
ATOM     13  C   UNL     1      -4.418 -11.596   9.535  0.00  0.00    +0.085 C 
ATOM     15  C   UNL     1      -5.538  -9.994   8.129  0.00  0.00    +0.104 C 
ENDBRANCH   1   5
TORSDOF 2
ENDMDL
MODEL 4
REMARK VINA RESULT:      -6.5     26.003     29.004
REMARK  Name = 56774407
REMARK  3 active torsions:
REMARK  status: ('A' for Active; 'I' for Inactive)
REMARK    1  A    between atoms: N_1  and  C_5
REMARK    2  A    between atoms: N_2  and  C_15
REMARK    3  A    between atoms: C_6  and  C_14
REMARK                            x       y       z     vdW  Elec       q    Type
REMARK                         _______ _______ _______ _____ _____    ______ ____
ROOT
ATOM      1  N   UNL     1      -4.136 -11.109  17.508  0.00  0.00    -0.299 NA
ATOM      6  C   UNL     1      -5.927 -10.528  18.907  0.00  0.00    +0.070 C 
ATOM      7  C   UNL     1      -5.390 -10.353  17.480  0.00  0.00    +0.096 C 
ATOM      8  C   UNL     1      -4.453 -12.338  18.235  0.00  0.00    +0.085 C 
ATOM      9  C   UNL     1      -5.286 -11.835  19.406  0.00  0.00    +0.028 C 
ENDROOT
BRANCH   6  14
ATOM      3  N   UNL     1      -8.170  -9.710  18.132  0.00  0.00    -0.342 N 
ATOM      4  N   UNL     1      -8.199 -11.167  19.810  0.00  0.00    -0.232 NA
ATOM     14  C   UNL     1      -7.436 -10.493  18.978  0.00  0.00    +0.113 A 
ATOM     16  C   UNL     1      -9.494  -9.889  18.437  0.00  0.00    +0.066 A 
ATOM     17  C   UNL     1      -9.487 -10.803  19.488  0.00  0.00    +0.089 A 
ATOM     18  C   UNL     1     -10.663  -9.348  17.901  0.00  0.00    +0.028 A 
ATOM     19  C   UNL     1     -10.708 -11.211  20.048  0.00  0.00    +0.030 A 
ATOM     20  C   UNL     1     -11.869  -9.765  18.472  0.00  0.00    +0.002 A 
ATOM     21  C   UNL     1     -11.894 -10.680  19.526  0.00  0.00    +0.002 A 
ATOM     22  H   UNL     1      -7.804  -9.104  17.409  0.00  0.00    +0.167 HD
ENDBRANCH   6  14
BRANCH   1   5
ATOM      2  N   UNL     1      -2.514 -10.368  13.651  0.00  0.00    -0.305 NA
ATOM      5  C   UNL     1      -3.614 -11.372  16.170  0.00  0.00    +0.059 C 
ATOM     10  C   UNL     1      -2.175 -10.861  16.052  0.00  0.00    +0.034 C 
ATOM     11  C   UNL     1      -4.491 -10.714  15.100  0.00  0.00    +0.034 C 
ATOM     12  C   UNL     1      -1.645 -11.039  14.627  0.00  0.00    +0.085 C 
ATOM     13  C   UNL     1      -3.885 -10.897  13.705  0.00  0.00    +0.085 C 
ATOM     15  C   UNL     1      -1.968 -10.504  12.300  0.00  0.00    +0.104 C 
ENDBRANCH   1   5
TORSDOF 2
ENDMDL
MODEL 5
REMARK VINA RESULT:      -6.2      2.877      7.539
REMARK  Name = 56774407
REMARK  3 active torsions:
REMARK  status: ('A' for Active; 'I' for Inactive)
REMARK    1  A    between atoms: N_1  and  C_5
REMARK    2  A    between atoms: N_2  and  C_15
REMARK    3  A    between atoms: C_6  and  C_14
REMARK                            x       y       z     vdW  Elec       q    Type
REMARK                         _______ _______ _______ _____ _____    ______ ____
ROOT
ATOM      1  N   UNL     1      12.553   8.198  20.936  0.00  0.00    -0.299 NA
ATOM      6  C   UNL     1      11.649   9.321  22.786  0.00  0.00    +0.070 C 
ATOM      7  C   UNL     1      12.839   9.333  21.817  0.00  0.00    +0.096 C 
ATOM      8  C   UNL     1      11.123   8.294  20.648  0.00  0.00    +0.085 C 
ATOM      9  C   UNL     1      10.523   8.615  22.011  0.00  0.00    +0.028 C 
ENDROOT
BRANCH   6  14
ATOM      3  N   UNL     1      11.346  10.985  24.640  0.00  0.00    -0.342 N 
ATOM      4  N   UNL     1      10.923  11.734  22.591  0.00  0.00    -0.232 NA
ATOM     14  C   UNL     1      11.298  10.696  23.306  0.00  0.00    +0.113 A 
ATOM     16  C   UNL     1      10.977  12.296  24.799  0.00  0.00    +0.066 A 
ATOM     17  C   UNL     1      10.717  12.741  23.505  0.00  0.00    +0.089 A 
ATOM     18  C   UNL     1      10.852  13.106  25.928  0.00  0.00    +0.028 A 
ATOM     19  C   UNL     1      10.308  14.071  23.308  0.00  0.00    +0.030 A 
ATOM     20  C   UNL     1      10.443  14.426  25.713  0.00  0.00    +0.002 A 
ATOM     21  C   UNL     1      10.175  14.902  24.428  0.00  0.00    +0.002 A 
ATOM     22  H   UNL     1      11.606  10.348  25.382  0.00  0.00    +0.167 HD
ENDBRANCH   6  14
BRANCH   1   5
ATOM      2  N   UNL     1      13.666   8.912  16.897  0.00  0.00    -0.305 NA
ATOM      5  C   UNL     1      13.367   8.215  19.723  0.00  0.00    +0.059 C 
ATOM     10  C   UNL     1      13.595   9.655  19.257  0.00  0.00    +0.034 C 
ATOM     11  C   UNL     1      12.704   7.402  18.607  0.00  0.00    +0.034 C 
ATOM     12  C   UNL     1      14.362   9.689  17.933  0.00  0.00    +0.085 C 
ATOM     13  C   UNL     1      13.500   7.510  17.303  0.00  0.00    +0.085 C 
ATOM     15  C   UNL     1      14.384   8.995  15.626  0.00  0.00    +0.104 C 
ENDBRANCH   1   5
TORSDOF 2
ENDMDL
MODEL 6
REMARK VINA RESULT:      -6.2     27.935     30.626
REMARK  Name = 56774407
REMARK  3 active torsions:
REMARK  status: ('A' for Active; 'I' for Inactive)
REMARK    1  A    between atoms: N_1  and  C_5
REMARK    2  A    between atoms: N_2  and  C_15
REMARK    3  A    between atoms: C_6  and  C_14
REMARK                            x       y       z     vdW  Elec       q    Type
REMARK                         _______ _______ _______ _____ _____    ______ ____
ROOT
ATOM      1  N   UNL     1     -15.406   3.349  33.089  0.00  0.00    -0.299 NA
ATOM      6  C   UNL     1     -14.580   5.280  34.132  0.00  0.00    +0.070 C 
ATOM      7  C   UNL     1     -14.150   4.079  33.280  0.00  0.00    +0.096 C 
ATOM      8  C   UNL     1     -16.402   4.381  32.800  0.00  0.00    +0.085 C 
ATOM      9  C   UNL     1     -16.076   5.462  33.823  0.00  0.00    +0.028 C 
ENDROOT
BRANCH   6  14
ATOM      3  N   UNL     1     -13.290   6.836  32.643  0.00  0.00    -0.342 N 
ATOM      4  N   UNL     1     -13.322   7.368  34.801  0.00  0.00    -0.232 NA
ATOM     14  C   UNL     1     -13.729   6.507  33.895  0.00  0.00    +0.113 A 
ATOM     16  C   UNL     1     -12.550   7.985  32.747  0.00  0.00    +0.066 A 
ATOM     17  C   UNL     1     -12.584   8.297  34.104  0.00  0.00    +0.089 A 
ATOM     18  C   UNL     1     -11.874   8.756  31.801  0.00  0.00    +0.028 A 
ATOM     19  C   UNL     1     -11.910   9.442  34.560  0.00  0.00    +0.030 A 
ATOM     20  C   UNL     1     -11.208   9.891  32.273  0.00  0.00    +0.002 A 
ATOM     21  C   UNL     1     -11.225  10.230  33.627  0.00  0.00    +0.002 A 
ATOM     22  H   UNL     1     -13.476   6.325  31.790  0.00  0.00    +0.167 HD
ENDBRANCH   6  14
BRANCH   1   5
ATOM      2  N   UNL     1     -13.726   0.404  30.526  0.00  0.00    -0.305 NA
ATOM      5  C   UNL     1     -15.314   2.351  32.026  0.00  0.00    +0.059 C 
ATOM     10  C   UNL     1     -14.928   0.989  32.609  0.00  0.00    +0.034 C 
ATOM     11  C   UNL     1     -14.294   2.773  30.964  0.00  0.00    +0.034 C 
ATOM     12  C   UNL     1     -14.730  -0.047  31.500  0.00  0.00    +0.085 C 
ATOM     13  C   UNL     1     -14.117   1.678  29.908  0.00  0.00    +0.085 C 
ATOM     15  C   UNL     1     -13.512  -0.617  29.501  0.00  0.00    +0.104 C 
ENDBRANCH   1   5
TORSDOF 2
ENDMDL
MODEL 7
REMARK VINA RESULT:      -6.1     26.297     28.006
REMARK  Name = 56774407
REMARK  3 active torsions:
REMARK  status: ('A' for Active; 'I' for Inactive)
REMARK    1  A    between atoms: N_1  and  C_5
REMARK    2  A    between atoms: N_2  and  C_15
REMARK    3  A    between atoms: C_6  and  C_14
REMARK                            x       y       z     vdW  Elec       q    Type
REMARK                         _______ _______ _______ _____ _____    ______ ____
ROOT
ATOM      1  N   UNL     1      -4.257 -11.929  16.745  0.00  0.00    -0.299 NA
ATOM      6  C   UNL     1      -3.401 -11.508  14.603  0.00  0.00    +0.070 C 
ATOM      7  C   UNL     1      -4.663 -11.976  15.339  0.00  0.00    +0.096 C 
ATOM      8  C   UNL     1      -3.516 -10.676  16.883  0.00  0.00    +0.085 C 
ATOM      9  C   UNL     1      -2.637 -10.663  15.639  0.00  0.00    +0.028 C 
ENDROOT
BRANCH   6  14
ATOM      3  N   UNL     1      -4.940 -10.274  13.051  0.00  0.00    -0.342 N 
ATOM      4  N   UNL     1      -2.872 -10.601  12.304  0.00  0.00    -0.232 NA
ATOM     14  C   UNL     1      -3.704 -10.798  13.303  0.00  0.00    +0.113 A 
ATOM     16  C   UNL     1      -4.906  -9.700  11.806  0.00  0.00    +0.066 A 
ATOM     17  C   UNL     1      -3.605  -9.918  11.360  0.00  0.00    +0.089 A 
ATOM     18  C   UNL     1      -5.872  -9.031  11.054  0.00  0.00    +0.028 A 
ATOM     19  C   UNL     1      -3.229  -9.446  10.092  0.00  0.00    +0.030 A 
ATOM     20  C   UNL     1      -5.479  -8.568   9.795  0.00  0.00    +0.002 A 
ATOM     21  C   UNL     1      -4.182  -8.771   9.320  0.00  0.00    +0.002 A 
ATOM     22  H   UNL     1      -5.740 -10.303  13.670  0.00  0.00    +0.167 HD
ENDBRANCH   6  14
BRANCH   1   5
ATOM      2  N   UNL     1      -7.935 -10.911  18.614  0.00  0.00    -0.305 NA
ATOM      5  C   UNL     1      -5.396 -12.005  17.657  0.00  0.00    +0.059 C 
ATOM     10  C   UNL     1      -6.699 -12.153  16.867  0.00  0.00    +0.034 C 
ATOM     11  C   UNL     1      -5.465 -10.763  18.551  0.00  0.00    +0.034 C 
ATOM     12  C   UNL     1      -7.912 -12.134  17.801  0.00  0.00    +0.085 C 
ATOM     13  C   UNL     1      -6.719 -10.789  19.430  0.00  0.00    +0.085 C 
ATOM     15  C   UNL     1      -9.126 -10.884  19.464  0.00  0.00    +0.104 C 
ENDBRANCH   1   5
TORSDOF 2
ENDMDL
MODEL 8
REMARK VINA RESULT:      -6.1     27.373     30.087
REMARK  Name = 56774407
REMARK  3 active torsions:
REMARK  status: ('A' for Active; 'I' for Inactive)
REMARK    1  A    between atoms: N_1  and  C_5
REMARK    2  A    between atoms: N_2  and  C_15
REMARK    3  A    between atoms: C_6  and  C_14
REMARK                            x       y       z     vdW  Elec       q    Type
REMARK                         _______ _______ _______ _____ _____    ______ ____
ROOT
ATOM      1  N   UNL     1     -17.177   2.811  26.800  0.00  0.00    -0.299 NA
ATOM      6  C   UNL     1     -16.958   3.975  24.776  0.00  0.00    +0.070 C 
ATOM      7  C   UNL     1     -16.650   4.073  26.276  0.00  0.00    +0.096 C 
ATOM      8  C   UNL     1     -16.760   1.797  25.832  0.00  0.00    +0.085 C 
ATOM      9  C   UNL     1     -17.048   2.465  24.495  0.00  0.00    +0.028 C 
ENDROOT
BRANCH   6  14
ATOM      3  N   UNL     1     -14.762   4.169  23.576  0.00  0.00    -0.342 N 
ATOM      4  N   UNL     1     -16.109   5.931  23.419  0.00  0.00    -0.232 NA
ATOM     14  C   UNL     1     -15.963   4.723  23.919  0.00  0.00    +0.113 A 
ATOM     16  C   UNL     1     -14.086   5.078  22.803  0.00  0.00    +0.066 A 
ATOM     17  C   UNL     1     -14.947   6.169  22.721  0.00  0.00    +0.089 A 
ATOM     18  C   UNL     1     -12.834   5.042  22.189  0.00  0.00    +0.028 A 
ATOM     19  C   UNL     1     -14.551   7.299  21.985  0.00  0.00    +0.030 A 
ATOM     20  C   UNL     1     -12.457   6.174  21.461  0.00  0.00    +0.002 A 
ATOM     21  C   UNL     1     -13.298   7.284  21.360  0.00  0.00    +0.002 A 
ATOM     22  H   UNL     1     -14.428   3.252  23.842  0.00  0.00    +0.167 HD
ENDBRANCH   6  14
BRANCH   1   5
ATOM      2  N   UNL     1     -14.536   1.667  29.927  0.00  0.00    -0.305 NA
ATOM      5  C   UNL     1     -16.697   2.523  28.149  0.00  0.00    +0.059 C 
ATOM     10  C   UNL     1     -15.516   3.433  28.497  0.00  0.00    +0.034 C 
ATOM     11  C   UNL     1     -16.282   1.054  28.282  0.00  0.00    +0.034 C 
ATOM     12  C   UNL     1     -14.935   3.080  29.869  0.00  0.00    +0.085 C 
ATOM     13  C   UNL     1     -15.676   0.778  29.662  0.00  0.00    +0.085 C 
ATOM     15  C   UNL     1     -13.938   1.356  31.225  0.00  0.00    +0.104 C 
ENDBRANCH   1   5
TORSDOF 2
ENDMDL
MODEL 9
REMARK VINA RESULT:      -6.1     27.569     30.345
REMARK  Name = 56774407
REMARK  3 active torsions:
REMARK  status: ('A' for Active; 'I' for Inactive)
REMARK    1  A    between atoms: N_1  and  C_5
REMARK    2  A    between atoms: N_2  and  C_15
REMARK    3  A    between atoms: C_6  and  C_14
REMARK                            x       y       z     vdW  Elec       q    Type
REMARK                         _______ _______ _______ _____ _____    ______ ____
ROOT
ATOM      1  N   UNL     1     -16.598   3.931  24.162  0.00  0.00    -0.299 NA
ATOM      6  C   UNL     1     -17.004   2.897  26.227  0.00  0.00    +0.070 C 
ATOM      7  C   UNL     1     -16.087   2.843  24.999  0.00  0.00    +0.096 C 
ATOM      8  C   UNL     1     -16.842   5.037  25.088  0.00  0.00    +0.085 C 
ATOM      9  C   UNL     1     -17.514   4.348  26.268  0.00  0.00    +0.028 C 
ENDROOT
BRANCH   6  14
ATOM      3  N   UNL     1     -15.387   3.196  28.125  0.00  0.00    -0.342 N 
ATOM      4  N   UNL     1     -16.528   1.288  28.117  0.00  0.00    -0.232 NA
ATOM     14  C   UNL     1     -16.324   2.427  27.493  0.00  0.00    +0.113 A 
ATOM     16  C   UNL     1     -14.957   2.509  29.230  0.00  0.00    +0.066 A 
ATOM     17  C   UNL     1     -15.683   1.321  29.204  0.00  0.00    +0.089 A 
ATOM     18  C   UNL     1     -14.024   2.814  30.222  0.00  0.00    +0.028 A 
ATOM     19  C   UNL     1     -15.479   0.371  30.218  0.00  0.00    +0.030 A 
ATOM     20  C   UNL     1     -13.834   1.856  31.223  0.00  0.00    +0.002 A 
ATOM     21  C   UNL     1     -14.547   0.656  31.223  0.00  0.00    +0.002 A 
ATOM     22  H   UNL     1     -15.066   4.110  27.831  0.00  0.00    +0.167 HD
ENDBRANCH   6  14
BRANCH   1   5
ATOM      2  N   UNL     1     -13.914   6.275  21.846  0.00  0.00    -0.305 NA
ATOM      5  C   UNL     1     -15.671   4.295  23.093  0.00  0.00    +0.059 C 
ATOM     10  C   UNL     1     -14.303   4.657  23.677  0.00  0.00    +0.034 C 
ATOM     11  C   UNL     1     -16.215   5.469  22.272  0.00  0.00    +0.034 C 
ATOM     12  C   UNL     1     -13.347   5.136  22.582  0.00  0.00    +0.085 C 
ATOM     13  C   UNL     1     -15.196   5.922  21.222  0.00  0.00    +0.085 C 
ATOM     15  C   UNL     1     -12.969   6.753  20.837  0.00  0.00    +0.104 C 
ENDBRANCH   1   5
TORSDOF 2
ENDMDL
MODEL 10
REMARK VINA RESULT:      -6.0     24.622     26.507
REMARK  Name = 56774407
REMARK  3 active torsions:
REMARK  status: ('A' for Active; 'I' for Inactive)
REMARK    1  A    between atoms: N_1  and  C_5
REMARK    2  A    between atoms: N_2  and  C_15
REMARK    3  A    between atoms: C_6  and  C_14
REMARK                            x       y       z     vdW  Elec       q    Type
REMARK                         _______ _______ _______ _____ _____    ______ ____
ROOT
ATOM      1  N   UNL     1     -11.605   8.013  20.436  0.00  0.00    -0.299 NA
ATOM      6  C   UNL     1     -10.514   8.412  18.399  0.00  0.00    +0.070 C 
ATOM      7  C   UNL     1     -11.534   7.484  19.072  0.00  0.00    +0.096 C 
ATOM      8  C   UNL     1     -11.639   9.467  20.276  0.00  0.00    +0.085 C 
ATOM      9  C   UNL     1     -10.576   9.716  19.213  0.00  0.00    +0.028 C 
ENDROOT
BRANCH   6  14
ATOM      3  N   UNL     1     -10.219   7.709  16.007  0.00  0.00    -0.342 N 
ATOM      4  N   UNL     1     -11.470   9.516  16.336  0.00  0.00    -0.232 NA
ATOM     14  C   UNL     1     -10.756   8.577  16.916  0.00  0.00    +0.113 A 
ATOM     16  C   UNL     1     -10.611   8.114  14.757  0.00  0.00    +0.066 A 
ATOM     17  C   UNL     1     -11.390   9.244  14.989  0.00  0.00    +0.089 A 
ATOM     18  C   UNL     1     -10.358   7.606  13.483  0.00  0.00    +0.028 A 
ATOM     19  C   UNL     1     -11.960   9.919  13.896  0.00  0.00    +0.030 A 
ATOM     20  C   UNL     1     -10.933   8.290  12.407  0.00  0.00    +0.002 A 
ATOM     21  C   UNL     1     -11.719   9.426  12.608  0.00  0.00    +0.002 A 
ATOM     22  H   UNL     1      -9.635   6.909  16.216  0.00  0.00    +0.167 HD
ENDBRANCH   6  14
BRANCH   1   5
ATOM      2  N   UNL     1     -15.070   5.715  21.315  0.00  0.00    -0.305 NA
ATOM      5  C   UNL     1     -12.762   7.507  21.171  0.00  0.00    +0.059 C 
ATOM     10  C   UNL     1     -12.615   6.005  21.423  0.00  0.00    +0.034 C 
ATOM     11  C   UNL     1     -14.060   7.785  20.407  0.00  0.00    +0.034 C 
ATOM     12  C   UNL     1     -13.862   5.437  22.105  0.00  0.00    +0.085 C 
ATOM     13  C   UNL     1     -15.262   7.159  21.122  0.00  0.00    +0.085 C 
ATOM     15  C   UNL     1     -16.246   5.124  21.953  0.00  0.00    +0.104 C 
ENDBRANCH   1   5
TORSDOF 2
ENDMDL
