MODEL 1
REMARK VINA RESULT:      -6.3      0.000      0.000
REMARK  Name = 38027463
REMARK  14 active torsions:
REMARK  status: ('A' for Active; 'I' for Inactive)
REMARK    1  A    between atoms: N_3  and  C_13
REMARK    2  A    between atoms: N_4  and  C_20
REMARK    3  A    between atoms: N_5  and  C_22
REMARK    4  A    between atoms: N_5  and  C_27
REMARK    5  A    between atoms: N_5  and  C_28
REMARK    6  A    between atoms: C_6  and  C_10
REMARK    7  A    between atoms: C_7  and  C_13
REMARK    8  A    between atoms: C_9  and  C_14
REMARK    9  A    between atoms: C_10  and  C_15
REMARK   10  A    between atoms: C_10  and  C_16
REMARK   11  A    between atoms: C_11  and  C_17
REMARK   12  A    between atoms: C_14  and  C_18
REMARK   13  A    between atoms: C_19  and  C_21
REMARK   14  A    between atoms: C_20  and  C_22
REMARK                            x       y       z     vdW  Elec       q    Type
REMARK                         _______ _______ _______ _____ _____    ______ ____
ROOT
ATOM      6  C   UNL     1      -3.044 -12.183  12.685  0.00  0.00    +0.000 C 
ATOM      7  C   UNL     1      -1.981 -11.067  12.533  0.00  0.00    +0.032 C 
ATOM      8  C   UNL     1      -3.626 -12.562  11.314  0.00  0.00    +0.012 C 
ATOM      9  C   UNL     1      -4.277 -11.359  10.606  0.00  0.00    +0.023 C 
ATOM     11  C   UNL     1      -3.391 -10.131  10.649  0.00  0.00    -0.073 C 
ATOM     12  C   UNL     1      -2.361 -10.025  11.508  0.00  0.00    -0.022 C 
ATOM     17  C   UNL     1      -3.687  -9.047   9.651  0.00  0.00    +0.039 C 
ENDROOT
BRANCH   6  10
ATOM     10  C   UNL     1      -2.469 -13.429  13.366  0.00  0.00    -0.013 C 
ATOM     15  C   UNL     1      -3.394 -13.899  14.485  0.00  0.00    +0.007 C 
ATOM     16  C   UNL     1      -2.249 -14.540  12.344  0.00  0.00    +0.007 C 
ENDBRANCH   6  10
BRANCH   7  13
ATOM     13  C   UNL     1      -1.699 -10.385  13.877  0.00  0.00    +0.112 C 
BRANCH  13   3
ATOM      2  O   UNL     1      -1.962 -10.985  16.672  0.00  0.00    -0.270 OA
ATOM      3  N   UNL     1      -2.891 -10.296  14.660  0.00  0.00    -0.311 N 
ATOM     19  C   UNL     1      -2.931 -10.608  16.018  0.00  0.00    +0.244 C 
ATOM     30  H   UNL     1      -3.712  -9.903  14.211  0.00  0.00    +0.149 HD
BRANCH  19  21
ATOM     21  C   UNL     1      -4.253 -10.489  16.685  0.00  0.00    +0.037 A 
ATOM     23  C   UNL     1      -5.314  -9.870  16.026  0.00  0.00    +0.013 A 
ATOM     24  C   UNL     1      -4.433 -10.997  17.972  0.00  0.00    +0.013 A 
ATOM     25  C   UNL     1      -6.556  -9.760  16.652  0.00  0.00    +0.001 A 
ATOM     26  C   UNL     1      -5.673 -10.886  18.598  0.00  0.00    +0.001 A 
ATOM     29  C   UNL     1      -6.736 -10.268  17.939  0.00  0.00    +0.000 A 
ENDBRANCH  19  21
ENDBRANCH  13   3
ENDBRANCH   7  13
BRANCH   9  14
ATOM     14  C   UNL     1      -5.662 -11.058  11.190  0.00  0.00    +0.103 C 
BRANCH  14  18
ATOM      1  O   UNL     1      -6.958 -11.414   9.178  0.00  0.00    -0.276 OA
ATOM      4  N   UNL     1      -7.183  -9.417  10.347  0.00  0.00    -0.314 N 
ATOM     18  C   UNL     1      -6.661 -10.683  10.119  0.00  0.00    +0.214 C 
ATOM     31  H   UNL     1      -6.877  -8.894  11.161  0.00  0.00    +0.149 HD
BRANCH   4  20
ATOM     20  C   UNL     1      -8.160  -8.799   9.481  0.00  0.00    +0.119 C 
BRANCH  20  22
ATOM     22  C   UNL     1      -7.488  -7.980   8.390  0.00  0.00    +0.102 C 
BRANCH  22   5
ATOM      5  N   UNL     1      -8.338  -6.861   8.000  0.00  0.00    -0.307 NA
ATOM     27  C   UNL     1      -9.560  -6.836   8.805  0.00  0.00    +0.104 C 
ATOM     28  C   UNL     1      -8.671  -6.938   6.576  0.00  0.00    +0.104 C 
ENDBRANCH  22   5
ENDBRANCH  20  22
ENDBRANCH   4  20
ENDBRANCH  14  18
ENDBRANCH   9  14
TORSDOF 9
ENDMDL
MODEL 2
REMARK VINA RESULT:      -6.3     26.403     28.772
REMARK  Name = 38027463
REMARK  14 active torsions:
REMARK  status: ('A' for Active; 'I' for Inactive)
REMARK    1  A    between atoms: N_3  and  C_13
REMARK    2  A    between atoms: N_4  and  C_20
REMARK    3  A    between atoms: N_5  and  C_22
REMARK    4  A    between atoms: N_5  and  C_27
REMARK    5  A    between atoms: N_5  and  C_28
REMARK    6  A    between atoms: C_6  and  C_10
REMARK    7  A    between atoms: C_7  and  C_13
REMARK    8  A    between atoms: C_9  and  C_14
REMARK    9  A    between atoms: C_10  and  C_15
REMARK   10  A    between atoms: C_10  and  C_16
REMARK   11  A    between atoms: C_11  and  C_17
REMARK   12  A    between atoms: C_14  and  C_18
REMARK   13  A    between atoms: C_19  and  C_21
REMARK   14  A    between atoms: C_20  and  C_22
REMARK                            x       y       z     vdW  Elec       q    Type
REMARK                         _______ _______ _______ _____ _____    ______ ____
ROOT
ATOM      6  C   UNL     1      13.315   9.893  19.796  0.00  0.00    +0.000 C 
ATOM      7  C   UNL     1      12.107   8.924  19.823  0.00  0.00    +0.032 C 
ATOM      8  C   UNL     1      13.124  10.959  18.707  0.00  0.00    +0.012 C 
ATOM      9  C   UNL     1      12.965  10.338  17.306  0.00  0.00    +0.023 C 
ATOM     11  C   UNL     1      11.979   9.189  17.308  0.00  0.00    -0.073 C 
ATOM     12  C   UNL     1      11.597   8.578  18.444  0.00  0.00    -0.022 C 
ATOM     17  C   UNL     1      11.406   8.786  15.977  0.00  0.00    +0.039 C 
ENDROOT
BRANCH   6  10
ATOM     10  C   UNL     1      13.530  10.571  21.153  0.00  0.00    -0.013 C 
ATOM     15  C   UNL     1      14.774  11.454  21.115  0.00  0.00    +0.007 C 
ATOM     16  C   UNL     1      12.301  11.385  21.542  0.00  0.00    +0.007 C 
ENDBRANCH   6  10
BRANCH   7  13
ATOM     13  C   UNL     1      12.448   7.635  20.580  0.00  0.00    +0.112 C 
BRANCH  13   3
ATOM      2  O   UNL     1      14.751   7.560  22.292  0.00  0.00    -0.270 OA
ATOM      3  N   UNL     1      13.755   7.173  20.232  0.00  0.00    -0.311 N 
ATOM     19  C   UNL     1      14.822   7.172  21.129  0.00  0.00    +0.244 C 
ATOM     30  H   UNL     1      13.868   6.752  19.316  0.00  0.00    +0.149 HD
BRANCH  19  21
ATOM     21  C   UNL     1      16.124   6.683  20.606  0.00  0.00    +0.037 A 
ATOM     23  C   UNL     1      17.264   6.740  21.406  0.00  0.00    +0.013 A 
ATOM     24  C   UNL     1      16.206   6.168  19.312  0.00  0.00    +0.013 A 
ATOM     25  C   UNL     1      18.486   6.280  20.915  0.00  0.00    +0.001 A 
ATOM     26  C   UNL     1      17.427   5.709  18.820  0.00  0.00    +0.001 A 
ATOM     29  C   UNL     1      18.568   5.765  19.621  0.00  0.00    +0.000 A 
ENDBRANCH  19  21
ENDBRANCH  13   3
ENDBRANCH   7  13
BRANCH   9  14
ATOM     14  C   UNL     1      14.320   9.898  16.740  0.00  0.00    +0.103 C 
BRANCH  14  18
ATOM      1  O   UNL     1      15.211   9.835  14.491  0.00  0.00    -0.276 OA
ATOM      4  N   UNL     1      13.922  11.650  15.162  0.00  0.00    -0.314 N 
ATOM     18  C   UNL     1      14.550  10.425  15.342  0.00  0.00    +0.214 C 
ATOM     31  H   UNL     1      13.391  12.052  15.928  0.00  0.00    +0.149 HD
BRANCH   4  20
ATOM     20  C   UNL     1      13.975  12.389  13.922  0.00  0.00    +0.119 C 
BRANCH  20  22
ATOM     22  C   UNL     1      15.043  13.470  13.970  0.00  0.00    +0.102 C 
BRANCH  22   5
ATOM      5  N   UNL     1      16.108  13.174  13.019  0.00  0.00    -0.307 NA
ATOM     27  C   UNL     1      15.633  12.258  11.981  0.00  0.00    +0.104 C 
ATOM     28  C   UNL     1      17.268  12.604  13.706  0.00  0.00    +0.104 C 
ENDBRANCH  22   5
ENDBRANCH  20  22
ENDBRANCH   4  20
ENDBRANCH  14  18
ENDBRANCH   9  14
TORSDOF 9
ENDMDL
MODEL 3
REMARK VINA RESULT:      -6.1     27.065     29.777
REMARK  Name = 38027463
REMARK  14 active torsions:
REMARK  status: ('A' for Active; 'I' for Inactive)
REMARK    1  A    between atoms: N_3  and  C_13
REMARK    2  A    between atoms: N_4  and  C_20
REMARK    3  A    between atoms: N_5  and  C_22
REMARK    4  A    between atoms: N_5  and  C_27
REMARK    5  A    between atoms: N_5  and  C_28
REMARK    6  A    between atoms: C_6  and  C_10
REMARK    7  A    between atoms: C_7  and  C_13
REMARK    8  A    between atoms: C_9  and  C_14
REMARK    9  A    between atoms: C_10  and  C_15
REMARK   10  A    between atoms: C_10  and  C_16
REMARK   11  A    between atoms: C_11  and  C_17
REMARK   12  A    between atoms: C_14  and  C_18
REMARK   13  A    between atoms: C_19  and  C_21
REMARK   14  A    between atoms: C_20  and  C_22
REMARK                            x       y       z     vdW  Elec       q    Type
REMARK                         _______ _______ _______ _____ _____    ______ ____
ROOT
ATOM      6  C   UNL     1      13.486   8.332  19.179  0.00  0.00    +0.000 C 
ATOM      7  C   UNL     1      14.997   8.054  19.371  0.00  0.00    +0.032 C 
ATOM      8  C   UNL     1      13.203   9.841  19.249  0.00  0.00    +0.012 C 
ATOM      9  C   UNL     1      13.646  10.454  20.590  0.00  0.00    +0.023 C 
ATOM     11  C   UNL     1      15.040  10.007  20.982  0.00  0.00    -0.073 C 
ATOM     12  C   UNL     1      15.632   8.941  20.416  0.00  0.00    -0.022 C 
ATOM     17  C   UNL     1      15.756  10.843  22.007  0.00  0.00    +0.039 C 
ENDROOT
BRANCH   6  10
ATOM     10  C   UNL     1      12.968   7.769  17.851  0.00  0.00    -0.013 C 
ATOM     15  C   UNL     1      11.574   8.312  17.551  0.00  0.00    +0.007 C 
ATOM     16  C   UNL     1      13.934   8.102  16.719  0.00  0.00    +0.007 C 
ENDBRANCH   6  10
BRANCH   7  13
ATOM     13  C   UNL     1      15.249   6.584  19.726  0.00  0.00    +0.112 C 
BRANCH  13   3
ATOM      2  O   UNL     1      17.659   5.646  18.481  0.00  0.00    -0.270 OA
ATOM      3  N   UNL     1      16.524   6.424  20.350  0.00  0.00    -0.311 N 
ATOM     19  C   UNL     1      17.649   5.960  19.669  0.00  0.00    +0.244 C 
ATOM     30  H   UNL     1      16.616   6.750  21.306  0.00  0.00    +0.149 HD
BRANCH  19  21
ATOM     21  C   UNL     1      18.895   5.825  20.466  0.00  0.00    +0.037 A 
ATOM     23  C   UNL     1      19.122   6.665  21.555  0.00  0.00    +0.013 A 
ATOM     24  C   UNL     1      19.839   4.856  20.124  0.00  0.00    +0.013 A 
ATOM     25  C   UNL     1      20.292   6.536  22.304  0.00  0.00    +0.001 A 
ATOM     26  C   UNL     1      21.009   4.728  20.871  0.00  0.00    +0.001 A 
ATOM     29  C   UNL     1      21.235   5.568  21.962  0.00  0.00    +0.000 A 
ENDBRANCH  19  21
ENDBRANCH  13   3
ENDBRANCH   7  13
BRANCH   9  14
ATOM     14  C   UNL     1      12.637  10.141  21.701  0.00  0.00    +0.103 C 
BRANCH  14  18
ATOM      1  O   UNL     1      11.611  12.318  21.957  0.00  0.00    -0.276 OA
ATOM      4  N   UNL     1      12.637  11.311  23.785  0.00  0.00    -0.314 N 
ATOM     18  C   UNL     1      12.226  11.381  22.462  0.00  0.00    +0.214 C 
ATOM     31  H   UNL     1      13.134  10.487  24.108  0.00  0.00    +0.149 HD
BRANCH   4  20
ATOM     20  C   UNL     1      12.382  12.359  24.746  0.00  0.00    +0.119 C 
BRANCH  20  22
ATOM     22  C   UNL     1      10.983  12.243  25.331  0.00  0.00    +0.102 C 
BRANCH  22   5
ATOM      5  N   UNL     1      10.420  13.567  25.567  0.00  0.00    -0.307 NA
ATOM     27  C   UNL     1      10.063  14.209  24.300  0.00  0.00    +0.104 C 
ATOM     28  C   UNL     1      11.363  14.403  26.311  0.00  0.00    +0.104 C 
ENDBRANCH  22   5
ENDBRANCH  20  22
ENDBRANCH   4  20
ENDBRANCH  14  18
ENDBRANCH   9  14
TORSDOF 9
ENDMDL
MODEL 4
REMARK VINA RESULT:      -6.0      3.540      6.414
REMARK  Name = 38027463
REMARK  14 active torsions:
REMARK  status: ('A' for Active; 'I' for Inactive)
REMARK    1  A    between atoms: N_3  and  C_13
REMARK    2  A    between atoms: N_4  and  C_20
REMARK    3  A    between atoms: N_5  and  C_22
REMARK    4  A    between atoms: N_5  and  C_27
REMARK    5  A    between atoms: N_5  and  C_28
REMARK    6  A    between atoms: C_6  and  C_10
REMARK    7  A    between atoms: C_7  and  C_13
REMARK    8  A    between atoms: C_9  and  C_14
REMARK    9  A    between atoms: C_10  and  C_15
REMARK   10  A    between atoms: C_10  and  C_16
REMARK   11  A    between atoms: C_11  and  C_17
REMARK   12  A    between atoms: C_14  and  C_18
REMARK   13  A    between atoms: C_19  and  C_21
REMARK   14  A    between atoms: C_20  and  C_22
REMARK                            x       y       z     vdW  Elec       q    Type
REMARK                         _______ _______ _______ _____ _____    ______ ____
ROOT
ATOM      6  C   UNL     1      -5.651 -10.808  17.350  0.00  0.00    +0.000 C 
ATOM      7  C   UNL     1      -4.770 -11.782  16.529  0.00  0.00    +0.032 C 
ATOM      8  C   UNL     1      -7.123 -11.248  17.306  0.00  0.00    +0.012 C 
ATOM      9  C   UNL     1      -7.669 -11.307  15.867  0.00  0.00    +0.023 C 
ATOM     11  C   UNL     1      -6.719 -12.027  14.932  0.00  0.00    -0.073 C 
ATOM     12  C   UNL     1      -5.431 -12.242  15.252  0.00  0.00    -0.022 C 
ATOM     17  C   UNL     1      -7.297 -12.536  13.640  0.00  0.00    +0.039 C 
ENDROOT
BRANCH   6  10
ATOM     10  C   UNL     1      -5.184 -10.707  18.806  0.00  0.00    -0.013 C 
ATOM     15  C   UNL     1      -6.350 -10.324  19.714  0.00  0.00    +0.007 C 
ATOM     16  C   UNL     1      -4.557 -12.022  19.256  0.00  0.00    +0.007 C 
ENDBRANCH   6  10
BRANCH   7  13
ATOM     13  C   UNL     1      -3.408 -11.156  16.205  0.00  0.00    +0.112 C 
BRANCH  13   3
ATOM      2  O   UNL     1      -1.949 -12.129  13.932  0.00  0.00    -0.270 OA
ATOM      3  N   UNL     1      -3.407 -10.598  14.890  0.00  0.00    -0.311 N 
ATOM     19  C   UNL     1      -2.666 -11.135  13.838  0.00  0.00    +0.244 C 
ATOM     30  H   UNL     1      -4.047  -9.830  14.712  0.00  0.00    +0.149 HD
BRANCH  19  21
ATOM     21  C   UNL     1      -2.752 -10.423  12.537  0.00  0.00    +0.037 A 
ATOM     23  C   UNL     1      -3.975 -10.321  11.876  0.00  0.00    +0.013 A 
ATOM     24  C   UNL     1      -1.607  -9.855  11.977  0.00  0.00    +0.013 A 
ATOM     25  C   UNL     1      -4.055  -9.651  10.656  0.00  0.00    +0.001 A 
ATOM     26  C   UNL     1      -1.687  -9.186  10.757  0.00  0.00    +0.001 A 
ATOM     29  C   UNL     1      -2.911  -9.084  10.095  0.00  0.00    +0.000 A 
ENDBRANCH  19  21
ENDBRANCH  13   3
ENDBRANCH   7  13
BRANCH   9  14
ATOM     14  C   UNL     1      -7.998  -9.904  15.343  0.00  0.00    +0.103 C 
BRANCH  14  18
ATOM      1  O   UNL     1     -10.267 -10.113  16.157  0.00  0.00    -0.276 OA
ATOM      4  N   UNL     1      -9.288  -8.008  16.018  0.00  0.00    -0.314 N 
ATOM     18  C   UNL     1      -9.313  -9.389  15.883  0.00  0.00    +0.214 C 
ATOM     31  H   UNL     1      -8.445  -7.500  15.770  0.00  0.00    +0.149 HD
BRANCH   4  20
ATOM     20  C   UNL     1     -10.411  -7.244  16.510  0.00  0.00    +0.119 C 
BRANCH  20  22
ATOM     22  C   UNL     1     -10.740  -6.087  15.579  0.00  0.00    +0.102 C 
BRANCH  22   5
ATOM      5  N   UNL     1     -11.942  -6.380  14.809  0.00  0.00    -0.307 NA
ATOM     27  C   UNL     1     -12.269  -5.266  13.918  0.00  0.00    +0.104 C 
ATOM     28  C   UNL     1     -13.069  -6.664  15.700  0.00  0.00    +0.104 C 
ENDBRANCH  22   5
ENDBRANCH  20  22
ENDBRANCH   4  20
ENDBRANCH  14  18
ENDBRANCH   9  14
TORSDOF 9
ENDMDL
MODEL 5
REMARK VINA RESULT:      -6.0      1.915      2.390
REMARK  Name = 38027463
REMARK  14 active torsions:
REMARK  status: ('A' for Active; 'I' for Inactive)
REMARK    1  A    between atoms: N_3  and  C_13
REMARK    2  A    between atoms: N_4  and  C_20
REMARK    3  A    between atoms: N_5  and  C_22
REMARK    4  A    between atoms: N_5  and  C_27
REMARK    5  A    between atoms: N_5  and  C_28
REMARK    6  A    between atoms: C_6  and  C_10
REMARK    7  A    between atoms: C_7  and  C_13
REMARK    8  A    between atoms: C_9  and  C_14
REMARK    9  A    between atoms: C_10  and  C_15
REMARK   10  A    between atoms: C_10  and  C_16
REMARK   11  A    between atoms: C_11  and  C_17
REMARK   12  A    between atoms: C_14  and  C_18
REMARK   13  A    between atoms: C_19  and  C_21
REMARK   14  A    between atoms: C_20  and  C_22
REMARK                            x       y       z     vdW  Elec       q    Type
REMARK                         _______ _______ _______ _____ _____    ______ ____
ROOT
ATOM      6  C   UNL     1      -3.124 -12.093  12.586  0.00  0.00    +0.000 C 
ATOM      7  C   UNL     1      -2.030 -11.005  12.454  0.00  0.00    +0.032 C 
ATOM      8  C   UNL     1      -3.692 -12.455  11.204  0.00  0.00    +0.012 C 
ATOM      9  C   UNL     1      -4.299 -11.235  10.488  0.00  0.00    +0.023 C 
ATOM     11  C   UNL     1      -3.382 -10.030  10.549  0.00  0.00    -0.073 C 
ATOM     12  C   UNL     1      -2.365  -9.952  11.425  0.00  0.00    -0.022 C 
ATOM     17  C   UNL     1      -3.632  -8.937   9.547  0.00  0.00    +0.039 C 
ENDROOT
BRANCH   6  10
ATOM     10  C   UNL     1      -2.593 -13.355  13.275  0.00  0.00    -0.013 C 
ATOM     15  C   UNL     1      -3.522 -13.771  14.411  0.00  0.00    +0.007 C 
ATOM     16  C   UNL     1      -2.434 -14.485  12.264  0.00  0.00    +0.007 C 
ENDBRANCH   6  10
BRANCH   7  13
ATOM     13  C   UNL     1      -1.753 -10.332  13.804  0.00  0.00    +0.112 C 
BRANCH  13   3
ATOM      2  O   UNL     1      -2.017 -10.913  16.603  0.00  0.00    -0.270 OA
ATOM      3  N   UNL     1      -2.948 -10.249  14.583  0.00  0.00    -0.311 N 
ATOM     19  C   UNL     1      -2.989 -10.551  15.944  0.00  0.00    +0.244 C 
ATOM     30  H   UNL     1      -3.772  -9.869  14.129  0.00  0.00    +0.149 HD
BRANCH  19  21
ATOM     21  C   UNL     1      -4.314 -10.440  16.606  0.00  0.00    +0.037 A 
ATOM     23  C   UNL     1      -4.490 -10.926  17.901  0.00  0.00    +0.013 A 
ATOM     24  C   UNL     1      -5.382  -9.849  15.931  0.00  0.00    +0.013 A 
ATOM     25  C   UNL     1      -5.734 -10.819  18.523  0.00  0.00    +0.001 A 
ATOM     26  C   UNL     1      -6.626  -9.744  16.552  0.00  0.00    +0.001 A 
ATOM     29  C   UNL     1      -6.802 -10.229  17.849  0.00  0.00    +0.000 A 
ENDBRANCH  19  21
ENDBRANCH  13   3
ENDBRANCH   7  13
BRANCH   9  14
ATOM     14  C   UNL     1      -5.685 -10.898  11.049  0.00  0.00    +0.103 C 
BRANCH  14  18
ATOM      1  O   UNL     1      -7.294  -9.309  10.187  0.00  0.00    -0.276 OA
ATOM      4  N   UNL     1      -6.527 -11.022   8.815  0.00  0.00    -0.314 N 
ATOM     18  C   UNL     1      -6.594 -10.301   9.998  0.00  0.00    +0.214 C 
ATOM     31  H   UNL     1      -5.910 -11.826   8.757  0.00  0.00    +0.149 HD
BRANCH   4  20
ATOM     20  C   UNL     1      -7.293 -10.680   7.638  0.00  0.00    +0.119 C 
BRANCH  20  22
ATOM     22  C   UNL     1      -6.387 -10.223   6.505  0.00  0.00    +0.102 C 
BRANCH  22   5
ATOM      5  N   UNL     1      -6.167 -11.312   5.562  0.00  0.00    -0.307 NA
ATOM     27  C   UNL     1      -4.738 -11.611   5.444  0.00  0.00    +0.104 C 
ATOM     28  C   UNL     1      -6.724 -10.979   4.250  0.00  0.00    +0.104 C 
ENDBRANCH  22   5
ENDBRANCH  20  22
ENDBRANCH   4  20
ENDBRANCH  14  18
ENDBRANCH   9  14
TORSDOF 9
ENDMDL
MODEL 6
REMARK VINA RESULT:      -6.0     26.982     29.689
REMARK  Name = 38027463
REMARK  14 active torsions:
REMARK  status: ('A' for Active; 'I' for Inactive)
REMARK    1  A    between atoms: N_3  and  C_13
REMARK    2  A    between atoms: N_4  and  C_20
REMARK    3  A    between atoms: N_5  and  C_22
REMARK    4  A    between atoms: N_5  and  C_27
REMARK    5  A    between atoms: N_5  and  C_28
REMARK    6  A    between atoms: C_6  and  C_10
REMARK    7  A    between atoms: C_7  and  C_13
REMARK    8  A    between atoms: C_9  and  C_14
REMARK    9  A    between atoms: C_10  and  C_15
REMARK   10  A    between atoms: C_10  and  C_16
REMARK   11  A    between atoms: C_11  and  C_17
REMARK   12  A    between atoms: C_14  and  C_18
REMARK   13  A    between atoms: C_19  and  C_21
REMARK   14  A    between atoms: C_20  and  C_22
REMARK                            x       y       z     vdW  Elec       q    Type
REMARK                         _______ _______ _______ _____ _____    ______ ____
ROOT
ATOM      6  C   UNL     1      12.738   8.856  20.828  0.00  0.00    +0.000 C 
ATOM      7  C   UNL     1      12.865   7.830  19.675  0.00  0.00    +0.032 C 
ATOM      8  C   UNL     1      12.322  10.231  20.281  0.00  0.00    +0.012 C 
ATOM      9  C   UNL     1      13.329  10.775  19.250  0.00  0.00    +0.023 C 
ATOM     11  C   UNL     1      13.711   9.726  18.226  0.00  0.00    -0.073 C 
ATOM     12  C   UNL     1      13.482   8.416  18.428  0.00  0.00    -0.022 C 
ATOM     17  C   UNL     1      14.319  10.221  16.944  0.00  0.00    +0.039 C 
ENDROOT
BRANCH   6  10
ATOM     10  C   UNL     1      11.735   8.397  21.892  0.00  0.00    -0.013 C 
ATOM     15  C   UNL     1      11.276   9.582  22.737  0.00  0.00    +0.007 C 
ATOM     16  C   UNL     1      10.543   7.707  21.236  0.00  0.00    +0.007 C 
ENDBRANCH   6  10
BRANCH   7  13
ATOM     13  C   UNL     1      13.667   6.600  20.115  0.00  0.00    +0.112 C 
BRANCH  13   3
ATOM      2  O   UNL     1      16.152   5.894  18.863  0.00  0.00    -0.270 OA
ATOM      3  N   UNL     1      14.976   6.977  20.546  0.00  0.00    -0.311 N 
ATOM     19  C   UNL     1      16.136   6.588  19.877  0.00  0.00    +0.244 C 
ATOM     30  H   UNL     1      15.039   7.626  21.323  0.00  0.00    +0.149 HD
BRANCH  19  21
ATOM     21  C   UNL     1      17.422   7.041  20.466  0.00  0.00    +0.037 A 
ATOM     23  C   UNL     1      18.525   6.188  20.475  0.00  0.00    +0.013 A 
ATOM     24  C   UNL     1      17.527   8.321  21.012  0.00  0.00    +0.013 A 
ATOM     25  C   UNL     1      19.733   6.615  21.027  0.00  0.00    +0.001 A 
ATOM     26  C   UNL     1      18.733   8.747  21.565  0.00  0.00    +0.001 A 
ATOM     29  C   UNL     1      19.837   7.894  21.573  0.00  0.00    +0.000 A 
ENDBRANCH  19  21
ENDBRANCH  13   3
ENDBRANCH   7  13
BRANCH   9  14
ATOM     14  C   UNL     1      14.573  11.346  19.941  0.00  0.00    +0.103 C 
BRANCH  14  18
ATOM      1  O   UNL     1      13.986  13.640  20.438  0.00  0.00    -0.276 OA
ATOM      4  N   UNL     1      14.256  12.123  22.179  0.00  0.00    -0.314 N 
ATOM     18  C   UNL     1      14.237  12.509  20.847  0.00  0.00    +0.214 C 
ATOM     31  H   UNL     1      14.469  11.159  22.414  0.00  0.00    +0.149 HD
BRANCH   4  20
ATOM     20  C   UNL     1      13.975  13.032  23.267  0.00  0.00    +0.119 C 
BRANCH  20  22
ATOM     22  C   UNL     1      12.489  13.063  23.589  0.00  0.00    +0.102 C 
BRANCH  22   5
ATOM      5  N   UNL     1      12.280  12.994  25.030  0.00  0.00    -0.307 NA
ATOM     27  C   UNL     1      13.421  12.353  25.687  0.00  0.00    +0.104 C 
ATOM     28  C   UNL     1      11.046  12.269  25.338  0.00  0.00    +0.104 C 
ENDBRANCH  22   5
ENDBRANCH  20  22
ENDBRANCH   4  20
ENDBRANCH  14  18
ENDBRANCH   9  14
TORSDOF 9
ENDMDL
MODEL 7
REMARK VINA RESULT:      -5.9      3.718      7.465
REMARK  Name = 38027463
REMARK  14 active torsions:
REMARK  status: ('A' for Active; 'I' for Inactive)
REMARK    1  A    between atoms: N_3  and  C_13
REMARK    2  A    between atoms: N_4  and  C_20
REMARK    3  A    between atoms: N_5  and  C_22
REMARK    4  A    between atoms: N_5  and  C_27
REMARK    5  A    between atoms: N_5  and  C_28
REMARK    6  A    between atoms: C_6  and  C_10
REMARK    7  A    between atoms: C_7  and  C_13
REMARK    8  A    between atoms: C_9  and  C_14
REMARK    9  A    between atoms: C_10  and  C_15
REMARK   10  A    between atoms: C_10  and  C_16
REMARK   11  A    between atoms: C_11  and  C_17
REMARK   12  A    between atoms: C_14  and  C_18
REMARK   13  A    between atoms: C_19  and  C_21
REMARK   14  A    between atoms: C_20  and  C_22
REMARK                            x       y       z     vdW  Elec       q    Type
REMARK                         _______ _______ _______ _____ _____    ______ ____
ROOT
ATOM      6  C   UNL     1      -7.352 -11.720  17.169  0.00  0.00    +0.000 C 
ATOM      7  C   UNL     1      -7.436 -12.080  18.673  0.00  0.00    +0.032 C 
ATOM      8  C   UNL     1      -6.137 -12.401  16.520  0.00  0.00    +0.012 C 
ATOM      9  C   UNL     1      -4.814 -11.995  17.195  0.00  0.00    +0.023 C 
ATOM     11  C   UNL     1      -4.905 -12.068  18.705  0.00  0.00    -0.073 C 
ATOM     12  C   UNL     1      -6.085 -12.120  19.347  0.00  0.00    -0.022 C 
ATOM     17  C   UNL     1      -3.605 -12.129  19.460  0.00  0.00    +0.039 C 
ENDROOT
BRANCH   6  10
ATOM     10  C   UNL     1      -8.629 -12.112  16.417  0.00  0.00    -0.013 C 
ATOM     15  C   UNL     1      -8.820 -11.221  15.193  0.00  0.00    +0.007 C 
ATOM     16  C   UNL     1      -8.578 -13.582  16.014  0.00  0.00    +0.007 C 
ENDBRANCH   6  10
BRANCH   7  13
ATOM     13  C   UNL     1      -8.355 -11.108  19.423  0.00  0.00    +0.112 C 
BRANCH  13   3
ATOM      2  O   UNL     1     -11.083 -10.218  19.352  0.00  0.00    -0.270 OA
ATOM      3  N   UNL     1      -8.915 -10.146  18.528  0.00  0.00    -0.311 N 
ATOM     19  C   UNL     1     -10.257  -9.769  18.562  0.00  0.00    +0.244 C 
ATOM     30  H   UNL     1      -8.274  -9.663  17.907  0.00  0.00    +0.149 HD
BRANCH  19  21
ATOM     21  C   UNL     1     -10.690  -8.775  17.547  0.00  0.00    +0.037 A 
ATOM     23  C   UNL     1      -9.756  -7.923  16.961  0.00  0.00    +0.013 A 
ATOM     24  C   UNL     1     -12.034  -8.695  17.179  0.00  0.00    +0.013 A 
ATOM     25  C   UNL     1     -10.163  -6.990  16.006  0.00  0.00    +0.001 A 
ATOM     26  C   UNL     1     -12.442  -7.762  16.226  0.00  0.00    +0.001 A 
ATOM     29  C   UNL     1     -11.506  -6.910  15.640  0.00  0.00    +0.000 A 
ENDBRANCH  19  21
ENDBRANCH  13   3
ENDBRANCH   7  13
BRANCH   9  14
ATOM     14  C   UNL     1      -4.366 -10.602  16.739  0.00  0.00    +0.103 C 
BRANCH  14  18
ATOM      1  O   UNL     1      -1.966 -10.857  16.569  0.00  0.00    -0.276 OA
ATOM      4  N   UNL     1      -3.207 -10.395  14.658  0.00  0.00    -0.314 N 
ATOM     18  C   UNL     1      -3.040 -10.640  16.014  0.00  0.00    +0.214 C 
ATOM     31  H   UNL     1      -4.141 -10.234  14.294  0.00  0.00    +0.149 HD
BRANCH   4  20
ATOM     20  C   UNL     1      -2.108 -10.368  13.720  0.00  0.00    +0.119 C 
BRANCH  20  22
ATOM     22  C   UNL     1      -2.247 -11.466  12.677  0.00  0.00    +0.102 C 
BRANCH  22   5
ATOM      5  N   UNL     1      -3.216 -11.080  11.659  0.00  0.00    -0.307 NA
ATOM     27  C   UNL     1      -3.450 -12.183  10.725  0.00  0.00    +0.104 C 
ATOM     28  C   UNL     1      -2.758  -9.893  10.936  0.00  0.00    +0.104 C 
ENDBRANCH  22   5
ENDBRANCH  20  22
ENDBRANCH   4  20
ENDBRANCH  14  18
ENDBRANCH   9  14
TORSDOF 9
ENDMDL
MODEL 8
REMARK VINA RESULT:      -5.9     23.654     26.152
REMARK  Name = 38027463
REMARK  14 active torsions:
REMARK  status: ('A' for Active; 'I' for Inactive)
REMARK    1  A    between atoms: N_3  and  C_13
REMARK    2  A    between atoms: N_4  and  C_20
REMARK    3  A    between atoms: N_5  and  C_22
REMARK    4  A    between atoms: N_5  and  C_27
REMARK    5  A    between atoms: N_5  and  C_28
REMARK    6  A    between atoms: C_6  and  C_10
REMARK    7  A    between atoms: C_7  and  C_13
REMARK    8  A    between atoms: C_9  and  C_14
REMARK    9  A    between atoms: C_10  and  C_15
REMARK   10  A    between atoms: C_10  and  C_16
REMARK   11  A    between atoms: C_11  and  C_17
REMARK   12  A    between atoms: C_14  and  C_18
REMARK   13  A    between atoms: C_19  and  C_21
REMARK   14  A    between atoms: C_20  and  C_22
REMARK                            x       y       z     vdW  Elec       q    Type
REMARK                         _______ _______ _______ _____ _____    ______ ____
ROOT
ATOM      6  C   UNL     1       9.182   8.249   5.877  0.00  0.00    +0.000 C 
ATOM      7  C   UNL     1       8.855   8.280   7.391  0.00  0.00    +0.032 C 
ATOM      8  C   UNL     1       8.753   6.908   5.263  0.00  0.00    +0.012 C 
ATOM      9  C   UNL     1       9.447   5.710   5.937  0.00  0.00    +0.023 C 
ATOM     11  C   UNL     1       9.399   5.808   7.448  0.00  0.00    -0.073 C 
ATOM     12  C   UNL     1       9.119   6.962   8.080  0.00  0.00    -0.022 C 
ATOM     17  C   UNL     1       9.635   4.538   8.217  0.00  0.00    +0.039 C 
ENDROOT
BRANCH   6  10
ATOM     10  C   UNL     1       8.510   9.402   5.126  0.00  0.00    -0.013 C 
ATOM     15  C   UNL     1       9.559  10.284   4.455  0.00  0.00    +0.007 C 
ATOM     16  C   UNL     1       7.520   8.862   4.099  0.00  0.00    +0.007 C 
ENDBRANCH   6  10
BRANCH   7  13
ATOM     13  C   UNL     1       9.633   9.394   8.102  0.00  0.00    +0.112 C 
BRANCH  13   3
ATOM      2  O   UNL     1      11.269  11.636   7.368  0.00  0.00    -0.270 OA
ATOM      3  N   UNL     1      11.015   9.359   7.739  0.00  0.00    -0.311 N 
ATOM     19  C   UNL     1      11.737  10.500   7.394  0.00  0.00    +0.244 C 
ATOM     30  H   UNL     1      11.494   8.469   7.827  0.00  0.00    +0.149 HD
BRANCH  19  21
ATOM     21  C   UNL     1      13.159  10.294   7.017  0.00  0.00    +0.037 A 
ATOM     23  C   UNL     1      13.600   9.031   6.622  0.00  0.00    +0.013 A 
ATOM     24  C   UNL     1      14.053  11.364   7.057  0.00  0.00    +0.013 A 
ATOM     25  C   UNL     1      14.935   8.838   6.266  0.00  0.00    +0.001 A 
ATOM     26  C   UNL     1      15.388  11.171   6.702  0.00  0.00    +0.001 A 
ATOM     29  C   UNL     1      15.829   9.907   6.307  0.00  0.00    +0.000 A 
ENDBRANCH  19  21
ENDBRANCH  13   3
ENDBRANCH   7  13
BRANCH   9  14
ATOM     14  C   UNL     1      10.890   5.557   5.443  0.00  0.00    +0.103 C 
BRANCH  14  18
ATOM      1  O   UNL     1      10.182   4.516   3.377  0.00  0.00    -0.276 OA
ATOM      4  N   UNL     1      11.998   5.968   3.364  0.00  0.00    -0.314 N 
ATOM     18  C   UNL     1      10.956   5.271   3.960  0.00  0.00    +0.214 C 
ATOM     31  H   UNL     1      12.579   6.575   3.934  0.00  0.00    +0.149 HD
BRANCH   4  20
ATOM     20  C   UNL     1      12.299   5.883   1.954  0.00  0.00    +0.119 C 
BRANCH  20  22
ATOM     22  C   UNL     1      13.739   5.453   1.723  0.00  0.00    +0.102 C 
BRANCH  22   5
ATOM      5  N   UNL     1      13.849   4.000   1.773  0.00  0.00    -0.307 NA
ATOM     27  C   UNL     1      15.188   3.569   1.367  0.00  0.00    +0.104 C 
ATOM     28  C   UNL     1      12.836   3.376   0.920  0.00  0.00    +0.104 C 
ENDBRANCH  22   5
ENDBRANCH  20  22
ENDBRANCH   4  20
ENDBRANCH  14  18
ENDBRANCH   9  14
TORSDOF 9
ENDMDL
MODEL 9
REMARK VINA RESULT:      -5.7      3.760      6.554
REMARK  Name = 38027463
REMARK  14 active torsions:
REMARK  status: ('A' for Active; 'I' for Inactive)
REMARK    1  A    between atoms: N_3  and  C_13
REMARK    2  A    between atoms: N_4  and  C_20
REMARK    3  A    between atoms: N_5  and  C_22
REMARK    4  A    between atoms: N_5  and  C_27
REMARK    5  A    between atoms: N_5  and  C_28
REMARK    6  A    between atoms: C_6  and  C_10
REMARK    7  A    between atoms: C_7  and  C_13
REMARK    8  A    between atoms: C_9  and  C_14
REMARK    9  A    between atoms: C_10  and  C_15
REMARK   10  A    between atoms: C_10  and  C_16
REMARK   11  A    between atoms: C_11  and  C_17
REMARK   12  A    between atoms: C_14  and  C_18
REMARK   13  A    between atoms: C_19  and  C_21
REMARK   14  A    between atoms: C_20  and  C_22
REMARK                            x       y       z     vdW  Elec       q    Type
REMARK                         _______ _______ _______ _____ _____    ______ ____
ROOT
ATOM      6  C   UNL     1      -5.732 -11.535  17.482  0.00  0.00    +0.000 C 
ATOM      7  C   UNL     1      -7.175 -11.105  17.118  0.00  0.00    +0.032 C 
ATOM      8  C   UNL     1      -4.715 -10.525  16.928  0.00  0.00    +0.012 C 
ATOM      9  C   UNL     1      -4.811 -10.383  15.397  0.00  0.00    +0.023 C 
ATOM     11  C   UNL     1      -6.244 -10.222  14.935  0.00  0.00    -0.073 C 
ATOM     12  C   UNL     1      -7.288 -10.537  15.723  0.00  0.00    -0.022 C 
ATOM     17  C   UNL     1      -6.452  -9.647  13.561  0.00  0.00    +0.039 C 
ENDROOT
BRANCH   6  10
ATOM     10  C   UNL     1      -5.546 -11.680  18.996  0.00  0.00    -0.013 C 
ATOM     15  C   UNL     1      -4.078 -11.931  19.330  0.00  0.00    +0.007 C 
ATOM     16  C   UNL     1      -6.061 -10.438  19.716  0.00  0.00    +0.007 C 
ENDBRANCH   6  10
BRANCH   7  13
ATOM     13  C   UNL     1      -8.156 -12.272  17.276  0.00  0.00    +0.112 C 
BRANCH  13   3
ATOM      2  O   UNL     1      -8.729 -12.800  20.039  0.00  0.00    -0.270 OA
ATOM      3  N   UNL     1      -9.318 -11.863  18.000  0.00  0.00    -0.311 N 
ATOM     19  C   UNL     1      -9.518 -12.163  19.347  0.00  0.00    +0.244 C 
ATOM     30  H   UNL     1      -9.972 -11.254  17.519  0.00  0.00    +0.149 HD
BRANCH  19  21
ATOM     21  C   UNL     1     -10.790 -11.687  19.948  0.00  0.00    +0.037 A 
ATOM     23  C   UNL     1     -11.138 -10.340  19.870  0.00  0.00    +0.013 A 
ATOM     24  C   UNL     1     -11.637 -12.591  20.592  0.00  0.00    +0.013 A 
ATOM     25  C   UNL     1     -12.334  -9.894  20.434  0.00  0.00    +0.001 A 
ATOM     26  C   UNL     1     -12.832 -12.145  21.156  0.00  0.00    +0.001 A 
ATOM     29  C   UNL     1     -13.181 -10.797  21.078  0.00  0.00    +0.000 A 
ENDBRANCH  19  21
ENDBRANCH  13   3
ENDBRANCH   7  13
BRANCH   9  14
ATOM     14  C   UNL     1      -4.134 -11.562  14.689  0.00  0.00    +0.103 C 
BRANCH  14  18
ATOM      1  O   UNL     1      -1.776 -11.050  14.505  0.00  0.00    -0.276 OA
ATOM      4  N   UNL     1      -3.136 -10.883  12.626  0.00  0.00    -0.314 N 
ATOM     18  C   UNL     1      -2.875 -11.144  13.964  0.00  0.00    +0.214 C 
ATOM     31  H   UNL     1      -4.080 -10.998  12.272  0.00  0.00    +0.149 HD
BRANCH   4  20
ATOM     20  C   UNL     1      -2.117 -10.461  11.692  0.00  0.00    +0.119 C 
BRANCH  20  22
ATOM     22  C   UNL     1      -2.673  -9.470  10.681  0.00  0.00    +0.102 C 
BRANCH  22   5
ATOM      5  N   UNL     1      -4.092  -9.718  10.456  0.00  0.00    -0.307 NA
ATOM     27  C   UNL     1      -4.292 -10.495   9.231  0.00  0.00    +0.104 C 
ATOM     28  C   UNL     1      -4.830  -8.456  10.381  0.00  0.00    +0.104 C 
ENDBRANCH  22   5
ENDBRANCH  20  22
ENDBRANCH   4  20
ENDBRANCH  14  18
ENDBRANCH   9  14
TORSDOF 9
ENDMDL
MODEL 10
REMARK VINA RESULT:      -5.6      1.996      8.722
REMARK  Name = 38027463
REMARK  14 active torsions:
REMARK  status: ('A' for Active; 'I' for Inactive)
REMARK    1  A    between atoms: N_3  and  C_13
REMARK    2  A    between atoms: N_4  and  C_20
REMARK    3  A    between atoms: N_5  and  C_22
REMARK    4  A    between atoms: N_5  and  C_27
REMARK    5  A    between atoms: N_5  and  C_28
REMARK    6  A    between atoms: C_6  and  C_10
REMARK    7  A    between atoms: C_7  and  C_13
REMARK    8  A    between atoms: C_9  and  C_14
REMARK    9  A    between atoms: C_10  and  C_15
REMARK   10  A    between atoms: C_10  and  C_16
REMARK   11  A    between atoms: C_11  and  C_17
REMARK   12  A    between atoms: C_14  and  C_18
REMARK   13  A    between atoms: C_19  and  C_21
REMARK   14  A    between atoms: C_20  and  C_22
REMARK                            x       y       z     vdW  Elec       q    Type
REMARK                         _______ _______ _______ _____ _____    ______ ____
ROOT
ATOM      6  C   UNL     1      -5.222 -10.485  10.463  0.00  0.00    +0.000 C 
ATOM      7  C   UNL     1      -4.699  -9.431   9.456  0.00  0.00    +0.032 C 
ATOM      8  C   UNL     1      -4.678 -10.199  11.872  0.00  0.00    +0.012 C 
ATOM      9  C   UNL     1      -3.139 -10.206  11.913  0.00  0.00    +0.023 C 
ATOM     11  C   UNL     1      -2.540  -9.399  10.779  0.00  0.00    -0.073 C 
ATOM     12  C   UNL     1      -3.257  -9.050   9.696  0.00  0.00    -0.022 C 
ATOM     17  C   UNL     1      -1.111  -8.961  10.940  0.00  0.00    +0.039 C 
ENDROOT
BRANCH   6  10
ATOM     10  C   UNL     1      -6.753 -10.527  10.498  0.00  0.00    -0.013 C 
ATOM     15  C   UNL     1      -7.234 -11.771  11.240  0.00  0.00    +0.007 C 
ATOM     16  C   UNL     1      -7.306  -9.263  11.147  0.00  0.00    +0.007 C 
ENDBRANCH   6  10
BRANCH   7  13
ATOM     13  C   UNL     1      -4.867  -9.916   8.011  0.00  0.00    +0.112 C 
BRANCH  13   3
ATOM      2  O   UNL     1      -6.102 -10.595   5.511  0.00  0.00    -0.270 OA
ATOM      3  N   UNL     1      -5.912  -9.197   7.354  0.00  0.00    -0.311 N 
ATOM     19  C   UNL     1      -6.458  -9.598   6.135  0.00  0.00    +0.244 C 
ATOM     30  H   UNL     1      -6.321  -8.414   7.853  0.00  0.00    +0.149 HD
BRANCH  19  21
ATOM     21  C   UNL     1      -7.521  -8.729   5.569  0.00  0.00    +0.037 A 
ATOM     23  C   UNL     1      -8.379  -8.032   6.419  0.00  0.00    +0.013 A 
ATOM     24  C   UNL     1      -7.661  -8.609   4.186  0.00  0.00    +0.013 A 
ATOM     25  C   UNL     1      -9.377  -7.214   5.886  0.00  0.00    +0.001 A 
ATOM     26  C   UNL     1      -8.658  -7.793   3.654  0.00  0.00    +0.001 A 
ATOM     29  C   UNL     1      -9.516  -7.096   4.504  0.00  0.00    +0.000 A 
ENDBRANCH  19  21
ENDBRANCH  13   3
ENDBRANCH   7  13
BRANCH   9  14
ATOM     14  C   UNL     1      -2.593 -11.638  11.914  0.00  0.00    +0.103 C 
BRANCH  14  18
ATOM      1  O   UNL     1      -2.451 -13.349  13.620  0.00  0.00    -0.276 OA
ATOM      4  N   UNL     1      -2.076 -11.127  14.192  0.00  0.00    -0.314 N 
ATOM     18  C   UNL     1      -2.372 -12.161  13.316  0.00  0.00    +0.214 C 
ATOM     31  H   UNL     1      -2.027 -10.176  13.839  0.00  0.00    +0.149 HD
BRANCH   4  20
ATOM     20  C   UNL     1      -1.821 -11.333  15.599  0.00  0.00    +0.119 C 
BRANCH  20  22
ATOM     22  C   UNL     1      -2.850 -10.615  16.457  0.00  0.00    +0.102 C 
BRANCH  22   5
ATOM      5  N   UNL     1      -4.190 -11.106  16.159  0.00  0.00    -0.307 NA
ATOM     27  C   UNL     1      -5.174 -10.029  16.285  0.00  0.00    +0.104 C 
ATOM     28  C   UNL     1      -4.541 -12.217  17.045  0.00  0.00    +0.104 C 
ENDBRANCH  22   5
ENDBRANCH  20  22
ENDBRANCH   4  20
ENDBRANCH  14  18
ENDBRANCH   9  14
TORSDOF 9
ENDMDL
