MODEL 1
REMARK VINA RESULT:      -6.5      0.000      0.000
REMARK  Name = 45361282
REMARK  9 active torsions:
REMARK  status: ('A' for Active; 'I' for Inactive)
REMARK    1  A    between atoms: O_2  and  C_11
REMARK    2  A    between atoms: O_3  and  C_18
REMARK    3  A    between atoms: N_5  and  C_9
REMARK    4  A    between atoms: N_6  and  C_19
REMARK    5  A    between atoms: N_7  and  C_15
REMARK    6  A    between atoms: N_8  and  C_30
REMARK    7  A    between atoms: C_10  and  C_15
REMARK    8  A    between atoms: C_12  and  C_18
REMARK    9  A    between atoms: C_20  and  C_23
REMARK                            x       y       z     vdW  Elec       q    Type
REMARK                         _______ _______ _______ _____ _____    ______ ____
ROOT
ATOM      1  O   UNL     1     -10.286 -11.617  17.541  0.00  0.00    -0.365 OA
ATOM      9  C   UNL     1     -11.504  -9.728  16.754  0.00  0.00    +0.118 C 
ATOM     10  C   UNL     1     -10.636 -10.919  16.325  0.00  0.00    +0.155 C 
ATOM     11  C   UNL     1     -11.048  -9.469  18.181  0.00  0.00    +0.165 C 
ATOM     12  C   UNL     1     -10.821 -10.895  18.667  0.00  0.00    +0.174 C 
ENDROOT
BRANCH   9   5
ATOM      5  N   UNL     1     -11.484  -8.571  15.876  0.00  0.00    -0.292 NA
ATOM      6  N   UNL     1     -12.612  -6.436  14.350  0.00  0.00    -0.327 N 
ATOM     13  C   UNL     1     -12.217  -8.852  14.636  0.00  0.00    +0.104 C 
ATOM     14  C   UNL     1     -12.069  -7.404  16.548  0.00  0.00    +0.104 C 
ATOM     16  C   UNL     1     -12.155  -7.659  13.679  0.00  0.00    +0.120 C 
ATOM     17  C   UNL     1     -12.003  -6.164  15.655  0.00  0.00    +0.120 C 
BRANCH   6  19
ATOM     19  C   UNL     1     -13.049  -5.373  13.552  0.00  0.00    +0.030 A 
ATOM     21  C   UNL     1     -14.411  -5.090  13.451  0.00  0.00    +0.023 A 
ATOM     22  C   UNL     1     -12.123  -4.595  12.858  0.00  0.00    +0.023 A 
ATOM     24  C   UNL     1     -14.847  -4.031  12.655  0.00  0.00    +0.002 A 
ATOM     25  C   UNL     1     -12.558  -3.535  12.063  0.00  0.00    +0.002 A 
ATOM     26  C   UNL     1     -13.920  -3.253  11.961  0.00  0.00    +0.000 A 
ENDBRANCH   6  19
ENDBRANCH   9   5
BRANCH  11   2
ATOM      2  O   UNL     1      -9.832  -8.734  18.214  0.00  0.00    -0.388 OA
ATOM     31  H   UNL     1      -9.793  -8.191  17.409  0.00  0.00    +0.210 HD
ENDBRANCH  11   2
BRANCH  10  15
ATOM     15  C   UNL     1      -9.334 -10.591  15.602  0.00  0.00    +0.137 C 
BRANCH  15   7
ATOM      4  O   UNL     1      -7.325  -8.923  16.796  0.00  0.00    -0.269 OA
ATOM      7  N   UNL     1      -8.200 -11.027  16.361  0.00  0.00    -0.308 N 
ATOM     20  C   UNL     1      -7.271 -10.145  16.906  0.00  0.00    +0.261 C 
ATOM     32  H   UNL     1      -8.082 -12.026  16.498  0.00  0.00    +0.149 HD
BRANCH  20  23
ATOM      8  N   UNL     1      -4.888 -10.965  17.119  0.00  0.00    -0.346 N 
ATOM     23  C   UNL     1      -6.136 -10.758  17.644  0.00  0.00    +0.104 A 
ATOM     27  C   UNL     1      -6.128 -11.211  18.945  0.00  0.00    +0.032 A 
ATOM     28  C   UNL     1      -4.082 -11.544  18.064  0.00  0.00    +0.086 A 
ATOM     29  C   UNL     1      -4.828 -11.709  19.211  0.00  0.00    +0.020 A 
ATOM     30  C   UNL     1      -4.467 -10.631  15.776  0.00  0.00    +0.149 C 
ENDBRANCH  20  23
ENDBRANCH  15   7
ENDBRANCH  10  15
BRANCH  12  18
ATOM     18  C   UNL     1      -9.878 -11.039  19.848  0.00  0.00    +0.190 C 
BRANCH  18   3
ATOM      3  O   UNL     1     -10.201 -10.054  20.816  0.00  0.00    -0.392 OA
ATOM     33  H   UNL     1     -10.054  -9.186  20.403  0.00  0.00    +0.210 HD
ENDBRANCH  18   3
ENDBRANCH  12  18
TORSDOF 8
ENDMDL
MODEL 2
REMARK VINA RESULT:      -6.3     29.819     34.179
REMARK  Name = 45361282
REMARK  9 active torsions:
REMARK  status: ('A' for Active; 'I' for Inactive)
REMARK    1  A    between atoms: O_2  and  C_11
REMARK    2  A    between atoms: O_3  and  C_18
REMARK    3  A    between atoms: N_5  and  C_9
REMARK    4  A    between atoms: N_6  and  C_19
REMARK    5  A    between atoms: N_7  and  C_15
REMARK    6  A    between atoms: N_8  and  C_30
REMARK    7  A    between atoms: C_10  and  C_15
REMARK    8  A    between atoms: C_12  and  C_18
REMARK    9  A    between atoms: C_20  and  C_23
REMARK                            x       y       z     vdW  Elec       q    Type
REMARK                         _______ _______ _______ _____ _____    ______ ____
ROOT
ATOM      1  O   UNL     1      18.090   8.736  20.841  0.00  0.00    -0.365 OA
ATOM      9  C   UNL     1      19.993   7.339  21.144  0.00  0.00    +0.118 C 
ATOM     10  C   UNL     1      18.530   7.369  20.684  0.00  0.00    +0.155 C 
ATOM     11  C   UNL     1      20.071   8.506  22.116  0.00  0.00    +0.165 C 
ATOM     12  C   UNL     1      19.157   9.509  21.424  0.00  0.00    +0.174 C 
ENDROOT
BRANCH   9   5
ATOM      5  N   UNL     1      20.478   6.069  21.658  0.00  0.00    -0.292 NA
ATOM      6  N   UNL     1      22.334   3.922  21.972  0.00  0.00    -0.327 N 
ATOM     13  C   UNL     1      20.711   5.124  20.560  0.00  0.00    +0.104 C 
ATOM     14  C   UNL     1      21.716   6.263  22.422  0.00  0.00    +0.104 C 
ATOM     16  C   UNL     1      21.169   3.765  21.093  0.00  0.00    +0.120 C 
ATOM     17  C   UNL     1      22.208   4.941  23.017  0.00  0.00    +0.120 C 
BRANCH   6  19
ATOM     19  C   UNL     1      23.151   2.805  22.185  0.00  0.00    +0.030 A 
ATOM     21  C   UNL     1      23.791   2.194  21.107  0.00  0.00    +0.023 A 
ATOM     22  C   UNL     1      23.327   2.306  23.475  0.00  0.00    +0.023 A 
ATOM     24  C   UNL     1      24.605   1.081  21.320  0.00  0.00    +0.002 A 
ATOM     25  C   UNL     1      24.141   1.194  23.688  0.00  0.00    +0.002 A 
ATOM     26  C   UNL     1      24.781   0.581  22.611  0.00  0.00    +0.000 A 
ENDBRANCH   6  19
ENDBRANCH   9   5
BRANCH  11   2
ATOM      2  O   UNL     1      19.548   8.156  23.391  0.00  0.00    -0.388 OA
ATOM     31  H   UNL     1      19.479   7.187  23.426  0.00  0.00    +0.210 HD
ENDBRANCH  11   2
BRANCH  10  15
ATOM     15  C   UNL     1      17.553   6.489  21.455  0.00  0.00    +0.137 C 
BRANCH  15   7
ATOM      4  O   UNL     1      15.715   6.022  19.300  0.00  0.00    -0.269 OA
ATOM      7  N   UNL     1      16.214   6.988  21.348  0.00  0.00    -0.308 N 
ATOM     20  C   UNL     1      15.388   6.711  20.262  0.00  0.00    +0.261 C 
ATOM     32  H   UNL     1      15.866   7.569  22.106  0.00  0.00    +0.149 HD
BRANCH  20  23
ATOM      8  N   UNL     1      13.711   8.518  19.696  0.00  0.00    -0.346 N 
ATOM     23  C   UNL     1      14.036   7.326  20.290  0.00  0.00    +0.104 A 
ATOM     27  C   UNL     1      12.901   6.831  20.892  0.00  0.00    +0.032 A 
ATOM     28  C   UNL     1      12.385   8.790  19.909  0.00  0.00    +0.086 A 
ATOM     29  C   UNL     1      11.855   7.757  20.651  0.00  0.00    +0.020 A 
ATOM     30  C   UNL     1      14.615   9.370  18.955  0.00  0.00    +0.149 C 
ENDBRANCH  20  23
ENDBRANCH  15   7
ENDBRANCH  10  15
BRANCH  12  18
ATOM     18  C   UNL     1      18.566  10.581  22.323  0.00  0.00    +0.190 C 
BRANCH  18   3
ATOM      3  O   UNL     1      17.222  10.238  22.623  0.00  0.00    -0.392 OA
ATOM     33  H   UNL     1      16.819   9.912  21.800  0.00  0.00    +0.210 HD
ENDBRANCH  18   3
ENDBRANCH  12  18
TORSDOF 8
ENDMDL
MODEL 3
REMARK VINA RESULT:      -6.0      7.144     11.698
REMARK  Name = 45361282
REMARK  9 active torsions:
REMARK  status: ('A' for Active; 'I' for Inactive)
REMARK    1  A    between atoms: O_2  and  C_11
REMARK    2  A    between atoms: O_3  and  C_18
REMARK    3  A    between atoms: N_5  and  C_9
REMARK    4  A    between atoms: N_6  and  C_19
REMARK    5  A    between atoms: N_7  and  C_15
REMARK    6  A    between atoms: N_8  and  C_30
REMARK    7  A    between atoms: C_10  and  C_15
REMARK    8  A    between atoms: C_12  and  C_18
REMARK    9  A    between atoms: C_20  and  C_23
REMARK                            x       y       z     vdW  Elec       q    Type
REMARK                         _______ _______ _______ _____ _____    ______ ____
ROOT
ATOM      1  O   UNL     1      -9.662  -7.936   5.894  0.00  0.00    -0.365 OA
ATOM      9  C   UNL     1      -7.957  -9.035   7.141  0.00  0.00    +0.118 C 
ATOM     10  C   UNL     1      -9.046  -7.955   7.201  0.00  0.00    +0.155 C 
ATOM     11  C   UNL     1      -7.605  -9.084   5.662  0.00  0.00    +0.165 C 
ATOM     12  C   UNL     1      -8.979  -8.873   5.039  0.00  0.00    +0.174 C 
ENDROOT
BRANCH   9   5
ATOM      5  N   UNL     1      -6.831  -8.862   8.041  0.00  0.00    -0.292 NA
ATOM      6  N   UNL     1      -4.954  -9.640  10.048  0.00  0.00    -0.327 N 
ATOM     13  C   UNL     1      -7.259  -9.017   9.437  0.00  0.00    +0.104 C 
ATOM     14  C   UNL     1      -5.772  -9.830   7.733  0.00  0.00    +0.104 C 
ATOM     16  C   UNL     1      -6.092  -8.780  10.398  0.00  0.00    +0.120 C 
ATOM     17  C   UNL     1      -4.555  -9.621   8.638  0.00  0.00    +0.120 C 
BRANCH   6  19
ATOM     19  C   UNL     1      -3.998  -9.899  11.037  0.00  0.00    +0.030 A 
ATOM     21  C   UNL     1      -2.643  -9.709  10.764  0.00  0.00    +0.023 A 
ATOM     22  C   UNL     1      -4.399 -10.346  12.296  0.00  0.00    +0.023 A 
ATOM     24  C   UNL     1      -1.691  -9.968  11.750  0.00  0.00    +0.002 A 
ATOM     25  C   UNL     1      -3.447 -10.604  13.281  0.00  0.00    +0.002 A 
ATOM     26  C   UNL     1      -2.092 -10.416  13.009  0.00  0.00    +0.000 A 
ENDBRANCH   6  19
ENDBRANCH   9   5
BRANCH  11   2
ATOM      2  O   UNL     1      -6.728  -8.026   5.300  0.00  0.00    -0.388 OA
ATOM     31  H   UNL     1      -7.076  -7.208   5.694  0.00  0.00    +0.210 HD
ENDBRANCH  11   2
BRANCH  10  15
ATOM     15  C   UNL     1      -8.582  -6.534   7.502  0.00  0.00    +0.137 C 
BRANCH  15   7
ATOM      4  O   UNL     1     -11.361  -5.815   7.464  0.00  0.00    -0.269 OA
ATOM      7  N   UNL     1      -9.335  -5.965   8.581  0.00  0.00    -0.308 N 
ATOM     20  C   UNL     1     -10.685  -5.645   8.474  0.00  0.00    +0.261 C 
ATOM     32  H   UNL     1      -8.847  -5.793   9.455  0.00  0.00    +0.149 HD
BRANCH  20  23
ATOM      8  N   UNL     1     -11.922  -5.746  10.679  0.00  0.00    -0.346 N 
ATOM     23  C   UNL     1     -11.314  -5.037   9.675  0.00  0.00    +0.104 A 
ATOM     27  C   UNL     1     -11.398  -3.700   9.993  0.00  0.00    +0.032 A 
ATOM     28  C   UNL     1     -12.391  -4.882  11.632  0.00  0.00    +0.086 A 
ATOM     29  C   UNL     1     -12.080  -3.601  11.231  0.00  0.00    +0.020 A 
ATOM     30  C   UNL     1     -12.055  -7.185  10.739  0.00  0.00    +0.149 C 
ENDBRANCH  20  23
ENDBRANCH  15   7
ENDBRANCH  10  15
BRANCH  12  18
ATOM     18  C   UNL     1      -8.976  -8.342   3.616  0.00  0.00    +0.190 C 
BRANCH  18   3
ATOM      3  O   UNL     1      -8.742  -6.943   3.649  0.00  0.00    -0.392 OA
ATOM     33  H   UNL     1      -9.491  -6.516   3.199  0.00  0.00    +0.210 HD
ENDBRANCH  18   3
ENDBRANCH  12  18
TORSDOF 8
ENDMDL
MODEL 4
REMARK VINA RESULT:      -6.0      4.559      6.960
REMARK  Name = 45361282
REMARK  9 active torsions:
REMARK  status: ('A' for Active; 'I' for Inactive)
REMARK    1  A    between atoms: O_2  and  C_11
REMARK    2  A    between atoms: O_3  and  C_18
REMARK    3  A    between atoms: N_5  and  C_9
REMARK    4  A    between atoms: N_6  and  C_19
REMARK    5  A    between atoms: N_7  and  C_15
REMARK    6  A    between atoms: N_8  and  C_30
REMARK    7  A    between atoms: C_10  and  C_15
REMARK    8  A    between atoms: C_12  and  C_18
REMARK    9  A    between atoms: C_20  and  C_23
REMARK                            x       y       z     vdW  Elec       q    Type
REMARK                         _______ _______ _______ _____ _____    ______ ____
ROOT
ATOM      1  O   UNL     1      -3.920 -12.283  15.835  0.00  0.00    -0.365 OA
ATOM      9  C   UNL     1      -5.771 -11.595  17.164  0.00  0.00    +0.118 C 
ATOM     10  C   UNL     1      -5.334 -12.514  16.015  0.00  0.00    +0.155 C 
ATOM     11  C   UNL     1      -4.750 -10.470  17.110  0.00  0.00    +0.165 C 
ATOM     12  C   UNL     1      -3.493 -11.248  16.742  0.00  0.00    +0.174 C 
ENDROOT
BRANCH   9   5
ATOM      5  N   UNL     1      -7.161 -11.173  17.155  0.00  0.00    -0.292 NA
ATOM      6  N   UNL     1      -9.699 -10.534  18.299  0.00  0.00    -0.327 N 
ATOM     13  C   UNL     1      -8.025 -12.235  17.684  0.00  0.00    +0.104 C 
ATOM     14  C   UNL     1      -7.332  -9.949  17.947  0.00  0.00    +0.104 C 
ATOM     16  C   UNL     1      -9.498 -11.823  17.628  0.00  0.00    +0.120 C 
ATOM     17  C   UNL     1      -8.782  -9.461  17.900  0.00  0.00    +0.120 C 
BRANCH   6  19
ATOM     19  C   UNL     1     -10.988 -10.216  18.741  0.00  0.00    +0.030 A 
ATOM     21  C   UNL     1     -11.275 -10.206  20.106  0.00  0.00    +0.023 A 
ATOM     22  C   UNL     1     -11.986  -9.909  17.817  0.00  0.00    +0.023 A 
ATOM     24  C   UNL     1     -12.560  -9.890  20.546  0.00  0.00    +0.002 A 
ATOM     25  C   UNL     1     -13.271  -9.592  18.257  0.00  0.00    +0.002 A 
ATOM     26  C   UNL     1     -13.559  -9.583  19.622  0.00  0.00    +0.000 A 
ENDBRANCH   6  19
ENDBRANCH   9   5
BRANCH  11   2
ATOM      2  O   UNL     1      -5.066  -9.529  16.092  0.00  0.00    -0.388 OA
ATOM     31  H   UNL     1      -5.728  -8.915  16.454  0.00  0.00    +0.210 HD
ENDBRANCH  11   2
BRANCH  10  15
ATOM     15  C   UNL     1      -6.005 -12.284  14.665  0.00  0.00    +0.137 C 
BRANCH  15   7
ATOM      4  O   UNL     1      -6.062  -9.714  13.387  0.00  0.00    -0.269 OA
ATOM      7  N   UNL     1      -5.067 -11.785  13.702  0.00  0.00    -0.308 N 
ATOM     20  C   UNL     1      -5.172 -10.521  13.131  0.00  0.00    +0.261 C 
ATOM     32  H   UNL     1      -4.298 -12.393  13.436  0.00  0.00    +0.149 HD
BRANCH  20  23
ATOM      8  N   UNL     1      -4.398  -9.695  10.869  0.00  0.00    -0.346 N 
ATOM     23  C   UNL     1      -4.135 -10.163  12.130  0.00  0.00    +0.104 A 
ATOM     27  C   UNL     1      -2.767 -10.230  12.277  0.00  0.00    +0.032 A 
ATOM     28  C   UNL     1      -3.220  -9.462  10.210  0.00  0.00    +0.086 A 
ATOM     29  C   UNL     1      -2.187  -9.787  11.063  0.00  0.00    +0.020 A 
ATOM     30  C   UNL     1      -5.711  -9.475  10.304  0.00  0.00    +0.149 C 
ENDBRANCH  20  23
ENDBRANCH  15   7
ENDBRANCH  10  15
BRANCH  12  18
ATOM     18  C   UNL     1      -2.389 -10.435  16.090  0.00  0.00    +0.190 C 
BRANCH  18   3
ATOM      3  O   UNL     1      -1.141 -11.046  16.373  0.00  0.00    -0.392 OA
ATOM     33  H   UNL     1      -0.644 -11.083  15.538  0.00  0.00    +0.210 HD
ENDBRANCH  18   3
ENDBRANCH  12  18
TORSDOF 8
ENDMDL
MODEL 5
REMARK VINA RESULT:      -5.8      3.241      5.760
REMARK  Name = 45361282
REMARK  9 active torsions:
REMARK  status: ('A' for Active; 'I' for Inactive)
REMARK    1  A    between atoms: O_2  and  C_11
REMARK    2  A    between atoms: O_3  and  C_18
REMARK    3  A    between atoms: N_5  and  C_9
REMARK    4  A    between atoms: N_6  and  C_19
REMARK    5  A    between atoms: N_7  and  C_15
REMARK    6  A    between atoms: N_8  and  C_30
REMARK    7  A    between atoms: C_10  and  C_15
REMARK    8  A    between atoms: C_12  and  C_18
REMARK    9  A    between atoms: C_20  and  C_23
REMARK                            x       y       z     vdW  Elec       q    Type
REMARK                         _______ _______ _______ _____ _____    ______ ____
ROOT
ATOM      1  O   UNL     1      -4.008 -12.512  17.264  0.00  0.00    -0.365 OA
ATOM      9  C   UNL     1      -6.177 -11.561  17.018  0.00  0.00    +0.118 C 
ATOM     10  C   UNL     1      -4.834 -11.802  16.316  0.00  0.00    +0.155 C 
ATOM     11  C   UNL     1      -5.798 -11.567  18.491  0.00  0.00    +0.165 C 
ATOM     12  C   UNL     1      -4.731 -12.654  18.503  0.00  0.00    +0.174 C 
ENDROOT
BRANCH   9   5
ATOM      5  N   UNL     1      -6.934 -10.403  16.577  0.00  0.00    -0.292 NA
ATOM      6  N   UNL     1      -9.285  -8.925  15.909  0.00  0.00    -0.327 N 
ATOM     13  C   UNL     1      -7.683 -10.714  15.353  0.00  0.00    +0.104 C 
ATOM     14  C   UNL     1      -7.857  -9.960  17.628  0.00  0.00    +0.104 C 
ATOM     16  C   UNL     1      -8.441  -9.484  14.846  0.00  0.00    +0.120 C 
ATOM     17  C   UNL     1      -8.621  -8.706  17.197  0.00  0.00    +0.120 C 
BRANCH   6  19
ATOM     19  C   UNL     1     -10.360  -8.111  15.534  0.00  0.00    +0.030 A 
ATOM     21  C   UNL     1     -10.670  -6.976  16.284  0.00  0.00    +0.023 A 
ATOM     22  C   UNL     1     -11.121  -8.433  14.411  0.00  0.00    +0.023 A 
ATOM     24  C   UNL     1     -11.742  -6.165  15.910  0.00  0.00    +0.002 A 
ATOM     25  C   UNL     1     -12.192  -7.622  14.037  0.00  0.00    +0.002 A 
ATOM     26  C   UNL     1     -12.503  -6.488  14.787  0.00  0.00    +0.000 A 
ENDBRANCH   6  19
ENDBRANCH   9   5
BRANCH  11   2
ATOM      2  O   UNL     1      -5.242 -10.321  18.890  0.00  0.00    -0.388 OA
ATOM     31  H   UNL     1      -5.483  -9.662  18.218  0.00  0.00    +0.210 HD
ENDBRANCH  11   2
BRANCH  10  15
ATOM     15  C   UNL     1      -4.059 -10.563  15.881  0.00  0.00    +0.137 C 
BRANCH  15   7
ATOM      4  O   UNL     1      -2.679 -11.905  13.751  0.00  0.00    -0.269 OA
ATOM      7  N   UNL     1      -4.214 -10.325  14.477  0.00  0.00    -0.308 N 
ATOM     20  C   UNL     1      -3.500 -11.025  13.508  0.00  0.00    +0.261 C 
ATOM     32  H   UNL     1      -4.877  -9.610  14.191  0.00  0.00    +0.149 HD
BRANCH  20  23
ATOM      8  N   UNL     1      -4.888 -10.966  11.394  0.00  0.00    -0.346 N 
ATOM     23  C   UNL     1      -3.757 -10.641  12.096  0.00  0.00    +0.104 A 
ATOM     27  C   UNL     1      -2.938  -9.911  11.262  0.00  0.00    +0.032 A 
ATOM     28  C   UNL     1      -4.804 -10.454  10.125  0.00  0.00    +0.086 A 
ATOM     29  C   UNL     1      -3.600  -9.793  10.015  0.00  0.00    +0.020 A 
ATOM     30  C   UNL     1      -6.008 -11.729  11.898  0.00  0.00    +0.149 C 
ENDBRANCH  20  23
ENDBRANCH  15   7
ENDBRANCH  10  15
BRANCH  12  18
ATOM     18  C   UNL     1      -3.752 -12.595  19.663  0.00  0.00    +0.190 C 
BRANCH  18   3
ATOM      3  O   UNL     1      -2.584 -11.909  19.243  0.00  0.00    -0.392 OA
ATOM     33  H   UNL     1      -2.700 -10.973  19.480  0.00  0.00    +0.210 HD
ENDBRANCH  18   3
ENDBRANCH  12  18
TORSDOF 8
ENDMDL
MODEL 6
REMARK VINA RESULT:      -5.7      3.230      9.310
REMARK  Name = 45361282
REMARK  9 active torsions:
REMARK  status: ('A' for Active; 'I' for Inactive)
REMARK    1  A    between atoms: O_2  and  C_11
REMARK    2  A    between atoms: O_3  and  C_18
REMARK    3  A    between atoms: N_5  and  C_9
REMARK    4  A    between atoms: N_6  and  C_19
REMARK    5  A    between atoms: N_7  and  C_15
REMARK    6  A    between atoms: N_8  and  C_30
REMARK    7  A    between atoms: C_10  and  C_15
REMARK    8  A    between atoms: C_12  and  C_18
REMARK    9  A    between atoms: C_20  and  C_23
REMARK                            x       y       z     vdW  Elec       q    Type
REMARK                         _______ _______ _______ _____ _____    ______ ____
ROOT
ATOM      1  O   UNL     1     -14.178  -6.572  14.089  0.00  0.00    -0.365 OA
ATOM      9  C   UNL     1     -12.469  -7.941  15.024  0.00  0.00    +0.118 C 
ATOM     10  C   UNL     1     -13.000  -6.505  14.924  0.00  0.00    +0.155 C 
ATOM     11  C   UNL     1     -12.983  -8.587  13.747  0.00  0.00    +0.165 C 
ATOM     12  C   UNL     1     -14.351  -7.926  13.629  0.00  0.00    +0.174 C 
ENDROOT
BRANCH   9   5
ATOM      5  N   UNL     1     -11.043  -8.082  15.261  0.00  0.00    -0.292 NA
ATOM      6  N   UNL     1      -8.693  -9.218  16.421  0.00  0.00    -0.327 N 
ATOM     13  C   UNL     1     -10.731  -7.857  16.678  0.00  0.00    +0.104 C 
ATOM     14  C   UNL     1     -10.583  -9.416  14.855  0.00  0.00    +0.104 C 
ATOM     16  C   UNL     1      -9.224  -7.948  16.930  0.00  0.00    +0.120 C 
ATOM     17  C   UNL     1      -9.072  -9.559  15.046  0.00  0.00    +0.120 C 
BRANCH   6  19
ATOM     19  C   UNL     1      -7.477  -9.677  16.939  0.00  0.00    +0.030 A 
ATOM     21  C   UNL     1      -6.326  -9.645  16.152  0.00  0.00    +0.023 A 
ATOM     22  C   UNL     1      -7.414 -10.164  18.245  0.00  0.00    +0.023 A 
ATOM     24  C   UNL     1      -5.114 -10.102  16.669  0.00  0.00    +0.002 A 
ATOM     25  C   UNL     1      -6.203 -10.620  18.762  0.00  0.00    +0.002 A 
ATOM     26  C   UNL     1      -5.052 -10.590  17.975  0.00  0.00    +0.000 A 
ENDBRANCH   6  19
ENDBRANCH   9   5
BRANCH  11   2
ATOM      2  O   UNL     1     -12.171  -8.248  12.630  0.00  0.00    -0.388 OA
ATOM     31  H   UNL     1     -12.306  -7.304  12.442  0.00  0.00    +0.210 HD
ENDBRANCH  11   2
BRANCH  10  15
ATOM     15  C   UNL     1     -12.066  -5.473  14.303  0.00  0.00    +0.137 C 
BRANCH  15   7
ATOM      4  O   UNL     1     -11.895  -2.918  13.003  0.00  0.00    -0.269 OA
ATOM      7  N   UNL     1     -12.454  -5.169  12.957  0.00  0.00    -0.308 N 
ATOM     20  C   UNL     1     -12.337  -3.896  12.406  0.00  0.00    +0.261 C 
ATOM     32  H   UNL     1     -12.831  -5.926  12.394  0.00  0.00    +0.149 HD
BRANCH  20  23
ATOM      8  N   UNL     1     -14.067  -3.331  10.650  0.00  0.00    -0.346 N 
ATOM     23  C   UNL     1     -12.808  -3.740  11.006  0.00  0.00    +0.104 A 
ATOM     27  C   UNL     1     -12.095  -3.965   9.849  0.00  0.00    +0.032 A 
ATOM     28  C   UNL     1     -14.168  -3.291   9.284  0.00  0.00    +0.086 A 
ATOM     29  C   UNL     1     -12.955  -3.681   8.759  0.00  0.00    +0.020 A 
ATOM     30  C   UNL     1     -15.137  -2.990  11.561  0.00  0.00    +0.149 C 
ENDBRANCH  20  23
ENDBRANCH  15   7
ENDBRANCH  10  15
BRANCH  12  18
ATOM     18  C   UNL     1     -14.948  -7.908  12.233  0.00  0.00    +0.190 C 
BRANCH  18   3
ATOM      3  O   UNL     1     -14.339  -6.866  11.487  0.00  0.00    -0.392 OA
ATOM     33  H   UNL     1     -14.650  -6.951  10.569  0.00  0.00    +0.210 HD
ENDBRANCH  18   3
ENDBRANCH  12  18
TORSDOF 8
ENDMDL
MODEL 7
REMARK VINA RESULT:      -5.7      2.572      4.277
REMARK  Name = 45361282
REMARK  9 active torsions:
REMARK  status: ('A' for Active; 'I' for Inactive)
REMARK    1  A    between atoms: O_2  and  C_11
REMARK    2  A    between atoms: O_3  and  C_18
REMARK    3  A    between atoms: N_5  and  C_9
REMARK    4  A    between atoms: N_6  and  C_19
REMARK    5  A    between atoms: N_7  and  C_15
REMARK    6  A    between atoms: N_8  and  C_30
REMARK    7  A    between atoms: C_10  and  C_15
REMARK    8  A    between atoms: C_12  and  C_18
REMARK    9  A    between atoms: C_20  and  C_23
REMARK                            x       y       z     vdW  Elec       q    Type
REMARK                         _______ _______ _______ _____ _____    ______ ____
ROOT
ATOM      1  O   UNL     1      -9.648 -15.038  20.270  0.00  0.00    -0.365 OA
ATOM      9  C   UNL     1     -10.610 -13.244  19.034  0.00  0.00    +0.118 C 
ATOM     10  C   UNL     1      -9.294 -13.951  19.386  0.00  0.00    +0.155 C 
ATOM     11  C   UNL     1     -11.499 -13.562  20.227  0.00  0.00    +0.165 C 
ATOM     12  C   UNL     1     -11.065 -14.991  20.528  0.00  0.00    +0.174 C 
ENDROOT
BRANCH   9   5
ATOM      5  N   UNL     1     -10.510 -11.836  18.693  0.00  0.00    -0.292 NA
ATOM      6  N   UNL     1     -11.135  -9.453  17.247  0.00  0.00    -0.327 N 
ATOM     13  C   UNL     1     -10.066 -11.673  17.303  0.00  0.00    +0.104 C 
ATOM     14  C   UNL     1     -11.802 -11.166  18.886  0.00  0.00    +0.104 C 
ATOM     16  C   UNL     1      -9.903 -10.193  16.948  0.00  0.00    +0.120 C 
ATOM     17  C   UNL     1     -11.697  -9.670  18.583  0.00  0.00    +0.120 C 
BRANCH   6  19
ATOM     19  C   UNL     1     -11.342  -8.232  16.596  0.00  0.00    +0.030 A 
ATOM     21  C   UNL     1     -10.251  -7.440  16.237  0.00  0.00    +0.023 A 
ATOM     22  C   UNL     1     -12.638  -7.807  16.304  0.00  0.00    +0.023 A 
ATOM     24  C   UNL     1     -10.458  -6.222  15.589  0.00  0.00    +0.002 A 
ATOM     25  C   UNL     1     -12.844  -6.590  15.656  0.00  0.00    +0.002 A 
ATOM     26  C   UNL     1     -11.754  -5.797  15.298  0.00  0.00    +0.000 A 
ENDBRANCH   6  19
ENDBRANCH   9   5
BRANCH  11   2
ATOM      2  O   UNL     1     -11.211 -12.714  21.331  0.00  0.00    -0.388 OA
ATOM     31  H   UNL     1     -10.821 -11.895  20.980  0.00  0.00    +0.210 HD
ENDBRANCH  11   2
BRANCH  10  15
ATOM     15  C   UNL     1      -8.238 -13.114  20.100  0.00  0.00    +0.137 C 
BRANCH  15   7
ATOM      4  O   UNL     1      -6.961 -10.543  20.088  0.00  0.00    -0.269 OA
ATOM      7  N   UNL     1      -7.234 -12.661  19.184  0.00  0.00    -0.308 N 
ATOM     20  C   UNL     1      -6.666 -11.392  19.252  0.00  0.00    +0.261 C 
ATOM     32  H   UNL     1      -6.934 -13.306  18.458  0.00  0.00    +0.149 HD
BRANCH  20  23
ATOM      8  N   UNL     1      -4.335 -11.426  18.270  0.00  0.00    -0.346 N 
ATOM     23  C   UNL     1      -5.657 -11.066  18.212  0.00  0.00    +0.104 A 
ATOM     27  C   UNL     1      -5.853 -10.371  17.039  0.00  0.00    +0.032 A 
ATOM     28  C   UNL     1      -3.686 -10.973  17.152  0.00  0.00    +0.086 A 
ATOM     29  C   UNL     1      -4.606 -10.312  16.368  0.00  0.00    +0.020 A 
ATOM     30  C   UNL     1      -3.706 -12.172  19.339  0.00  0.00    +0.149 C 
ENDBRANCH  20  23
ENDBRANCH  15   7
ENDBRANCH  10  15
BRANCH  12  18
ATOM     18  C   UNL     1     -11.332 -15.470  21.943  0.00  0.00    +0.190 C 
BRANCH  18   3
ATOM      3  O   UNL     1     -10.279 -15.028  22.784  0.00  0.00    -0.392 OA
ATOM     33  H   UNL     1     -10.465 -15.363  23.678  0.00  0.00    +0.210 HD
ENDBRANCH  18   3
ENDBRANCH  12  18
TORSDOF 8
ENDMDL
MODEL 8
REMARK VINA RESULT:      -5.7      2.878      4.937
REMARK  Name = 45361282
REMARK  9 active torsions:
REMARK  status: ('A' for Active; 'I' for Inactive)
REMARK    1  A    between atoms: O_2  and  C_11
REMARK    2  A    between atoms: O_3  and  C_18
REMARK    3  A    between atoms: N_5  and  C_9
REMARK    4  A    between atoms: N_6  and  C_19
REMARK    5  A    between atoms: N_7  and  C_15
REMARK    6  A    between atoms: N_8  and  C_30
REMARK    7  A    between atoms: C_10  and  C_15
REMARK    8  A    between atoms: C_12  and  C_18
REMARK    9  A    between atoms: C_20  and  C_23
REMARK                            x       y       z     vdW  Elec       q    Type
REMARK                         _______ _______ _______ _____ _____    ______ ____
ROOT
ATOM      1  O   UNL     1      -5.289 -13.131  17.980  0.00  0.00    -0.365 OA
ATOM      9  C   UNL     1      -7.128 -11.622  18.070  0.00  0.00    +0.118 C 
ATOM     10  C   UNL     1      -6.549 -12.839  17.337  0.00  0.00    +0.155 C 
ATOM     11  C   UNL     1      -5.889 -10.932  18.619  0.00  0.00    +0.165 C 
ATOM     12  C   UNL     1      -5.039 -12.139  18.995  0.00  0.00    +0.174 C 
ENDROOT
BRANCH   9   5
ATOM      5  N   UNL     1      -8.021 -10.773  17.299  0.00  0.00    -0.292 NA
ATOM      6  N   UNL     1     -10.302  -9.114  16.854  0.00  0.00    -0.327 N 
ATOM     13  C   UNL     1      -9.365 -11.361  17.238  0.00  0.00    +0.104 C 
ATOM     14  C   UNL     1      -8.089  -9.430  17.887  0.00  0.00    +0.104 C 
ATOM     16  C   UNL     1     -10.300 -10.504  16.382  0.00  0.00    +0.120 C 
ATOM     17  C   UNL     1      -8.982  -8.509  17.052  0.00  0.00    +0.120 C 
BRANCH   6  19
ATOM     19  C   UNL     1     -11.392  -8.306  16.512  0.00  0.00    +0.030 A 
ATOM     21  C   UNL     1     -12.692  -8.800  16.632  0.00  0.00    +0.023 A 
ATOM     22  C   UNL     1     -11.181  -7.007  16.052  0.00  0.00    +0.023 A 
ATOM     24  C   UNL     1     -13.778  -7.994  16.291  0.00  0.00    +0.002 A 
ATOM     25  C   UNL     1     -12.266  -6.201  15.711  0.00  0.00    +0.002 A 
ATOM     26  C   UNL     1     -13.566  -6.694  15.830  0.00  0.00    +0.000 A 
ENDBRANCH   6  19
ENDBRANCH   9   5
BRANCH  11   2
ATOM      2  O   UNL     1      -5.238 -10.158  17.620  0.00  0.00    -0.388 OA
ATOM     31  H   UNL     1      -5.867  -9.481  17.315  0.00  0.00    +0.210 HD
ENDBRANCH  11   2
BRANCH  10  15
ATOM     15  C   UNL     1      -6.268 -12.670  15.848  0.00  0.00    +0.137 C 
BRANCH  15   7
ATOM      4  O   UNL     1      -3.710 -13.518  14.859  0.00  0.00    -0.269 OA
ATOM      7  N   UNL     1      -5.118 -11.844  15.631  0.00  0.00    -0.308 N 
ATOM     20  C   UNL     1      -3.911 -12.342  15.147  0.00  0.00    +0.261 C 
ATOM     32  H   UNL     1      -5.202 -10.855  15.845  0.00  0.00    +0.149 HD
BRANCH  20  23
ATOM      8  N   UNL     1      -2.478 -10.722  13.834  0.00  0.00    -0.346 N 
ATOM     23  C   UNL     1      -2.806 -11.360  15.002  0.00  0.00    +0.104 A 
ATOM     27  C   UNL     1      -1.939 -10.921  15.979  0.00  0.00    +0.032 A 
ATOM     28  C   UNL     1      -1.417  -9.883  14.049  0.00  0.00    +0.086 A 
ATOM     29  C   UNL     1      -1.060  -9.987  15.376  0.00  0.00    +0.020 A 
ATOM     30  C   UNL     1      -3.141 -10.896  12.559  0.00  0.00    +0.149 C 
ENDBRANCH  20  23
ENDBRANCH  15   7
ENDBRANCH  10  15
BRANCH  12  18
ATOM     18  C   UNL     1      -3.545 -11.882  19.086  0.00  0.00    +0.190 C 
BRANCH  18   3
ATOM      3  O   UNL     1      -3.021 -12.608  20.186  0.00  0.00    -0.392 OA
ATOM     33  H   UNL     1      -3.480 -12.292  20.983  0.00  0.00    +0.210 HD
ENDBRANCH  18   3
ENDBRANCH  12  18
TORSDOF 8
ENDMDL
MODEL 9
REMARK VINA RESULT:      -5.7     26.610     29.403
REMARK  Name = 45361282
REMARK  9 active torsions:
REMARK  status: ('A' for Active; 'I' for Inactive)
REMARK    1  A    between atoms: O_2  and  C_11
REMARK    2  A    between atoms: O_3  and  C_18
REMARK    3  A    between atoms: N_5  and  C_9
REMARK    4  A    between atoms: N_6  and  C_19
REMARK    5  A    between atoms: N_7  and  C_15
REMARK    6  A    between atoms: N_8  and  C_30
REMARK    7  A    between atoms: C_10  and  C_15
REMARK    8  A    between atoms: C_12  and  C_18
REMARK    9  A    between atoms: C_20  and  C_23
REMARK                            x       y       z     vdW  Elec       q    Type
REMARK                         _______ _______ _______ _____ _____    ______ ____
ROOT
ATOM      1  O   UNL     1      12.011   9.287   4.913  0.00  0.00    -0.365 OA
ATOM      9  C   UNL     1      12.441   7.769   3.130  0.00  0.00    +0.118 C 
ATOM     10  C   UNL     1      11.423   8.765   3.700  0.00  0.00    +0.155 C 
ATOM     11  C   UNL     1      13.211   7.322   4.363  0.00  0.00    +0.165 C 
ATOM     12  C   UNL     1      13.271   8.628   5.145  0.00  0.00    +0.174 C 
ENDROOT
BRANCH   9   5
ATOM      5  N   UNL     1      11.901   6.696   2.313  0.00  0.00    -0.292 NA
ATOM      6  N   UNL     1      11.675   5.045  -0.007  0.00  0.00    -0.327 N 
ATOM     13  C   UNL     1      11.324   7.232   1.074  0.00  0.00    +0.104 C 
ATOM     14  C   UNL     1      12.945   5.715   1.994  0.00  0.00    +0.104 C 
ATOM     16  C   UNL     1      10.701   6.116   0.232  0.00  0.00    +0.120 C 
ATOM     17  C   UNL     1      12.377   4.550   1.182  0.00  0.00    +0.120 C 
BRANCH   6  19
ATOM     19  C   UNL     1      11.459   4.189  -1.092  0.00  0.00    +0.030 A 
ATOM     21  C   UNL     1      10.446   4.469  -2.010  0.00  0.00    +0.023 A 
ATOM     22  C   UNL     1      12.255   3.057  -1.258  0.00  0.00    +0.023 A 
ATOM     24  C   UNL     1      10.230   3.616  -3.092  0.00  0.00    +0.002 A 
ATOM     25  C   UNL     1      12.040   2.204  -2.340  0.00  0.00    +0.002 A 
ATOM     26  C   UNL     1      11.027   2.483  -3.257  0.00  0.00    +0.000 A 
ENDBRANCH   6  19
ENDBRANCH   9   5
BRANCH  11   2
ATOM      2  O   UNL     1      12.494   6.337   5.096  0.00  0.00    -0.388 OA
ATOM     31  H   UNL     1      12.461   5.532   4.553  0.00  0.00    +0.210 HD
ENDBRANCH  11   2
BRANCH  10  15
ATOM     15  C   UNL     1      10.053   8.206   4.067  0.00  0.00    +0.137 C 
BRANCH  15   7
ATOM      4  O   UNL     1       7.918   6.697   5.253  0.00  0.00    -0.269 OA
ATOM      7  N   UNL     1      10.117   7.432   5.271  0.00  0.00    -0.308 N 
ATOM     20  C   UNL     1       9.028   6.728   5.776  0.00  0.00    +0.261 C 
ATOM     32  H   UNL     1      11.004   7.405   5.766  0.00  0.00    +0.149 HD
BRANCH  20  23
ATOM      8  N   UNL     1       9.691   4.699   7.134  0.00  0.00    -0.346 N 
ATOM     23  C   UNL     1       9.251   5.994   7.049  0.00  0.00    +0.104 A 
ATOM     27  C   UNL     1       9.068   6.463   8.331  0.00  0.00    +0.032 A 
ATOM     28  C   UNL     1       9.792   4.334   8.450  0.00  0.00    +0.086 A 
ATOM     29  C   UNL     1       9.410   5.412   9.219  0.00  0.00    +0.020 A 
ATOM     30  C   UNL     1      10.005   3.836   6.016  0.00  0.00    +0.149 C 
ENDBRANCH  20  23
ENDBRANCH  15   7
ENDBRANCH  10  15
BRANCH  12  18
ATOM     18  C   UNL     1      13.491   8.483   6.641  0.00  0.00    +0.190 C 
BRANCH  18   3
ATOM      3  O   UNL     1      12.262   8.127   7.253  0.00  0.00    -0.392 OA
ATOM     33  H   UNL     1      12.463   7.869   8.169  0.00  0.00    +0.210 HD
ENDBRANCH  18   3
ENDBRANCH  12  18
TORSDOF 8
ENDMDL
MODEL 10
REMARK VINA RESULT:      -5.7     25.631     28.754
REMARK  Name = 45361282
REMARK  9 active torsions:
REMARK  status: ('A' for Active; 'I' for Inactive)
REMARK    1  A    between atoms: O_2  and  C_11
REMARK    2  A    between atoms: O_3  and  C_18
REMARK    3  A    between atoms: N_5  and  C_9
REMARK    4  A    between atoms: N_6  and  C_19
REMARK    5  A    between atoms: N_7  and  C_15
REMARK    6  A    between atoms: N_8  and  C_30
REMARK    7  A    between atoms: C_10  and  C_15
REMARK    8  A    between atoms: C_12  and  C_18
REMARK    9  A    between atoms: C_20  and  C_23
REMARK                            x       y       z     vdW  Elec       q    Type
REMARK                         _______ _______ _______ _____ _____    ______ ____
ROOT
ATOM      1  O   UNL     1       9.089   6.759   8.349  0.00  0.00    -0.365 OA
ATOM      9  C   UNL     1      10.635   6.474   6.562  0.00  0.00    +0.118 C 
ATOM     10  C   UNL     1       9.359   7.203   7.001  0.00  0.00    +0.155 C 
ATOM     11  C   UNL     1      10.623   5.216   7.417  0.00  0.00    +0.165 C 
ATOM     12  C   UNL     1      10.067   5.770   8.723  0.00  0.00    +0.174 C 
ENDROOT
BRANCH   9   5
ATOM      5  N   UNL     1      10.788   6.252   5.134  0.00  0.00    -0.292 NA
ATOM      6  N   UNL     1      11.916   5.086   2.783  0.00  0.00    -0.327 N 
ATOM     13  C   UNL     1      12.140   6.622   4.698  0.00  0.00    +0.104 C 
ATOM     14  C   UNL     1      10.522   4.848   4.800  0.00  0.00    +0.104 C 
ATOM     16  C   UNL     1      12.296   6.446   3.186  0.00  0.00    +0.120 C 
ATOM     17  C   UNL     1      10.625   4.612   3.292  0.00  0.00    +0.120 C 
BRANCH   6  19
ATOM     19  C   UNL     1      12.403   4.601   1.564  0.00  0.00    +0.030 A 
ATOM     21  C   UNL     1      13.735   4.202   1.455  0.00  0.00    +0.023 A 
ATOM     22  C   UNL     1      11.557   4.515   0.459  0.00  0.00    +0.023 A 
ATOM     24  C   UNL     1      14.220   3.719   0.239  0.00  0.00    +0.002 A 
ATOM     25  C   UNL     1      12.041   4.032  -0.755  0.00  0.00    +0.002 A 
ATOM     26  C   UNL     1      13.373   3.633  -0.866  0.00  0.00    +0.000 A 
ENDBRANCH   6  19
ENDBRANCH   9   5
BRANCH  11   2
ATOM      2  O   UNL     1       9.746   4.232   6.883  0.00  0.00    -0.388 OA
ATOM     31  H   UNL     1      10.291   3.571   6.424  0.00  0.00    +0.210 HD
ENDBRANCH  11   2
BRANCH  10  15
ATOM     15  C   UNL     1       8.102   6.937   6.179  0.00  0.00    +0.137 C 
BRANCH  15   7
ATOM      4  O   UNL     1       8.327   7.718   3.425  0.00  0.00    -0.269 OA
ATOM      7  N   UNL     1       7.608   8.145   5.588  0.00  0.00    -0.308 N 
ATOM     20  C   UNL     1       7.761   8.444   4.238  0.00  0.00    +0.261 C 
ATOM     32  H   UNL     1       7.126   8.802   6.195  0.00  0.00    +0.149 HD
BRANCH  20  23
ATOM      8  N   UNL     1       7.859  10.952   3.919  0.00  0.00    -0.346 N 
ATOM     23  C   UNL     1       7.214   9.750   3.786  0.00  0.00    +0.104 A 
ATOM     27  C   UNL     1       6.004   9.986   3.172  0.00  0.00    +0.032 A 
ATOM     28  C   UNL     1       7.080  11.951   3.398  0.00  0.00    +0.086 A 
ATOM     29  C   UNL     1       5.919  11.379   2.926  0.00  0.00    +0.020 A 
ATOM     30  C   UNL     1       9.162  11.153   4.515  0.00  0.00    +0.149 C 
ENDBRANCH  20  23
ENDBRANCH  15   7
ENDBRANCH  10  15
BRANCH  12  18
ATOM     18  C   UNL     1       9.421   4.749   9.642  0.00  0.00    +0.190 C 
BRANCH  18   3
ATOM      3  O   UNL     1      10.222   4.607  10.805  0.00  0.00    -0.392 OA
ATOM     33  H   UNL     1      10.083   5.401  11.348  0.00  0.00    +0.210 HD
ENDBRANCH  18   3
ENDBRANCH  12  18
TORSDOF 8
ENDMDL
