MODEL 1
REMARK VINA RESULT:      -7.5      0.000      0.000
REMARK  Name = 40776885
REMARK  9 active torsions:
REMARK  status: ('A' for Active; 'I' for Inactive)
REMARK    1  A    between atoms: O_2  and  C_15
REMARK    2  A    between atoms: O_2  and  C_20
REMARK    3  A    between atoms: N_7  and  C_23
REMARK    4  A    between atoms: C_9  and  C_16
REMARK    5  A    between atoms: C_10  and  C_15
REMARK    6  A    between atoms: C_18  and  C_21
REMARK    7  A    between atoms: C_19  and  C_22
REMARK    8  A    between atoms: C_23  and  C_26
REMARK    9  A    between atoms: C_23  and  C_27
REMARK                            x       y       z     vdW  Elec       q    Type
REMARK                         _______ _______ _______ _____ _____    ______ ____
ROOT
ATOM      4  N   UNL     1      11.333   8.843  20.137  0.00  0.00    -0.296 NA
ATOM      8  C   UNL     1      12.961   6.938  20.850  0.00  0.00    +0.002 C 
ATOM      9  C   UNL     1      13.414   8.296  21.455  0.00  0.00    +0.055 C 
ATOM     10  C   UNL     1      11.758   8.064  18.944  0.00  0.00    +0.095 C 
ATOM     11  C   UNL     1      12.878   7.067  19.314  0.00  0.00    +0.026 C 
ATOM     12  C   UNL     1      11.528   6.678  21.362  0.00  0.00    +0.019 C 
ATOM     13  C   UNL     1      12.522   9.404  20.827  0.00  0.00    +0.094 C 
ATOM     14  C   UNL     1      10.655   7.911  21.070  0.00  0.00    +0.085 C 
ENDROOT
BRANCH   9  16
ATOM      5  N   UNL     1      15.214   9.951  21.548  0.00  0.00    -0.237 NA
ATOM      6  N   UNL     1      17.533   9.338  21.317  0.00  0.00    -0.232 NA
ATOM     16  C   UNL     1      14.894   8.647  21.404  0.00  0.00    +0.050 A 
ATOM     17  C   UNL     1      15.824   7.647  21.214  0.00  0.00    +0.052 A 
ATOM     18  C   UNL     1      17.143   8.055  21.179  0.00  0.00    +0.075 A 
ATOM     19  C   UNL     1      16.531  10.221  21.496  0.00  0.00    +0.127 A 
ATOM     22  C   UNL     1      16.924  11.651  21.651  0.00  0.00    +0.088 C 
BRANCH  18  21
ATOM      1  F   UNL     1      21.272   4.388  20.430  0.00  0.00    -0.205 F 
ATOM     21  C   UNL     1      18.213   7.105  20.986  0.00  0.00    +0.001 A 
ATOM     24  C   UNL     1      19.359   7.175  21.777  0.00  0.00    +0.013 A 
ATOM     25  C   UNL     1      18.099   6.118  20.006  0.00  0.00    +0.013 A 
ATOM     28  C   UNL     1      20.393   6.257  21.590  0.00  0.00    +0.039 A 
ATOM     29  C   UNL     1      19.132   5.201  19.819  0.00  0.00    +0.039 A 
ATOM     30  C   UNL     1      20.279   5.270  20.610  0.00  0.00    +0.123 A 
ENDBRANCH  18  21
ENDBRANCH   9  16
BRANCH  10  15
ATOM     15  C   UNL     1      12.159   8.964  17.774  0.00  0.00    +0.252 C 
BRANCH  15   2
ATOM      2  O   UNL     1      13.525   8.735  17.482  0.00  0.00    -0.449 OA
BRANCH   2  20
ATOM      3  O   UNL     1      13.860   8.411  15.234  0.00  0.00    -0.226 OA
ATOM      7  N   UNL     1      14.505  10.379  16.280  0.00  0.00    -0.279 N 
ATOM     20  C   UNL     1      13.957   9.114  16.234  0.00  0.00    +0.401 C 
ATOM     31  H   UNL     1      14.481  10.872  17.167  0.00  0.00    +0.152 HD
BRANCH   7  23
ATOM     23  C   UNL     1      15.051  11.059  15.128  0.00  0.00    +0.070 C 
ATOM     26  C   UNL     1      13.982  11.912  14.455  0.00  0.00    +0.027 C 
ATOM     27  C   UNL     1      16.255  11.899  15.530  0.00  0.00    +0.027 C 
ENDBRANCH   7  23
ENDBRANCH   2  20
ENDBRANCH  15   2
ENDBRANCH  10  15
TORSDOF 6
ENDMDL
MODEL 2
REMARK VINA RESULT:      -7.2     29.574     32.821
REMARK  Name = 40776885
REMARK  9 active torsions:
REMARK  status: ('A' for Active; 'I' for Inactive)
REMARK    1  A    between atoms: O_2  and  C_15
REMARK    2  A    between atoms: O_2  and  C_20
REMARK    3  A    between atoms: N_7  and  C_23
REMARK    4  A    between atoms: C_9  and  C_16
REMARK    5  A    between atoms: C_10  and  C_15
REMARK    6  A    between atoms: C_18  and  C_21
REMARK    7  A    between atoms: C_19  and  C_22
REMARK    8  A    between atoms: C_23  and  C_26
REMARK    9  A    between atoms: C_23  and  C_27
REMARK                            x       y       z     vdW  Elec       q    Type
REMARK                         _______ _______ _______ _____ _____    ______ ____
ROOT
ATOM      4  N   UNL     1     -18.484   3.032  26.545  0.00  0.00    -0.296 NA
ATOM      8  C   UNL     1     -17.336   0.699  26.710  0.00  0.00    +0.002 C 
ATOM      9  C   UNL     1     -17.465   1.343  28.118  0.00  0.00    +0.055 C 
ATOM     10  C   UNL     1     -17.373   2.941  25.560  0.00  0.00    +0.095 C 
ATOM     11  C   UNL     1     -16.552   1.653  25.783  0.00  0.00    +0.026 C 
ATOM     12  C   UNL     1     -18.766   0.587  26.139  0.00  0.00    +0.019 C 
ATOM     13  C   UNL     1     -17.967   2.801  27.917  0.00  0.00    +0.094 C 
ATOM     14  C   UNL     1     -19.457   1.958  26.231  0.00  0.00    +0.085 C 
ENDROOT
BRANCH   9  16
ATOM      5  N   UNL     1     -15.407   0.246  28.860  0.00  0.00    -0.237 NA
ATOM      6  N   UNL     1     -14.101   1.082  30.704  0.00  0.00    -0.232 NA
ATOM     16  C   UNL     1     -16.267   1.269  29.054  0.00  0.00    +0.050 A 
ATOM     17  C   UNL     1     -16.112   2.223  30.038  0.00  0.00    +0.052 A 
ATOM     18  C   UNL     1     -15.000   2.079  30.842  0.00  0.00    +0.075 A 
ATOM     19  C   UNL     1     -14.362   0.215  29.708  0.00  0.00    +0.127 A 
ATOM     22  C   UNL     1     -13.391  -0.902  29.526  0.00  0.00    +0.088 C 
BRANCH  18  21
ATOM      1  F   UNL     1     -13.938   5.675  34.964  0.00  0.00    -0.205 F 
ATOM     21  C   UNL     1     -14.725   3.011  31.910  0.00  0.00    +0.001 A 
ATOM     24  C   UNL     1     -14.374   4.328  31.613  0.00  0.00    +0.013 A 
ATOM     25  C   UNL     1     -14.809   2.593  33.238  0.00  0.00    +0.013 A 
ATOM     28  C   UNL     1     -14.109   5.228  32.644  0.00  0.00    +0.039 A 
ATOM     29  C   UNL     1     -14.543   3.493  34.269  0.00  0.00    +0.039 A 
ATOM     30  C   UNL     1     -14.193   4.810  33.973  0.00  0.00    +0.123 A 
ENDBRANCH  18  21
ENDBRANCH   9  16
BRANCH  10  15
ATOM     15  C   UNL     1     -16.488   4.189  25.564  0.00  0.00    +0.252 C 
BRANCH  15   2
ATOM      2  O   UNL     1     -15.320   3.911  24.817  0.00  0.00    -0.449 OA
BRANCH   2  20
ATOM      3  O   UNL     1     -15.717   3.814  22.557  0.00  0.00    -0.226 OA
ATOM      7  N   UNL     1     -14.681   5.651  23.524  0.00  0.00    -0.279 N 
ATOM     20  C   UNL     1     -15.279   4.408  23.536  0.00  0.00    +0.401 C 
ATOM     31  H   UNL     1     -14.403   6.051  24.416  0.00  0.00    +0.152 HD
BRANCH   7  23
ATOM     23  C   UNL     1     -14.488   6.436  22.327  0.00  0.00    +0.070 C 
ATOM     26  C   UNL     1     -14.571   7.924  22.644  0.00  0.00    +0.027 C 
ATOM     27  C   UNL     1     -13.158   6.085  21.673  0.00  0.00    +0.027 C 
ENDBRANCH   7  23
ENDBRANCH   2  20
ENDBRANCH  15   2
ENDBRANCH  10  15
TORSDOF 6
ENDMDL
MODEL 3
REMARK VINA RESULT:      -7.0     26.157     29.333
REMARK  Name = 40776885
REMARK  9 active torsions:
REMARK  status: ('A' for Active; 'I' for Inactive)
REMARK    1  A    between atoms: O_2  and  C_15
REMARK    2  A    between atoms: O_2  and  C_20
REMARK    3  A    between atoms: N_7  and  C_23
REMARK    4  A    between atoms: C_9  and  C_16
REMARK    5  A    between atoms: C_10  and  C_15
REMARK    6  A    between atoms: C_18  and  C_21
REMARK    7  A    between atoms: C_19  and  C_22
REMARK    8  A    between atoms: C_23  and  C_26
REMARK    9  A    between atoms: C_23  and  C_27
REMARK                            x       y       z     vdW  Elec       q    Type
REMARK                         _______ _______ _______ _____ _____    ______ ____
ROOT
ATOM      4  N   UNL     1      -6.022 -11.381  10.723  0.00  0.00    -0.296 NA
ATOM      8  C   UNL     1      -4.135  -9.698  11.347  0.00  0.00    +0.002 C 
ATOM      9  C   UNL     1      -3.966 -11.024  12.140  0.00  0.00    +0.055 C 
ATOM     10  C   UNL     1      -6.612 -10.058  11.059  0.00  0.00    +0.095 C 
ATOM     11  C   UNL     1      -5.535  -9.111  11.629  0.00  0.00    +0.026 C 
ATOM     12  C   UNL     1      -4.091 -10.066   9.849  0.00  0.00    +0.019 C 
ATOM     13  C   UNL     1      -5.229 -11.890  11.869  0.00  0.00    +0.094 C 
ATOM     14  C   UNL     1      -5.105 -11.191   9.574  0.00  0.00    +0.085 C 
ENDROOT
BRANCH   9  16
ATOM      5  N   UNL     1      -2.392 -10.508  13.941  0.00  0.00    -0.237 NA
ATOM      6  N   UNL     1      -2.974 -10.763  16.265  0.00  0.00    -0.232 NA
ATOM     16  C   UNL     1      -3.631 -10.937  13.622  0.00  0.00    +0.050 A 
ATOM     17  C   UNL     1      -4.582 -11.292  14.556  0.00  0.00    +0.052 A 
ATOM     18  C   UNL     1      -4.194 -11.184  15.876  0.00  0.00    +0.075 A 
ATOM     19  C   UNL     1      -2.135 -10.445  15.260  0.00  0.00    +0.127 A 
ATOM     22  C   UNL     1      -0.774  -9.977  15.652  0.00  0.00    +0.088 C 
BRANCH  18  21
ATOM      1  F   UNL     1      -7.678 -12.505  20.020  0.00  0.00    -0.205 F 
ATOM     21  C   UNL     1      -5.097 -11.527  16.949  0.00  0.00    +0.001 A 
ATOM     24  C   UNL     1      -6.060 -12.519  16.761  0.00  0.00    +0.013 A 
ATOM     25  C   UNL     1      -5.006 -10.865  18.174  0.00  0.00    +0.013 A 
ATOM     28  C   UNL     1      -6.932 -12.849  17.798  0.00  0.00    +0.039 A 
ATOM     29  C   UNL     1      -5.878 -11.196  19.211  0.00  0.00    +0.039 A 
ATOM     30  C   UNL     1      -6.841 -12.187  19.024  0.00  0.00    +0.123 A 
ENDBRANCH  18  21
ENDBRANCH   9  16
BRANCH  10  15
ATOM     15  C   UNL     1      -7.818 -10.178  11.993  0.00  0.00    +0.252 C 
BRANCH  15   2
ATOM      2  O   UNL     1      -7.532  -9.472  13.185  0.00  0.00    -0.449 OA
BRANCH   2  20
ATOM      3  O   UNL     1      -8.417 -11.049  14.599  0.00  0.00    -0.226 OA
ATOM      7  N   UNL     1      -8.588  -8.782  15.059  0.00  0.00    -0.279 N 
ATOM     20  C   UNL     1      -8.203  -9.876  14.314  0.00  0.00    +0.401 C 
ATOM     31  H   UNL     1      -8.305  -7.864  14.732  0.00  0.00    +0.152 HD
BRANCH   7  23
ATOM     23  C   UNL     1      -9.314  -8.876  16.305  0.00  0.00    +0.070 C 
ATOM     26  C   UNL     1      -8.363  -9.182  17.456  0.00  0.00    +0.027 C 
ATOM     27  C   UNL     1     -10.096  -7.595  16.561  0.00  0.00    +0.027 C 
ENDBRANCH   7  23
ENDBRANCH   2  20
ENDBRANCH  15   2
ENDBRANCH  10  15
TORSDOF 6
ENDMDL
MODEL 4
REMARK VINA RESULT:      -6.9     26.269     29.337
REMARK  Name = 40776885
REMARK  9 active torsions:
REMARK  status: ('A' for Active; 'I' for Inactive)
REMARK    1  A    between atoms: O_2  and  C_15
REMARK    2  A    between atoms: O_2  and  C_20
REMARK    3  A    between atoms: N_7  and  C_23
REMARK    4  A    between atoms: C_9  and  C_16
REMARK    5  A    between atoms: C_10  and  C_15
REMARK    6  A    between atoms: C_18  and  C_21
REMARK    7  A    between atoms: C_19  and  C_22
REMARK    8  A    between atoms: C_23  and  C_26
REMARK    9  A    between atoms: C_23  and  C_27
REMARK                            x       y       z     vdW  Elec       q    Type
REMARK                         _______ _______ _______ _____ _____    ______ ____
ROOT
ATOM      4  N   UNL     1      -7.398 -11.848  17.483  0.00  0.00    -0.296 NA
ATOM      8  C   UNL     1      -5.045 -11.093  18.308  0.00  0.00    +0.002 C 
ATOM      9  C   UNL     1      -5.352 -10.488  16.910  0.00  0.00    +0.055 C 
ATOM     10  C   UNL     1      -6.615 -13.029  17.936  0.00  0.00    +0.095 C 
ATOM     11  C   UNL     1      -5.153 -12.631  18.232  0.00  0.00    +0.026 C 
ATOM     12  C   UNL     1      -6.161 -10.607  19.258  0.00  0.00    +0.019 C 
ATOM     13  C   UNL     1      -6.669 -11.140  16.401  0.00  0.00    +0.094 C 
ATOM     14  C   UNL     1      -7.531 -10.923  18.633  0.00  0.00    +0.085 C 
ENDROOT
BRANCH   9  16
ATOM      5  N   UNL     1      -2.982 -10.419  16.307  0.00  0.00    -0.237 NA
ATOM      6  N   UNL     1      -2.235 -10.551  14.020  0.00  0.00    -0.232 NA
ATOM     16  C   UNL     1      -4.251 -10.513  15.859  0.00  0.00    +0.050 A 
ATOM     17  C   UNL     1      -4.587 -10.628  14.526  0.00  0.00    +0.052 A 
ATOM     18  C   UNL     1      -3.527 -10.642  13.641  0.00  0.00    +0.075 A 
ATOM     19  C   UNL     1      -2.038 -10.444  15.348  0.00  0.00    +0.127 A 
ATOM     22  C   UNL     1      -0.622 -10.340  15.804  0.00  0.00    +0.088 C 
BRANCH  18  21
ATOM      1  F   UNL     1      -4.365 -11.082   8.151  0.00  0.00    -0.205 F 
ATOM     21  C   UNL     1      -3.744 -10.755  12.219  0.00  0.00    +0.001 A 
ATOM     24  C   UNL     1      -3.286  -9.755  11.361  0.00  0.00    +0.013 A 
ATOM     25  C   UNL     1      -4.412 -11.866  11.703  0.00  0.00    +0.013 A 
ATOM     28  C   UNL     1      -3.496  -9.865   9.987  0.00  0.00    +0.039 A 
ATOM     29  C   UNL     1      -4.622 -11.976  10.329  0.00  0.00    +0.039 A 
ATOM     30  C   UNL     1      -4.164 -10.976   9.470  0.00  0.00    +0.123 A 
ENDBRANCH  18  21
ENDBRANCH   9  16
BRANCH  10  15
ATOM     15  C   UNL     1      -6.700 -14.197  16.951  0.00  0.00    +0.252 C 
BRANCH  15   2
ATOM      2  O   UNL     1      -5.442 -14.842  16.914  0.00  0.00    -0.449 OA
BRANCH   2  20
ATOM      3  O   UNL     1      -5.654 -15.427  14.704  0.00  0.00    -0.226 OA
ATOM      7  N   UNL     1      -3.571 -15.117  15.678  0.00  0.00    -0.279 N 
ATOM     20  C   UNL     1      -4.949 -15.156  15.670  0.00  0.00    +0.401 C 
ATOM     31  H   UNL     1      -3.110 -14.831  16.536  0.00  0.00    +0.152 HD
BRANCH   7  23
ATOM     23  C   UNL     1      -2.755 -15.400  14.520  0.00  0.00    +0.070 C 
ATOM     26  C   UNL     1      -2.127 -14.120  13.983  0.00  0.00    +0.027 C 
ATOM     27  C   UNL     1      -1.691 -16.435  14.861  0.00  0.00    +0.027 C 
ENDBRANCH   7  23
ENDBRANCH   2  20
ENDBRANCH  15   2
ENDBRANCH  10  15
TORSDOF 6
ENDMDL
MODEL 5
REMARK VINA RESULT:      -6.8      3.936      7.528
REMARK  Name = 40776885
REMARK  9 active torsions:
REMARK  status: ('A' for Active; 'I' for Inactive)
REMARK    1  A    between atoms: O_2  and  C_15
REMARK    2  A    between atoms: O_2  and  C_20
REMARK    3  A    between atoms: N_7  and  C_23
REMARK    4  A    between atoms: C_9  and  C_16
REMARK    5  A    between atoms: C_10  and  C_15
REMARK    6  A    between atoms: C_18  and  C_21
REMARK    7  A    between atoms: C_19  and  C_22
REMARK    8  A    between atoms: C_23  and  C_26
REMARK    9  A    between atoms: C_23  and  C_27
REMARK                            x       y       z     vdW  Elec       q    Type
REMARK                         _______ _______ _______ _____ _____    ______ ____
ROOT
ATOM      4  N   UNL     1      13.769   8.590  21.586  0.00  0.00    -0.296 NA
ATOM      8  C   UNL     1      14.064   7.042  19.512  0.00  0.00    +0.002 C 
ATOM      9  C   UNL     1      14.352   8.520  19.132  0.00  0.00    +0.055 C 
ATOM     10  C   UNL     1      12.579   7.710  21.435  0.00  0.00    +0.095 C 
ATOM     11  C   UNL     1      12.640   6.935  20.101  0.00  0.00    +0.026 C 
ATOM     12  C   UNL     1      15.050   6.671  20.640  0.00  0.00    +0.019 C 
ATOM     13  C   UNL     1      13.962   9.398  20.355  0.00  0.00    +0.094 C 
ATOM     14  C   UNL     1      14.957   7.722  21.760  0.00  0.00    +0.085 C 
ENDROOT
BRANCH   9  16
ATOM      5  N   UNL     1      12.509   8.682  17.531  0.00  0.00    -0.237 NA
ATOM      6  N   UNL     1      12.679   9.977  15.506  0.00  0.00    -0.232 NA
ATOM     16  C   UNL     1      13.772   9.054  17.829  0.00  0.00    +0.050 A 
ATOM     17  C   UNL     1      14.540   9.872  17.028  0.00  0.00    +0.052 A 
ATOM     18  C   UNL     1      13.936  10.309  15.866  0.00  0.00    +0.075 A 
ATOM     19  C   UNL     1      12.033   9.174  16.371  0.00  0.00    +0.127 A 
ATOM     22  C   UNL     1      10.640   8.784  16.006  0.00  0.00    +0.088 C 
BRANCH  18  21
ATOM      1  F   UNL     1      16.631  13.629  12.293  0.00  0.00    -0.205 F 
ATOM     21  C   UNL     1      14.634  11.169  14.940  0.00  0.00    +0.001 A 
ATOM     24  C   UNL     1      13.914  12.015  14.096  0.00  0.00    +0.013 A 
ATOM     25  C   UNL     1      16.028  11.153  14.891  0.00  0.00    +0.013 A 
ATOM     28  C   UNL     1      14.589  12.846  13.201  0.00  0.00    +0.039 A 
ATOM     29  C   UNL     1      16.702  11.984  13.997  0.00  0.00    +0.039 A 
ATOM     30  C   UNL     1      15.984  12.830  13.152  0.00  0.00    +0.123 A 
ENDBRANCH  18  21
ENDBRANCH   9  16
BRANCH  10  15
ATOM     15  C   UNL     1      11.264   8.477  21.589  0.00  0.00    +0.252 C 
BRANCH  15   2
ATOM      2  O   UNL     1      11.221   9.032  22.890  0.00  0.00    -0.449 OA
BRANCH   2  20
ATOM      3  O   UNL     1      11.079  11.166  22.055  0.00  0.00    -0.226 OA
ATOM      7  N   UNL     1      11.757  10.765  24.237  0.00  0.00    -0.279 N 
ATOM     20  C   UNL     1      11.330  10.399  22.978  0.00  0.00    +0.401 C 
ATOM     31  H   UNL     1      11.885  10.029  24.925  0.00  0.00    +0.152 HD
BRANCH   7  23
ATOM     23  C   UNL     1      11.970  12.134  24.645  0.00  0.00    +0.070 C 
ATOM     26  C   UNL     1      10.742  12.675  25.365  0.00  0.00    +0.027 C 
ATOM     27  C   UNL     1      13.213  12.240  25.518  0.00  0.00    +0.027 C 
ENDBRANCH   7  23
ENDBRANCH   2  20
ENDBRANCH  15   2
ENDBRANCH  10  15
TORSDOF 6
ENDMDL
MODEL 6
REMARK VINA RESULT:      -6.5     32.197     33.812
REMARK  Name = 40776885
REMARK  9 active torsions:
REMARK  status: ('A' for Active; 'I' for Inactive)
REMARK    1  A    between atoms: O_2  and  C_15
REMARK    2  A    between atoms: O_2  and  C_20
REMARK    3  A    between atoms: N_7  and  C_23
REMARK    4  A    between atoms: C_9  and  C_16
REMARK    5  A    between atoms: C_10  and  C_15
REMARK    6  A    between atoms: C_18  and  C_21
REMARK    7  A    between atoms: C_19  and  C_22
REMARK    8  A    between atoms: C_23  and  C_26
REMARK    9  A    between atoms: C_23  and  C_27
REMARK                            x       y       z     vdW  Elec       q    Type
REMARK                         _______ _______ _______ _____ _____    ______ ____
ROOT
ATOM      4  N   UNL     1       3.718 -16.115  -1.620  0.00  0.00    -0.296 NA
ATOM      8  C   UNL     1       3.438 -14.062  -0.042  0.00  0.00    +0.002 C 
ATOM      9  C   UNL     1       2.327 -15.114   0.231  0.00  0.00    +0.055 C 
ATOM     10  C   UNL     1       3.761 -14.856  -2.411  0.00  0.00    +0.095 C 
ATOM     11  C   UNL     1       3.392 -13.646  -1.528  0.00  0.00    +0.026 C 
ATOM     12  C   UNL     1       4.789 -14.772   0.188  0.00  0.00    +0.019 C 
ATOM     13  C   UNL     1       2.438 -16.203  -0.874  0.00  0.00    +0.094 C 
ATOM     14  C   UNL     1       4.825 -16.071  -0.635  0.00  0.00    +0.085 C 
ENDROOT
BRANCH   9  16
ATOM      5  N   UNL     1       0.178 -14.418  -0.710  0.00  0.00    -0.237 NA
ATOM      6  N   UNL     1      -1.668 -13.731   0.677  0.00  0.00    -0.232 NA
ATOM     16  C   UNL     1       0.898 -14.620   0.413  0.00  0.00    +0.050 A 
ATOM     17  C   UNL     1       0.412 -14.402   1.685  0.00  0.00    +0.052 A 
ATOM     18  C   UNL     1      -0.892 -13.953   1.758  0.00  0.00    +0.075 A 
ATOM     19  C   UNL     1      -1.079 -13.981  -0.508  0.00  0.00    +0.127 A 
ATOM     22  C   UNL     1      -1.906 -13.745  -1.726  0.00  0.00    +0.088 C 
BRANCH  18  21
ATOM      1  F   UNL     1      -3.313 -12.921   6.669  0.00  0.00    -0.205 F 
ATOM     21  C   UNL     1      -1.519 -13.686   3.030  0.00  0.00    +0.001 A 
ATOM     24  C   UNL     1      -1.079 -14.348   4.177  0.00  0.00    +0.013 A 
ATOM     25  C   UNL     1      -2.564 -12.767   3.112  0.00  0.00    +0.013 A 
ATOM     28  C   UNL     1      -1.686 -14.089   5.406  0.00  0.00    +0.039 A 
ATOM     29  C   UNL     1      -3.171 -12.508   4.341  0.00  0.00    +0.039 A 
ATOM     30  C   UNL     1      -2.732 -13.169   5.488  0.00  0.00    +0.123 A 
ENDBRANCH  18  21
ENDBRANCH   9  16
BRANCH  10  15
ATOM     15  C   UNL     1       2.896 -14.930  -3.670  0.00  0.00    +0.252 C 
BRANCH  15   2
ATOM      2  O   UNL     1       3.651 -14.439  -4.761  0.00  0.00    -0.449 OA
BRANCH   2  20
ATOM      3  O   UNL     1       3.351 -13.242  -6.697  0.00  0.00    -0.226 OA
ATOM      7  N   UNL     1       2.109 -12.787  -4.791  0.00  0.00    -0.279 N 
ATOM     20  C   UNL     1       3.060 -13.463  -5.527  0.00  0.00    +0.401 C 
ATOM     31  H   UNL     1       1.933 -13.103  -3.843  0.00  0.00    +0.152 HD
BRANCH   7  23
ATOM     23  C   UNL     1       1.312 -11.703  -5.316  0.00  0.00    +0.070 C 
ATOM     26  C   UNL     1      -0.171 -12.048  -5.250  0.00  0.00    +0.027 C 
ATOM     27  C   UNL     1       1.612 -10.413  -4.564  0.00  0.00    +0.027 C 
ENDBRANCH   7  23
ENDBRANCH   2  20
ENDBRANCH  15   2
ENDBRANCH  10  15
TORSDOF 6
ENDMDL
MODEL 7
REMARK VINA RESULT:      -6.5     27.130     30.760
REMARK  Name = 40776885
REMARK  9 active torsions:
REMARK  status: ('A' for Active; 'I' for Inactive)
REMARK    1  A    between atoms: O_2  and  C_15
REMARK    2  A    between atoms: O_2  and  C_20
REMARK    3  A    between atoms: N_7  and  C_23
REMARK    4  A    between atoms: C_9  and  C_16
REMARK    5  A    between atoms: C_10  and  C_15
REMARK    6  A    between atoms: C_18  and  C_21
REMARK    7  A    between atoms: C_19  and  C_22
REMARK    8  A    between atoms: C_23  and  C_26
REMARK    9  A    between atoms: C_23  and  C_27
REMARK                            x       y       z     vdW  Elec       q    Type
REMARK                         _______ _______ _______ _____ _____    ______ ____
ROOT
ATOM      4  N   UNL     1      -6.559 -12.382  17.406  0.00  0.00    -0.296 NA
ATOM      8  C   UNL     1      -6.960 -10.449  19.106  0.00  0.00    +0.002 C 
ATOM      9  C   UNL     1      -8.206 -11.374  19.030  0.00  0.00    +0.055 C 
ATOM     10  C   UNL     1      -6.217 -11.077  16.781  0.00  0.00    +0.095 C 
ATOM     11  C   UNL     1      -6.641  -9.908  17.695  0.00  0.00    +0.026 C 
ATOM     12  C   UNL     1      -5.770 -11.337  19.529  0.00  0.00    +0.019 C 
ATOM     13  C   UNL     1      -7.972 -12.373  17.861  0.00  0.00    +0.094 C 
ATOM     14  C   UNL     1      -5.692 -12.558  18.596  0.00  0.00    +0.085 C 
ENDROOT
BRANCH   9  16
ATOM      5  N   UNL     1     -10.500 -11.165  19.853  0.00  0.00    -0.237 NA
ATOM      6  N   UNL     1     -12.065  -9.597  18.904  0.00  0.00    -0.232 NA
ATOM     16  C   UNL     1      -9.581 -10.724  18.969  0.00  0.00    +0.050 A 
ATOM     17  C   UNL     1      -9.825  -9.738  18.036  0.00  0.00    +0.052 A 
ATOM     18  C   UNL     1     -11.098  -9.204  18.050  0.00  0.00    +0.075 A 
ATOM     19  C   UNL     1     -11.703 -10.566  19.766  0.00  0.00    +0.127 A 
ATOM     22  C   UNL     1     -12.747 -11.028  20.726  0.00  0.00    +0.088 C 
BRANCH  18  21
ATOM      1  F   UNL     1     -12.577  -5.196  14.472  0.00  0.00    -0.205 F 
ATOM     21  C   UNL     1     -11.482  -8.166  17.123  0.00  0.00    +0.001 A 
ATOM     24  C   UNL     1     -12.767  -8.154  16.582  0.00  0.00    +0.013 A 
ATOM     25  C   UNL     1     -10.566  -7.175  16.770  0.00  0.00    +0.013 A 
ATOM     28  C   UNL     1     -13.137  -7.151  15.686  0.00  0.00    +0.039 A 
ATOM     29  C   UNL     1     -10.936  -6.172  15.874  0.00  0.00    +0.039 A 
ATOM     30  C   UNL     1     -12.221  -6.160  15.332  0.00  0.00    +0.123 A 
ENDBRANCH  18  21
ENDBRANCH   9  16
BRANCH  10  15
ATOM     15  C   UNL     1      -6.794 -10.937  15.371  0.00  0.00    +0.252 C 
BRANCH  15   2
ATOM      2  O   UNL     1      -5.848 -10.259  14.567  0.00  0.00    -0.449 OA
BRANCH   2  20
ATOM      3  O   UNL     1      -4.792 -12.083  13.656  0.00  0.00    -0.226 OA
ATOM      7  N   UNL     1      -3.590 -10.276  14.476  0.00  0.00    -0.279 N 
ATOM     20  C   UNL     1      -4.742 -10.977  14.183  0.00  0.00    +0.401 C 
ATOM     31  H   UNL     1      -3.691  -9.346  14.872  0.00  0.00    +0.152 HD
BRANCH   7  23
ATOM     23  C   UNL     1      -2.261 -10.765  14.194  0.00  0.00    +0.070 C 
ATOM     26  C   UNL     1      -1.813 -10.327  12.805  0.00  0.00    +0.027 C 
ATOM     27  C   UNL     1      -1.285 -10.291  15.263  0.00  0.00    +0.027 C 
ENDBRANCH   7  23
ENDBRANCH   2  20
ENDBRANCH  15   2
ENDBRANCH  10  15
TORSDOF 6
ENDMDL
MODEL 8
REMARK VINA RESULT:      -6.4      3.173      4.865
REMARK  Name = 40776885
REMARK  9 active torsions:
REMARK  status: ('A' for Active; 'I' for Inactive)
REMARK    1  A    between atoms: O_2  and  C_15
REMARK    2  A    between atoms: O_2  and  C_20
REMARK    3  A    between atoms: N_7  and  C_23
REMARK    4  A    between atoms: C_9  and  C_16
REMARK    5  A    between atoms: C_10  and  C_15
REMARK    6  A    between atoms: C_18  and  C_21
REMARK    7  A    between atoms: C_19  and  C_22
REMARK    8  A    between atoms: C_23  and  C_26
REMARK    9  A    between atoms: C_23  and  C_27
REMARK                            x       y       z     vdW  Elec       q    Type
REMARK                         _______ _______ _______ _____ _____    ______ ____
ROOT
ATOM      4  N   UNL     1      11.721  10.300  22.054  0.00  0.00    -0.296 NA
ATOM      8  C   UNL     1      13.001   8.921  20.252  0.00  0.00    +0.002 C 
ATOM      9  C   UNL     1      13.747   8.861  21.614  0.00  0.00    +0.055 C 
ATOM     10  C   UNL     1      11.904  11.116  20.824  0.00  0.00    +0.095 C 
ATOM     11  C   UNL     1      12.836  10.395  19.826  0.00  0.00    +0.026 C 
ATOM     12  C   UNL     1      11.584   8.358  20.494  0.00  0.00    +0.019 C 
ATOM     13  C   UNL     1      13.041   9.861  22.573  0.00  0.00    +0.094 C 
ATOM     14  C   UNL     1      10.945   9.092  21.686  0.00  0.00    +0.085 C 
ENDROOT
BRANCH   9  16
ATOM      5  N   UNL     1      15.731  10.268  21.873  0.00  0.00    -0.237 NA
ATOM      6  N   UNL     1      17.964   9.397  21.623  0.00  0.00    -0.232 NA
ATOM     16  C   UNL     1      15.259   9.031  21.613  0.00  0.00    +0.050 A 
ATOM     17  C   UNL     1      16.065   7.943  21.352  0.00  0.00    +0.052 A 
ATOM     18  C   UNL     1      17.424   8.186  21.371  0.00  0.00    +0.075 A 
ATOM     19  C   UNL     1      17.073  10.378  21.862  0.00  0.00    +0.127 A 
ATOM     22  C   UNL     1      17.632  11.731  22.143  0.00  0.00    +0.088 C 
BRANCH  18  21
ATOM      1  F   UNL     1      21.094   4.115  20.370  0.00  0.00    -0.205 F 
ATOM     21  C   UNL     1      18.375   7.132  21.112  0.00  0.00    +0.001 A 
ATOM     24  C   UNL     1      19.531   7.029  21.886  0.00  0.00    +0.013 A 
ATOM     25  C   UNL     1      18.137   6.216  20.087  0.00  0.00    +0.013 A 
ATOM     28  C   UNL     1      20.449   6.010  21.636  0.00  0.00    +0.039 A 
ATOM     29  C   UNL     1      19.056   5.197  19.836  0.00  0.00    +0.039 A 
ATOM     30  C   UNL     1      20.212   5.093  20.610  0.00  0.00    +0.123 A 
ENDBRANCH  18  21
ENDBRANCH   9  16
BRANCH  10  15
ATOM     15  C   UNL     1      12.387  12.534  21.133  0.00  0.00    +0.252 C 
BRANCH  15   2
ATOM      2  O   UNL     1      11.323  13.432  20.882  0.00  0.00    -0.449 OA
BRANCH   2  20
ATOM      3  O   UNL     1       9.416  14.292  21.829  0.00  0.00    -0.226 OA
ATOM      7  N   UNL     1      11.018  13.207  23.110  0.00  0.00    -0.279 N 
ATOM     20  C   UNL     1      10.484  13.699  21.937  0.00  0.00    +0.401 C 
ATOM     31  H   UNL     1      11.891  12.693  23.052  0.00  0.00    +0.152 HD
BRANCH   7  23
ATOM     23  C   UNL     1      10.373  13.328  24.397  0.00  0.00    +0.070 C 
ATOM     26  C   UNL     1      10.849  12.230  25.340  0.00  0.00    +0.027 C 
ATOM     27  C   UNL     1      10.625  14.709  24.987  0.00  0.00    +0.027 C 
ENDBRANCH   7  23
ENDBRANCH   2  20
ENDBRANCH  15   2
ENDBRANCH  10  15
TORSDOF 6
ENDMDL
MODEL 9
REMARK VINA RESULT:      -6.4     28.084     29.408
REMARK  Name = 40776885
REMARK  9 active torsions:
REMARK  status: ('A' for Active; 'I' for Inactive)
REMARK    1  A    between atoms: O_2  and  C_15
REMARK    2  A    between atoms: O_2  and  C_20
REMARK    3  A    between atoms: N_7  and  C_23
REMARK    4  A    between atoms: C_9  and  C_16
REMARK    5  A    between atoms: C_10  and  C_15
REMARK    6  A    between atoms: C_18  and  C_21
REMARK    7  A    between atoms: C_19  and  C_22
REMARK    8  A    between atoms: C_23  and  C_26
REMARK    9  A    between atoms: C_23  and  C_27
REMARK                            x       y       z     vdW  Elec       q    Type
REMARK                         _______ _______ _______ _____ _____    ______ ____
ROOT
ATOM      4  N   UNL     1      -6.575 -10.413  18.017  0.00  0.00    -0.296 NA
ATOM      8  C   UNL     1      -4.744 -12.235  17.680  0.00  0.00    +0.002 C 
ATOM      9  C   UNL     1      -4.407 -10.965  16.850  0.00  0.00    +0.055 C 
ATOM     10  C   UNL     1      -7.209 -11.715  17.680  0.00  0.00    +0.095 C 
ATOM     11  C   UNL     1      -6.141 -12.753  17.274  0.00  0.00    +0.026 C 
ATOM     12  C   UNL     1      -4.836 -11.792  19.156  0.00  0.00    +0.019 C 
ATOM     13  C   UNL     1      -5.633 -10.013  16.942  0.00  0.00    +0.094 C 
ATOM     14  C   UNL     1      -5.798 -10.597  19.267  0.00  0.00    +0.085 C 
ENDROOT
BRANCH   9  16
ATOM      5  N   UNL     1      -2.906 -12.016  15.228  0.00  0.00    -0.237 NA
ATOM      6  N   UNL     1      -3.013 -11.519  12.873  0.00  0.00    -0.232 NA
ATOM     16  C   UNL     1      -3.924 -11.150  15.419  0.00  0.00    +0.050 A 
ATOM     17  C   UNL     1      -4.527 -10.441  14.401  0.00  0.00    +0.052 A 
ATOM     18  C   UNL     1      -4.026 -10.668  13.135  0.00  0.00    +0.075 A 
ATOM     19  C   UNL     1      -2.508 -12.151  13.950  0.00  0.00    +0.127 A 
ATOM     22  C   UNL     1      -1.384 -13.099  13.700  0.00  0.00    +0.088 C 
BRANCH  18  21
ATOM      1  F   UNL     1      -6.128  -8.041   8.694  0.00  0.00    -0.205 F 
ATOM     21  C   UNL     1      -4.570  -9.988  11.984  0.00  0.00    +0.001 A 
ATOM     24  C   UNL     1      -3.765  -9.746  10.871  0.00  0.00    +0.013 A 
ATOM     25  C   UNL     1      -5.902  -9.572  11.987  0.00  0.00    +0.013 A 
ATOM     28  C   UNL     1      -4.291  -9.088   9.760  0.00  0.00    +0.039 A 
ATOM     29  C   UNL     1      -6.428  -8.915  10.875  0.00  0.00    +0.039 A 
ATOM     30  C   UNL     1      -5.623  -8.672   9.761  0.00  0.00    +0.123 A 
ENDBRANCH  18  21
ENDBRANCH   9  16
BRANCH  10  15
ATOM     15  C   UNL     1      -8.299 -11.573  16.616  0.00  0.00    +0.252 C 
BRANCH  15   2
ATOM      2  O   UNL     1      -9.056 -10.413  16.903  0.00  0.00    -0.449 OA
BRANCH   2  20
ATOM      3  O   UNL     1      -8.578  -9.523  14.841  0.00  0.00    -0.226 OA
ATOM      7  N   UNL     1     -10.313  -8.697  16.141  0.00  0.00    -0.279 N 
ATOM     20  C   UNL     1      -9.256  -9.537  15.863  0.00  0.00    +0.401 C 
ATOM     31  H   UNL     1     -10.821  -8.846  17.008  0.00  0.00    +0.152 HD
BRANCH   7  23
ATOM     23  C   UNL     1     -10.773  -7.663  15.243  0.00  0.00    +0.070 C 
ATOM     26  C   UNL     1     -12.076  -8.078  14.571  0.00  0.00    +0.027 C 
ATOM     27  C   UNL     1     -10.933  -6.345  15.990  0.00  0.00    +0.027 C 
ENDBRANCH   7  23
ENDBRANCH   2  20
ENDBRANCH  15   2
ENDBRANCH  10  15
TORSDOF 6
ENDMDL
MODEL 10
REMARK VINA RESULT:      -6.4      3.209      5.004
REMARK  Name = 40776885
REMARK  9 active torsions:
REMARK  status: ('A' for Active; 'I' for Inactive)
REMARK    1  A    between atoms: O_2  and  C_15
REMARK    2  A    between atoms: O_2  and  C_20
REMARK    3  A    between atoms: N_7  and  C_23
REMARK    4  A    between atoms: C_9  and  C_16
REMARK    5  A    between atoms: C_10  and  C_15
REMARK    6  A    between atoms: C_18  and  C_21
REMARK    7  A    between atoms: C_19  and  C_22
REMARK    8  A    between atoms: C_23  and  C_26
REMARK    9  A    between atoms: C_23  and  C_27
REMARK                            x       y       z     vdW  Elec       q    Type
REMARK                         _______ _______ _______ _____ _____    ______ ____
ROOT
ATOM      4  N   UNL     1      12.353   9.039  21.818  0.00  0.00    -0.296 NA
ATOM      8  C   UNL     1      12.814   7.108  20.132  0.00  0.00    +0.002 C 
ATOM      9  C   UNL     1      13.921   7.154  21.221  0.00  0.00    +0.055 C 
ATOM     10  C   UNL     1      12.270   9.550  20.425  0.00  0.00    +0.095 C 
ATOM     11  C   UNL     1      12.741   8.476  19.421  0.00  0.00    +0.026 C 
ATOM     12  C   UNL     1      11.472   6.908  20.869  0.00  0.00    +0.019 C 
ATOM     13  C   UNL     1      13.691   8.442  22.062  0.00  0.00    +0.094 C 
ATOM     14  C   UNL     1      11.337   7.971  21.972  0.00  0.00    +0.085 C 
ENDROOT
BRANCH   9  16
ATOM      5  N   UNL     1      15.591   6.286  19.658  0.00  0.00    -0.237 NA
ATOM      6  N   UNL     1      17.949   6.696  19.942  0.00  0.00    -0.232 NA
ATOM     16  C   UNL     1      15.370   7.003  20.780  0.00  0.00    +0.050 A 
ATOM     17  C   UNL     1      16.372   7.587  21.526  0.00  0.00    +0.052 A 
ATOM     18  C   UNL     1      17.656   7.399  21.055  0.00  0.00    +0.075 A 
ATOM     19  C   UNL     1      16.884   6.175  19.302  0.00  0.00    +0.127 A 
ATOM     22  C   UNL     1      17.169   5.388  18.067  0.00  0.00    +0.088 C 
BRANCH  18  21
ATOM      1  F   UNL     1      22.049   9.556  23.719  0.00  0.00    -0.205 F 
ATOM     21  C   UNL     1      18.794   7.958  21.745  0.00  0.00    +0.001 A 
ATOM     24  C   UNL     1      18.853   9.329  21.996  0.00  0.00    +0.013 A 
ATOM     25  C   UNL     1      19.834   7.127  22.160  0.00  0.00    +0.013 A 
ATOM     28  C   UNL     1      19.952   9.869  22.663  0.00  0.00    +0.039 A 
ATOM     29  C   UNL     1      20.933   7.667  22.827  0.00  0.00    +0.039 A 
ATOM     30  C   UNL     1      20.993   9.038  23.078  0.00  0.00    +0.123 A 
ENDBRANCH  18  21
ENDBRANCH   9  16
BRANCH  10  15
ATOM     15  C   UNL     1      13.022  10.870  20.243  0.00  0.00    +0.252 C 
BRANCH  15   2
ATOM      2  O   UNL     1      12.127  11.934  20.503  0.00  0.00    -0.449 OA
BRANCH   2  20
ATOM      3  O   UNL     1      13.048  13.493  21.914  0.00  0.00    -0.226 OA
ATOM      7  N   UNL     1      11.408  12.023  22.643  0.00  0.00    -0.279 N 
ATOM     20  C   UNL     1      12.266  12.571  21.713  0.00  0.00    +0.401 C 
ATOM     31  H   UNL     1      10.777  11.291  22.332  0.00  0.00    +0.152 HD
BRANCH   7  23
ATOM     23  C   UNL     1      11.316  12.475  24.012  0.00  0.00    +0.070 C 
ATOM     26  C   UNL     1      10.174  13.471  24.171  0.00  0.00    +0.027 C 
ATOM     27  C   UNL     1      11.148  11.289  24.952  0.00  0.00    +0.027 C 
ENDBRANCH   7  23
ENDBRANCH   2  20
ENDBRANCH  15   2
ENDBRANCH  10  15
TORSDOF 6
ENDMDL
