MODEL 1
REMARK VINA RESULT:      -6.3      0.000      0.000
REMARK  Name = 75367104
REMARK  9 active torsions:
REMARK  status: ('A' for Active; 'I' for Inactive)
REMARK    1  A    between atoms: O_2  and  C_9
REMARK    2  A    between atoms: N_5  and  C_8
REMARK    3  A    between atoms: N_5  and  C_13
REMARK    4  A    between atoms: N_6  and  C_14
REMARK    5  A    between atoms: C_10  and  C_14
REMARK    6  A    between atoms: C_12  and  C_13
REMARK    7  A    between atoms: C_12  and  C_15
REMARK    8  A    between atoms: C_12  and  C_16
REMARK    9  A    between atoms: C_12  and  C_17
REMARK                            x       y       z     vdW  Elec       q    Type
REMARK                         _______ _______ _______ _____ _____    ______ ____
ROOT
ATOM      1  O   UNL     1      13.117   7.865  21.866  0.00  0.00    -0.371 OA
ATOM      8  C   UNL     1      11.182   8.927  22.744  0.00  0.00    +0.111 C 
ATOM      9  C   UNL     1      10.760   7.932  21.679  0.00  0.00    +0.164 C 
ATOM     10  C   UNL     1      11.978   7.020  21.632  0.00  0.00    +0.165 C 
ATOM     11  C   UNL     1      12.655   9.110  22.417  0.00  0.00    +0.181 C 
ENDROOT
BRANCH   9   2
ATOM      2  O   UNL     1       9.585   7.225  22.028  0.00  0.00    -0.388 OA
ATOM     24  H   UNL     1       9.780   6.273  21.992  0.00  0.00    +0.210 HD
ENDBRANCH   9   2
BRANCH   8   5
ATOM      5  N   UNL     1      10.434  10.173  22.707  0.00  0.00    -0.308 NA
ATOM     23  H   UNL     1      10.236  10.469  23.660  0.00  0.00    +0.122 HD
BRANCH   5  13
ATOM     13  C   UNL     1      11.188  11.218  22.023  0.00  0.00    +0.087 C 
BRANCH  13  12
ATOM     12  C   UNL     1      11.268  12.555  22.805  0.00  0.00    -0.025 C 
ATOM     15  C   UNL     1      10.525  13.633  21.995  0.00  0.00    +0.012 C 
ATOM     16  C   UNL     1      10.597  12.424  24.184  0.00  0.00    +0.012 C 
ATOM     17  C   UNL     1      12.728  13.004  22.991  0.00  0.00    +0.012 C 
ENDBRANCH  13  12
ENDBRANCH   5  13
ENDBRANCH   8   5
BRANCH  10  14
ATOM     14  C   UNL     1      12.138   6.301  20.303  0.00  0.00    +0.140 C 
BRANCH  14   6
ATOM      3  O   UNL     1      12.977   9.886  15.046  0.00  0.00    -0.377 OA
ATOM      4  O   UNL     1      14.428   7.304  19.009  0.00  0.00    -0.253 OA
ATOM      6  N   UNL     1      12.143   7.231  19.195  0.00  0.00    -0.297 N 
ATOM      7  N   UNL     1      13.162   8.586  17.549  0.00  0.00    -0.281 N 
ATOM     18  C   UNL     1      13.321   7.680  18.610  0.00  0.00    +0.302 C 
ATOM     19  C   UNL     1      14.351   9.116  16.878  0.00  0.00    +0.137 C 
ATOM     20  C   UNL     1      11.898   9.198  17.113  0.00  0.00    +0.137 C 
ATOM     21  C   UNL     1      14.158   9.149  15.370  0.00  0.00    +0.179 C 
ATOM     22  C   UNL     1      11.819   9.253  15.591  0.00  0.00    +0.179 C 
ATOM     25  H   UNL     1      11.237   7.551  18.883  0.00  0.00    +0.150 HD
ENDBRANCH  14   6
ENDBRANCH  10  14
TORSDOF 6
ENDMDL
MODEL 2
REMARK VINA RESULT:      -6.1      5.075      7.394
REMARK  Name = 75367104
REMARK  9 active torsions:
REMARK  status: ('A' for Active; 'I' for Inactive)
REMARK    1  A    between atoms: O_2  and  C_9
REMARK    2  A    between atoms: N_5  and  C_8
REMARK    3  A    between atoms: N_5  and  C_13
REMARK    4  A    between atoms: N_6  and  C_14
REMARK    5  A    between atoms: C_10  and  C_14
REMARK    6  A    between atoms: C_12  and  C_13
REMARK    7  A    between atoms: C_12  and  C_15
REMARK    8  A    between atoms: C_12  and  C_16
REMARK    9  A    between atoms: C_12  and  C_17
REMARK                            x       y       z     vdW  Elec       q    Type
REMARK                         _______ _______ _______ _____ _____    ______ ____
ROOT
ATOM      1  O   UNL     1      17.263   5.995  19.023  0.00  0.00    -0.371 OA
ATOM      8  C   UNL     1      17.782   6.419  21.301  0.00  0.00    +0.111 C 
ATOM      9  C   UNL     1      16.440   7.048  20.974  0.00  0.00    +0.164 C 
ATOM     10  C   UNL     1      16.042   6.260  19.733  0.00  0.00    +0.165 C 
ATOM     11  C   UNL     1      18.369   6.223  19.913  0.00  0.00    +0.181 C 
ENDROOT
BRANCH   9   2
ATOM      2  O   UNL     1      15.498   6.899  22.019  0.00  0.00    -0.388 OA
ATOM     24  H   UNL     1      14.978   7.720  22.080  0.00  0.00    +0.210 HD
ENDBRANCH   9   2
BRANCH   8   5
ATOM      5  N   UNL     1      18.618   7.243  22.159  0.00  0.00    -0.308 NA
ATOM     23  H   UNL     1      18.648   6.827  23.088  0.00  0.00    +0.122 HD
BRANCH   5  13
ATOM     13  C   UNL     1      19.973   7.344  21.631  0.00  0.00    +0.087 C 
BRANCH  13  12
ATOM     12  C   UNL     1      21.071   6.839  22.602  0.00  0.00    -0.025 C 
ATOM     15  C   UNL     1      22.349   7.664  22.358  0.00  0.00    +0.012 C 
ATOM     16  C   UNL     1      20.636   7.028  24.066  0.00  0.00    +0.012 C 
ATOM     17  C   UNL     1      21.393   5.355  22.355  0.00  0.00    +0.012 C 
ENDBRANCH  13  12
ENDBRANCH   5  13
ENDBRANCH   8   5
BRANCH  10  14
ATOM     14  C   UNL     1      15.076   7.009  18.831  0.00  0.00    +0.140 C 
BRANCH  14   6
ATOM      3  O   UNL     1      10.852  10.087  22.555  0.00  0.00    -0.377 OA
ATOM      4  O   UNL     1      12.350   6.590  19.393  0.00  0.00    -0.253 OA
ATOM      6  N   UNL     1      14.224   7.898  19.589  0.00  0.00    -0.297 N 
ATOM      7  N   UNL     1      12.185   8.582  20.570  0.00  0.00    -0.281 N 
ATOM     18  C   UNL     1      12.883   7.618  19.823  0.00  0.00    +0.302 C 
ATOM     19  C   UNL     1      10.764   8.371  20.857  0.00  0.00    +0.137 C 
ATOM     20  C   UNL     1      12.699   9.895  20.987  0.00  0.00    +0.137 C 
ATOM     21  C   UNL     1      10.438   8.745  22.294  0.00  0.00    +0.179 C 
ATOM     22  C   UNL     1      12.267  10.218  22.413  0.00  0.00    +0.179 C 
ATOM     25  H   UNL     1      14.658   8.747  19.924  0.00  0.00    +0.150 HD
ENDBRANCH  14   6
ENDBRANCH  10  14
TORSDOF 6
ENDMDL
MODEL 3
REMARK VINA RESULT:      -5.7     25.938     28.099
REMARK  Name = 75367104
REMARK  9 active torsions:
REMARK  status: ('A' for Active; 'I' for Inactive)
REMARK    1  A    between atoms: O_2  and  C_9
REMARK    2  A    between atoms: N_5  and  C_8
REMARK    3  A    between atoms: N_5  and  C_13
REMARK    4  A    between atoms: N_6  and  C_14
REMARK    5  A    between atoms: C_10  and  C_14
REMARK    6  A    between atoms: C_12  and  C_13
REMARK    7  A    between atoms: C_12  and  C_15
REMARK    8  A    between atoms: C_12  and  C_16
REMARK    9  A    between atoms: C_12  and  C_17
REMARK                            x       y       z     vdW  Elec       q    Type
REMARK                         _______ _______ _______ _____ _____    ______ ____
ROOT
ATOM      1  O   UNL     1      -3.118 -11.043  16.923  0.00  0.00    -0.371 OA
ATOM      8  C   UNL     1      -3.979 -10.569  14.761  0.00  0.00    +0.111 C 
ATOM      9  C   UNL     1      -5.118 -10.542  15.763  0.00  0.00    +0.164 C 
ATOM     10  C   UNL     1      -4.357 -10.328  17.065  0.00  0.00    +0.165 C 
ATOM     11  C   UNL     1      -2.919 -11.340  15.530  0.00  0.00    +0.181 C 
ENDROOT
BRANCH   9   2
ATOM      2  O   UNL     1      -6.040  -9.499  15.513  0.00  0.00    -0.388 OA
ATOM     24  H   UNL     1      -6.123  -9.389  14.550  0.00  0.00    +0.210 HD
ENDBRANCH   9   2
BRANCH   8   5
ATOM      5  N   UNL     1      -4.329 -11.195  13.497  0.00  0.00    -0.308 NA
ATOM     23  H   UNL     1      -5.252 -11.617  13.581  0.00  0.00    +0.122 HD
BRANCH   5  13
ATOM     13  C   UNL     1      -4.341 -10.220  12.413  0.00  0.00    +0.087 C 
BRANCH  13  12
ATOM     12  C   UNL     1      -3.263 -10.469  11.326  0.00  0.00    -0.025 C 
ATOM     15  C   UNL     1      -3.510 -11.859  10.711  0.00  0.00    +0.012 C 
ATOM     16  C   UNL     1      -3.356  -9.413  10.210  0.00  0.00    +0.012 C 
ATOM     17  C   UNL     1      -1.848 -10.446  11.929  0.00  0.00    +0.012 C 
ENDBRANCH  13  12
ENDBRANCH   5  13
ENDBRANCH   8   5
BRANCH  10  14
ATOM     14  C   UNL     1      -5.104 -10.835  18.286  0.00  0.00    +0.140 C 
BRANCH  14   6
ATOM      3  O   UNL     1     -11.404  -9.723  18.800  0.00  0.00    -0.377 OA
ATOM      4  O   UNL     1      -7.063 -11.696  20.115  0.00  0.00    -0.253 OA
ATOM      6  N   UNL     1      -6.527 -10.606  18.169  0.00  0.00    -0.297 N 
ATOM      7  N   UNL     1      -8.781 -10.773  18.861  0.00  0.00    -0.281 N 
ATOM     18  C   UNL     1      -7.432 -11.067  19.118  0.00  0.00    +0.302 C 
ATOM     19  C   UNL     1      -9.804 -11.227  19.806  0.00  0.00    +0.137 C 
ATOM     20  C   UNL     1      -9.318 -10.167  17.634  0.00  0.00    +0.137 C 
ATOM     21  C   UNL     1     -10.844 -10.144  20.045  0.00  0.00    +0.179 C 
ATOM     22  C   UNL     1     -10.402  -9.146  17.962  0.00  0.00    +0.179 C 
ATOM     25  H   UNL     1      -6.829 -10.108  17.344  0.00  0.00    +0.150 HD
ENDBRANCH  14   6
ENDBRANCH  10  14
TORSDOF 6
ENDMDL
MODEL 4
REMARK VINA RESULT:      -5.6      3.212      7.197
REMARK  Name = 75367104
REMARK  9 active torsions:
REMARK  status: ('A' for Active; 'I' for Inactive)
REMARK    1  A    between atoms: O_2  and  C_9
REMARK    2  A    between atoms: N_5  and  C_8
REMARK    3  A    between atoms: N_5  and  C_13
REMARK    4  A    between atoms: N_6  and  C_14
REMARK    5  A    between atoms: C_10  and  C_14
REMARK    6  A    between atoms: C_12  and  C_13
REMARK    7  A    between atoms: C_12  and  C_15
REMARK    8  A    between atoms: C_12  and  C_16
REMARK    9  A    between atoms: C_12  and  C_17
REMARK                            x       y       z     vdW  Elec       q    Type
REMARK                         _______ _______ _______ _____ _____    ______ ____
ROOT
ATOM      1  O   UNL     1      12.494   8.980  18.386  0.00  0.00    -0.371 OA
ATOM      8  C   UNL     1      13.351   7.159  19.647  0.00  0.00    +0.111 C 
ATOM      9  C   UNL     1      13.450   8.425  20.477  0.00  0.00    +0.164 C 
ATOM     10  C   UNL     1      12.424   9.311  19.783  0.00  0.00    +0.165 C 
ATOM     11  C   UNL     1      13.189   7.728  18.248  0.00  0.00    +0.181 C 
ENDROOT
BRANCH   9   2
ATOM      2  O   UNL     1      13.128   8.212  21.838  0.00  0.00    -0.388 OA
ATOM     24  H   UNL     1      12.174   8.033  21.902  0.00  0.00    +0.210 HD
ENDBRANCH   9   2
BRANCH   8   5
ATOM      5  N   UNL     1      14.508   6.287  19.774  0.00  0.00    -0.308 NA
ATOM     23  H   UNL     1      14.350   5.446  19.222  0.00  0.00    +0.122 HD
BRANCH   5  13
ATOM     13  C   UNL     1      15.720   6.951  19.307  0.00  0.00    +0.087 C 
BRANCH  13  12
ATOM     12  C   UNL     1      16.873   6.965  20.344  0.00  0.00    -0.025 C 
ATOM     15  C   UNL     1      16.372   6.285  21.632  0.00  0.00    +0.012 C 
ATOM     16  C   UNL     1      18.092   6.188  19.818  0.00  0.00    +0.012 C 
ATOM     17  C   UNL     1      17.296   8.404  20.685  0.00  0.00    +0.012 C 
ENDBRANCH  13  12
ENDBRANCH   5  13
ENDBRANCH   8   5
BRANCH  10  14
ATOM     14  C   UNL     1      12.687  10.794  19.972  0.00  0.00    +0.140 C 
BRANCH  14   6
ATOM      3  O   UNL     1      10.686  13.122  25.608  0.00  0.00    -0.377 OA
ATOM      4  O   UNL     1      11.619  13.279  20.752  0.00  0.00    -0.253 OA
ATOM      6  N   UNL     1      12.423  11.210  21.332  0.00  0.00    -0.297 N 
ATOM      7  N   UNL     1      11.700  12.719  23.001  0.00  0.00    -0.281 N 
ATOM     18  C   UNL     1      11.893  12.459  21.634  0.00  0.00    +0.302 C 
ATOM     19  C   UNL     1      11.152  14.014  23.412  0.00  0.00    +0.137 C 
ATOM     20  C   UNL     1      12.137  11.866  24.117  0.00  0.00    +0.137 C 
ATOM     21  C   UNL     1      10.118  13.843  24.513  0.00  0.00    +0.179 C 
ATOM     22  C   UNL     1      11.071  11.808  25.205  0.00  0.00    +0.179 C 
ATOM     25  H   UNL     1      12.666  10.545  22.053  0.00  0.00    +0.150 HD
ENDBRANCH  14   6
ENDBRANCH  10  14
TORSDOF 6
ENDMDL
MODEL 5
REMARK VINA RESULT:      -5.5      2.013      2.595
REMARK  Name = 75367104
REMARK  9 active torsions:
REMARK  status: ('A' for Active; 'I' for Inactive)
REMARK    1  A    between atoms: O_2  and  C_9
REMARK    2  A    between atoms: N_5  and  C_8
REMARK    3  A    between atoms: N_5  and  C_13
REMARK    4  A    between atoms: N_6  and  C_14
REMARK    5  A    between atoms: C_10  and  C_14
REMARK    6  A    between atoms: C_12  and  C_13
REMARK    7  A    between atoms: C_12  and  C_15
REMARK    8  A    between atoms: C_12  and  C_16
REMARK    9  A    between atoms: C_12  and  C_17
REMARK                            x       y       z     vdW  Elec       q    Type
REMARK                         _______ _______ _______ _____ _____    ______ ____
ROOT
ATOM      1  O   UNL     1      13.628   8.363  19.960  0.00  0.00    -0.371 OA
ATOM      8  C   UNL     1      12.225   8.365  21.876  0.00  0.00    +0.111 C 
ATOM      9  C   UNL     1      11.360   8.371  20.630  0.00  0.00    +0.164 C 
ATOM     10  C   UNL     1      12.340   7.844  19.591  0.00  0.00    +0.165 C 
ATOM     11  C   UNL     1      13.560   8.831  21.318  0.00  0.00    +0.181 C 
ENDROOT
BRANCH   9   2
ATOM      2  O   UNL     1      10.222   7.539  20.751  0.00  0.00    -0.388 OA
ATOM     24  H   UNL     1      10.460   6.774  21.303  0.00  0.00    +0.210 HD
ENDBRANCH   9   2
BRANCH   8   5
ATOM      5  N   UNL     1      11.724   9.223  22.937  0.00  0.00    -0.308 NA
ATOM     23  H   UNL     1      12.481   9.422  23.588  0.00  0.00    +0.122 HD
BRANCH   5  13
ATOM     13  C   UNL     1      11.208  10.477  22.400  0.00  0.00    +0.087 C 
BRANCH  13  12
ATOM     12  C   UNL     1      11.552  11.722  23.257  0.00  0.00    -0.025 C 
ATOM     15  C   UNL     1      10.860  12.947  22.629  0.00  0.00    +0.012 C 
ATOM     16  C   UNL     1      11.043  11.554  24.698  0.00  0.00    +0.012 C 
ATOM     17  C   UNL     1      13.069  11.979  23.281  0.00  0.00    +0.012 C 
ENDBRANCH  13  12
ENDBRANCH   5  13
ENDBRANCH   8   5
BRANCH  10  14
ATOM     14  C   UNL     1      12.001   8.273  18.174  0.00  0.00    +0.140 C 
BRANCH  14   6
ATOM      3  O   UNL     1      14.799  13.422  15.558  0.00  0.00    -0.377 OA
ATOM      4  O   UNL     1      12.708   8.939  15.532  0.00  0.00    -0.253 OA
ATOM      6  N   UNL     1      12.772   9.429  17.772  0.00  0.00    -0.297 N 
ATOM      7  N   UNL     1      13.841  10.845  16.211  0.00  0.00    -0.281 N 
ATOM     18  C   UNL     1      13.080   9.687  16.442  0.00  0.00    +0.302 C 
ATOM     19  C   UNL     1      14.218  11.190  14.838  0.00  0.00    +0.137 C 
ATOM     20  C   UNL     1      14.449  11.703  17.239  0.00  0.00    +0.137 C 
ATOM     21  C   UNL     1      14.056  12.681  14.587  0.00  0.00    +0.179 C 
ATOM     22  C   UNL     1      14.303  13.175  16.873  0.00  0.00    +0.179 C 
ATOM     25  H   UNL     1      13.090  10.030  18.519  0.00  0.00    +0.150 HD
ENDBRANCH  14   6
ENDBRANCH  10  14
TORSDOF 6
ENDMDL
MODEL 6
REMARK VINA RESULT:      -5.4      6.278      8.708
REMARK  Name = 75367104
REMARK  9 active torsions:
REMARK  status: ('A' for Active; 'I' for Inactive)
REMARK    1  A    between atoms: O_2  and  C_9
REMARK    2  A    between atoms: N_5  and  C_8
REMARK    3  A    between atoms: N_5  and  C_13
REMARK    4  A    between atoms: N_6  and  C_14
REMARK    5  A    between atoms: C_10  and  C_14
REMARK    6  A    between atoms: C_12  and  C_13
REMARK    7  A    between atoms: C_12  and  C_15
REMARK    8  A    between atoms: C_12  and  C_16
REMARK    9  A    between atoms: C_12  and  C_17
REMARK                            x       y       z     vdW  Elec       q    Type
REMARK                         _______ _______ _______ _____ _____    ______ ____
ROOT
ATOM      1  O   UNL     1      17.284   6.245  19.872  0.00  0.00    -0.371 OA
ATOM      8  C   UNL     1      19.436   5.738  20.739  0.00  0.00    +0.111 C 
ATOM      9  C   UNL     1      18.986   7.080  21.286  0.00  0.00    +0.164 C 
ATOM     10  C   UNL     1      17.479   6.987  21.087  0.00  0.00    +0.165 C 
ATOM     11  C   UNL     1      18.513   5.577  19.542  0.00  0.00    +0.181 C 
ENDROOT
BRANCH   9   2
ATOM      2  O   UNL     1      19.329   7.257  22.647  0.00  0.00    -0.388 OA
ATOM     24  H   UNL     1      20.136   7.799  22.690  0.00  0.00    +0.210 HD
ENDBRANCH   9   2
BRANCH   8   5
ATOM      5  N   UNL     1      20.844   5.698  20.379  0.00  0.00    -0.308 NA
ATOM     23  H   UNL     1      21.361   6.324  20.993  0.00  0.00    +0.122 HD
BRANCH   5  13
ATOM     13  C   UNL     1      21.379   4.347  20.504  0.00  0.00    +0.087 C 
BRANCH  13  12
ATOM     12  C   UNL     1      22.674   4.256  21.352  0.00  0.00    -0.025 C 
ATOM     15  C   UNL     1      22.318   4.585  22.814  0.00  0.00    +0.012 C 
ATOM     16  C   UNL     1      23.266   2.837  21.298  0.00  0.00    +0.012 C 
ATOM     17  C   UNL     1      23.730   5.265  20.868  0.00  0.00    +0.012 C 
ENDBRANCH  13  12
ENDBRANCH   5  13
ENDBRANCH   8   5
BRANCH  10  14
ATOM     14  C   UNL     1      16.804   8.342  20.976  0.00  0.00    +0.140 C 
BRANCH  14   6
ATOM      3  O   UNL     1      10.773   8.361  18.779  0.00  0.00    -0.377 OA
ATOM      4  O   UNL     1      14.319   7.799  22.182  0.00  0.00    -0.253 OA
ATOM      6  N   UNL     1      15.535   8.247  20.289  0.00  0.00    -0.297 N 
ATOM      7  N   UNL     1      13.200   7.905  20.154  0.00  0.00    -0.281 N 
ATOM     18  C   UNL     1      14.349   7.973  20.960  0.00  0.00    +0.302 C 
ATOM     19  C   UNL     1      11.906   7.614  20.778  0.00  0.00    +0.137 C 
ATOM     20  C   UNL     1      13.167   7.949  18.685  0.00  0.00    +0.137 C 
ATOM     21  C   UNL     1      10.812   8.499  20.201  0.00  0.00    +0.179 C 
ATOM     22  C   UNL     1      12.000   8.799  18.193  0.00  0.00    +0.179 C 
ATOM     25  H   UNL     1      15.563   8.371  19.287  0.00  0.00    +0.150 HD
ENDBRANCH  14   6
ENDBRANCH  10  14
TORSDOF 6
ENDMDL
MODEL 7
REMARK VINA RESULT:      -5.4     13.772     16.624
REMARK  Name = 75367104
REMARK  9 active torsions:
REMARK  status: ('A' for Active; 'I' for Inactive)
REMARK    1  A    between atoms: O_2  and  C_9
REMARK    2  A    between atoms: N_5  and  C_8
REMARK    3  A    between atoms: N_5  and  C_13
REMARK    4  A    between atoms: N_6  and  C_14
REMARK    5  A    between atoms: C_10  and  C_14
REMARK    6  A    between atoms: C_12  and  C_13
REMARK    7  A    between atoms: C_12  and  C_15
REMARK    8  A    between atoms: C_12  and  C_16
REMARK    9  A    between atoms: C_12  and  C_17
REMARK                            x       y       z     vdW  Elec       q    Type
REMARK                         _______ _______ _______ _____ _____    ______ ____
ROOT
ATOM      1  O   UNL     1      13.875   9.142   5.235  0.00  0.00    -0.371 OA
ATOM      8  C   UNL     1      12.417   8.127   6.811  0.00  0.00    +0.111 C 
ATOM      9  C   UNL     1      13.391   7.084   6.296  0.00  0.00    +0.164 C 
ATOM     10  C   UNL     1      14.512   7.968   5.765  0.00  0.00    +0.165 C 
ATOM     11  C   UNL     1      12.530   9.200   5.741  0.00  0.00    +0.181 C 
ENDROOT
BRANCH   9   2
ATOM      2  O   UNL     1      13.844   6.211   7.312  0.00  0.00    -0.388 OA
ATOM     24  H   UNL     1      14.561   5.663   6.947  0.00  0.00    +0.210 HD
ENDBRANCH   9   2
BRANCH   8   5
ATOM      5  N   UNL     1      11.061   7.629   6.973  0.00  0.00    -0.308 NA
ATOM     23  H   UNL     1      10.449   8.406   7.214  0.00  0.00    +0.122 HD
BRANCH   5  13
ATOM     13  C   UNL     1      10.583   6.998   5.748  0.00  0.00    +0.087 C 
BRANCH  13  12
ATOM     12  C   UNL     1       9.610   5.814   5.983  0.00  0.00    -0.025 C 
ATOM     15  C   UNL     1       8.191   6.270   5.595  0.00  0.00    +0.012 C 
ATOM     16  C   UNL     1       9.995   4.607   5.111  0.00  0.00    +0.012 C 
ATOM     17  C   UNL     1       9.598   5.389   7.462  0.00  0.00    +0.012 C 
ENDBRANCH  13  12
ENDBRANCH   5  13
ENDBRANCH   8   5
BRANCH  10  14
ATOM     14  C   UNL     1      15.339   7.300   4.680  0.00  0.00    +0.140 C 
BRANCH  14   6
ATOM      3  O   UNL     1      12.575   3.494   0.314  0.00  0.00    -0.377 OA
ATOM      4  O   UNL     1      15.694   6.989   1.905  0.00  0.00    -0.253 OA
ATOM      6  N   UNL     1      14.517   6.489   3.810  0.00  0.00    -0.297 N 
ATOM      7  N   UNL     1      13.869   5.568   1.732  0.00  0.00    -0.281 N 
ATOM     18  C   UNL     1      14.759   6.388   2.445  0.00  0.00    +0.302 C 
ATOM     19  C   UNL     1      14.045   5.411   0.286  0.00  0.00    +0.137 C 
ATOM     20  C   UNL     1      12.650   4.943   2.264  0.00  0.00    +0.137 C 
ATOM     21  C   UNL     1      13.849   3.962  -0.132  0.00  0.00    +0.179 C 
ATOM     22  C   UNL     1      12.496   3.519   1.740  0.00  0.00    +0.179 C 
ATOM     25  H   UNL     1      13.742   6.013   4.250  0.00  0.00    +0.150 HD
ENDBRANCH  14   6
ENDBRANCH  10  14
TORSDOF 6
ENDMDL
MODEL 8
REMARK VINA RESULT:      -5.3     25.689     27.178
REMARK  Name = 75367104
REMARK  9 active torsions:
REMARK  status: ('A' for Active; 'I' for Inactive)
REMARK    1  A    between atoms: O_2  and  C_9
REMARK    2  A    between atoms: N_5  and  C_8
REMARK    3  A    between atoms: N_5  and  C_13
REMARK    4  A    between atoms: N_6  and  C_14
REMARK    5  A    between atoms: C_10  and  C_14
REMARK    6  A    between atoms: C_12  and  C_13
REMARK    7  A    between atoms: C_12  and  C_15
REMARK    8  A    between atoms: C_12  and  C_16
REMARK    9  A    between atoms: C_12  and  C_17
REMARK                            x       y       z     vdW  Elec       q    Type
REMARK                         _______ _______ _______ _____ _____    ______ ____
ROOT
ATOM      1  O   UNL     1      -3.880 -10.299  13.790  0.00  0.00    -0.371 OA
ATOM      8  C   UNL     1      -3.443 -10.986  16.021  0.00  0.00    +0.111 C 
ATOM      9  C   UNL     1      -2.317 -11.467  15.126  0.00  0.00    +0.164 C 
ATOM     10  C   UNL     1      -2.470 -10.531  13.934  0.00  0.00    +0.165 C 
ATOM     11  C   UNL     1      -4.536 -10.704  15.004  0.00  0.00    +0.181 C 
ENDROOT
BRANCH   9   2
ATOM      2  O   UNL     1      -1.045 -11.344  15.734  0.00  0.00    -0.388 OA
ATOM     24  H   UNL     1      -0.374 -11.299  15.031  0.00  0.00    +0.210 HD
ENDBRANCH   9   2
BRANCH   8   5
ATOM      5  N   UNL     1      -3.842 -11.956  17.028  0.00  0.00    -0.308 NA
ATOM     23  H   UNL     1      -3.061 -12.584  17.210  0.00  0.00    +0.122 HD
BRANCH   5  13
ATOM     13  C   UNL     1      -4.231 -11.296  18.268  0.00  0.00    +0.087 C 
BRANCH  13  12
ATOM     12  C   UNL     1      -5.736 -11.434  18.614  0.00  0.00    -0.025 C 
ATOM     15  C   UNL     1      -6.243 -12.771  18.040  0.00  0.00    +0.012 C 
ATOM     16  C   UNL     1      -5.951 -11.439  20.137  0.00  0.00    +0.012 C 
ATOM     17  C   UNL     1      -6.558 -10.293  17.989  0.00  0.00    +0.012 C 
ENDBRANCH  13  12
ENDBRANCH   5  13
ENDBRANCH   8   5
BRANCH  10  14
ATOM     14  C   UNL     1      -1.910 -11.105  12.644  0.00  0.00    +0.140 C 
BRANCH  14   6
ATOM      3  O   UNL     1      -6.041 -10.104   7.835  0.00  0.00    -0.377 OA
ATOM      4  O   UNL     1      -3.312 -12.838  10.926  0.00  0.00    -0.253 OA
ATOM      6  N   UNL     1      -2.698 -10.704  11.500  0.00  0.00    -0.297 N 
ATOM      7  N   UNL     1      -4.080 -11.082   9.621  0.00  0.00    -0.281 N 
ATOM     18  C   UNL     1      -3.362 -11.625  10.699  0.00  0.00    +0.302 C 
ATOM     19  C   UNL     1      -4.804 -11.982   8.719  0.00  0.00    +0.137 C 
ATOM     20  C   UNL     1      -4.069  -9.676   9.191  0.00  0.00    +0.137 C 
ATOM     21  C   UNL     1      -6.174 -11.421   8.374  0.00  0.00    +0.179 C 
ATOM     22  C   UNL     1      -5.469  -9.218   8.798  0.00  0.00    +0.179 C 
ATOM     25  H   UNL     1      -2.722  -9.713  11.305  0.00  0.00    +0.150 HD
ENDBRANCH  14   6
ENDBRANCH  10  14
TORSDOF 6
ENDMDL
MODEL 9
REMARK VINA RESULT:      -5.3     25.023     26.876
REMARK  Name = 75367104
REMARK  9 active torsions:
REMARK  status: ('A' for Active; 'I' for Inactive)
REMARK    1  A    between atoms: O_2  and  C_9
REMARK    2  A    between atoms: N_5  and  C_8
REMARK    3  A    between atoms: N_5  and  C_13
REMARK    4  A    between atoms: N_6  and  C_14
REMARK    5  A    between atoms: C_10  and  C_14
REMARK    6  A    between atoms: C_12  and  C_13
REMARK    7  A    between atoms: C_12  and  C_15
REMARK    8  A    between atoms: C_12  and  C_16
REMARK    9  A    between atoms: C_12  and  C_17
REMARK                            x       y       z     vdW  Elec       q    Type
REMARK                         _______ _______ _______ _____ _____    ______ ____
ROOT
ATOM      1  O   UNL     1      -1.394 -10.776  14.654  0.00  0.00    -0.371 OA
ATOM      8  C   UNL     1      -3.247 -11.074  16.109  0.00  0.00    +0.111 C 
ATOM      9  C   UNL     1      -3.743 -11.051  14.676  0.00  0.00    +0.164 C 
ATOM     10  C   UNL     1      -2.465 -11.389  13.918  0.00  0.00    +0.165 C 
ATOM     11  C   UNL     1      -1.877 -10.433  15.964  0.00  0.00    +0.181 C 
ENDROOT
BRANCH   9   2
ATOM      2  O   UNL     1      -4.764 -12.000  14.436  0.00  0.00    -0.388 OA
ATOM     24  H   UNL     1      -5.015 -12.400  15.287  0.00  0.00    +0.210 HD
ENDBRANCH   9   2
BRANCH   8   5
ATOM      5  N   UNL     1      -4.111 -10.363  17.037  0.00  0.00    -0.308 NA
ATOM     23  H   UNL     1      -4.949 -10.063  16.544  0.00  0.00    +0.122 HD
BRANCH   5  13
ATOM     13  C   UNL     1      -4.489 -11.213  18.160  0.00  0.00    +0.087 C 
BRANCH  13  12
ATOM     12  C   UNL     1      -6.000 -11.556  18.213  0.00  0.00    -0.025 C 
ATOM     15  C   UNL     1      -6.192 -12.983  17.666  0.00  0.00    +0.012 C 
ATOM     16  C   UNL     1      -6.522 -11.509  19.660  0.00  0.00    +0.012 C 
ATOM     17  C   UNL     1      -6.822 -10.586  17.346  0.00  0.00    +0.012 C 
ENDBRANCH  13  12
ENDBRANCH   5  13
ENDBRANCH   8   5
BRANCH  10  14
ATOM     14  C   UNL     1      -2.463 -10.878  12.488  0.00  0.00    +0.140 C 
BRANCH  14   6
ATOM      3  O   UNL     1      -7.823  -8.428   9.945  0.00  0.00    -0.377 OA
ATOM      4  O   UNL     1      -2.957  -9.279  10.225  0.00  0.00    -0.253 OA
ATOM      6  N   UNL     1      -3.733 -10.283  12.136  0.00  0.00    -0.297 N 
ATOM      7  N   UNL     1      -5.186  -8.987  10.796  0.00  0.00    -0.281 N 
ATOM     18  C   UNL     1      -3.895  -9.502  10.998  0.00  0.00    +0.302 C 
ATOM     19  C   UNL     1      -5.445  -8.147   9.624  0.00  0.00    +0.137 C 
ATOM     20  C   UNL     1      -6.313  -9.077  11.736  0.00  0.00    +0.137 C 
ATOM     21  C   UNL     1      -6.774  -8.507   8.978  0.00  0.00    +0.179 C 
ATOM     22  C   UNL     1      -7.614  -9.371  10.998  0.00  0.00    +0.179 C 
ATOM     25  H   UNL     1      -4.494 -10.451  12.779  0.00  0.00    +0.150 HD
ENDBRANCH  14   6
ENDBRANCH  10  14
TORSDOF 6
ENDMDL
MODEL 10
REMARK VINA RESULT:      -5.3     25.447     27.891
REMARK  Name = 75367104
REMARK  9 active torsions:
REMARK  status: ('A' for Active; 'I' for Inactive)
REMARK    1  A    between atoms: O_2  and  C_9
REMARK    2  A    between atoms: N_5  and  C_8
REMARK    3  A    between atoms: N_5  and  C_13
REMARK    4  A    between atoms: N_6  and  C_14
REMARK    5  A    between atoms: C_10  and  C_14
REMARK    6  A    between atoms: C_12  and  C_13
REMARK    7  A    between atoms: C_12  and  C_15
REMARK    8  A    between atoms: C_12  and  C_16
REMARK    9  A    between atoms: C_12  and  C_17
REMARK                            x       y       z     vdW  Elec       q    Type
REMARK                         _______ _______ _______ _____ _____    ______ ____
ROOT
ATOM      1  O   UNL     1      -4.274 -12.242  15.712  0.00  0.00    -0.371 OA
ATOM      8  C   UNL     1      -2.318 -12.026  14.382  0.00  0.00    +0.111 C 
ATOM      9  C   UNL     1      -2.518 -10.750  15.178  0.00  0.00    +0.164 C 
ATOM     10  C   UNL     1      -3.423 -11.243  16.299  0.00  0.00    +0.165 C 
ATOM     11  C   UNL     1      -3.703 -12.646  14.455  0.00  0.00    +0.181 C 
ENDROOT
BRANCH   9   2
ATOM      2  O   UNL     1      -1.304 -10.221  15.675  0.00  0.00    -0.388 OA
ATOM     24  H   UNL     1      -0.646 -10.241  14.959  0.00  0.00    +0.210 HD
ENDBRANCH   9   2
BRANCH   8   5
ATOM      5  N   UNL     1      -1.871 -11.797  13.017  0.00  0.00    -0.308 NA
ATOM     23  H   UNL     1      -2.311 -12.482  12.406  0.00  0.00    +0.122 HD
BRANCH   5  13
ATOM     13  C   UNL     1      -2.218 -10.454  12.569  0.00  0.00    +0.087 C 
BRANCH  13  12
ATOM     12  C   UNL     1      -3.262 -10.420  11.423  0.00  0.00    -0.025 C 
ATOM     15  C   UNL     1      -4.630 -10.047  12.026  0.00  0.00    +0.012 C 
ATOM     16  C   UNL     1      -2.885  -9.365  10.369  0.00  0.00    +0.012 C 
ATOM     17  C   UNL     1      -3.388 -11.794  10.743  0.00  0.00    +0.012 C 
ENDBRANCH  13  12
ENDBRANCH   5  13
ENDBRANCH   8   5
BRANCH  10  14
ATOM     14  C   UNL     1      -4.272 -10.143  16.912  0.00  0.00    +0.140 C 
BRANCH  14   6
ATOM      3  O   UNL     1      -9.489 -12.455  19.849  0.00  0.00    -0.377 OA
ATOM      4  O   UNL     1      -6.987  -9.400  16.869  0.00  0.00    -0.253 OA
ATOM      6  N   UNL     1      -5.309 -10.686  17.762  0.00  0.00    -0.297 N 
ATOM      7  N   UNL     1      -7.520 -10.879  18.574  0.00  0.00    -0.281 N 
ATOM     18  C   UNL     1      -6.631 -10.263  17.678  0.00  0.00    +0.302 C 
ATOM     19  C   UNL     1      -8.932 -10.489  18.561  0.00  0.00    +0.137 C 
ATOM     20  C   UNL     1      -7.157 -11.797  19.664  0.00  0.00    +0.137 C 
ATOM     21  C   UNL     1      -9.835 -11.706  18.682  0.00  0.00    +0.179 C 
ATOM     22  C   UNL     1      -8.152 -12.948  19.758  0.00  0.00    +0.179 C 
ATOM     25  H   UNL     1      -5.013 -11.378  18.435  0.00  0.00    +0.150 HD
ENDBRANCH  14   6
ENDBRANCH  10  14
TORSDOF 6
ENDMDL
