MODEL 1
REMARK VINA RESULT:      -6.8      0.000      0.000
REMARK  Name = 40586229
REMARK  7 active torsions:
REMARK  status: ('A' for Active; 'I' for Inactive)
REMARK    1  A    between atoms: O_3  and  C_12
REMARK    2  A    between atoms: O_3  and  C_21
REMARK    3  A    between atoms: O_6  and  C_28
REMARK    4  A    between atoms: O_6  and  C_29
REMARK    5  A    between atoms: N_7  and  C_11
REMARK    6  A    between atoms: N_8  and  C_15
REMARK    7  A    between atoms: C_22  and  C_23
REMARK                            x       y       z     vdW  Elec       q    Type
REMARK                         _______ _______ _______ _____ _____    ______ ____
ROOT
ATOM      1  O   UNL     1      -3.974 -12.097  14.443  0.00  0.00    -0.368 OA
ATOM      2  O   UNL     1      -2.055 -10.875  16.499  0.00  0.00    -0.368 OA
ATOM      9  C   UNL     1      -3.421 -10.556  16.159  0.00  0.00    +0.173 C 
ATOM     10  C   UNL     1      -3.555 -10.739  14.661  0.00  0.00    +0.192 C 
ATOM     11  C   UNL     1      -4.354 -11.595  16.735  0.00  0.00    +0.130 C 
ATOM     12  C   UNL     1      -2.144 -10.506  14.177  0.00  0.00    +0.235 C 
ATOM     13  C   UNL     1      -4.271 -12.710  15.707  0.00  0.00    +0.185 C 
ATOM     14  C   UNL     1      -1.319 -11.112  15.290  0.00  0.00    +0.207 C 
ENDROOT
BRANCH  11   7
ATOM      5  O   UNL     1      -5.593 -10.525  19.096  0.00  0.00    -0.270 OA
ATOM      7  N   UNL     1      -5.699 -11.085  16.848  0.00  0.00    -0.304 N 
ATOM     22  C   UNL     1      -6.211 -10.585  18.037  0.00  0.00    +0.244 C 
ATOM     30  H   UNL     1      -6.305 -11.201  16.042  0.00  0.00    +0.149 HD
BRANCH  22  23
ATOM     23  C   UNL     1      -7.623 -10.123  17.994  0.00  0.00    +0.037 A 
ATOM     24  C   UNL     1      -8.588 -10.758  18.775  0.00  0.00    +0.016 A 
ATOM     25  C   UNL     1      -7.982  -9.054  17.173  0.00  0.00    +0.016 A 
ATOM     26  C   UNL     1      -9.914 -10.326  18.733  0.00  0.00    +0.046 A 
ATOM     27  C   UNL     1      -9.307  -8.622  17.132  0.00  0.00    +0.046 A 
ATOM     28  C   UNL     1     -10.272  -9.257  17.911  0.00  0.00    +0.120 A 
BRANCH  28   6
ATOM      6  O   UNL     1     -11.567  -8.836  17.870  0.00  0.00    -0.495 OA
ATOM     29  C   UNL     1     -11.977  -8.115  16.709  0.00  0.00    +0.277 C 
ENDBRANCH  28   6
ENDBRANCH  22  23
ENDBRANCH  11   7
BRANCH  12   3
ATOM      3  O   UNL     1      -1.871 -11.103  12.928  0.00  0.00    -0.442 OA
BRANCH   3  21
ATOM      4  O   UNL     1      -1.132  -9.479  11.483  0.00  0.00    -0.226 OA
ATOM      8  N   UNL     1      -3.170 -10.540  11.162  0.00  0.00    -0.278 N 
ATOM     21  C   UNL     1      -1.982 -10.296  11.820  0.00  0.00    +0.401 C 
ATOM     31  H   UNL     1      -3.804 -11.214  11.579  0.00  0.00    +0.152 HD
BRANCH   8  15
ATOM     15  C   UNL     1      -3.578  -9.849   9.959  0.00  0.00    +0.076 C 
ATOM     16  C   UNL     1      -4.388 -10.772   9.042  0.00  0.00    +0.022 C 
ATOM     17  C   UNL     1      -4.360  -8.574  10.293  0.00  0.00    +0.022 C 
ATOM     18  C   UNL     1      -5.784 -11.065   9.591  0.00  0.00    +0.002 C 
ATOM     19  C   UNL     1      -5.755  -8.871  10.842  0.00  0.00    +0.002 C 
ATOM     20  C   UNL     1      -6.546  -9.782   9.907  0.00  0.00    +0.000 C 
ENDBRANCH   8  15
ENDBRANCH   3  21
ENDBRANCH  12   3
TORSDOF 6
ENDMDL
MODEL 2
REMARK VINA RESULT:      -6.7     19.420     21.104
REMARK  Name = 40586229
REMARK  7 active torsions:
REMARK  status: ('A' for Active; 'I' for Inactive)
REMARK    1  A    between atoms: O_3  and  C_12
REMARK    2  A    between atoms: O_3  and  C_21
REMARK    3  A    between atoms: O_6  and  C_28
REMARK    4  A    between atoms: O_6  and  C_29
REMARK    5  A    between atoms: N_7  and  C_11
REMARK    6  A    between atoms: N_8  and  C_15
REMARK    7  A    between atoms: C_22  and  C_23
REMARK                            x       y       z     vdW  Elec       q    Type
REMARK                         _______ _______ _______ _____ _____    ______ ____
ROOT
ATOM      1  O   UNL     1     -16.893   5.617  24.632  0.00  0.00    -0.368 OA
ATOM      2  O   UNL     1     -16.565   3.174  22.808  0.00  0.00    -0.368 OA
ATOM      9  C   UNL     1     -15.979   3.498  24.086  0.00  0.00    +0.173 C 
ATOM     10  C   UNL     1     -15.720   4.991  24.085  0.00  0.00    +0.192 C 
ATOM     11  C   UNL     1     -16.997   3.307  25.186  0.00  0.00    +0.130 C 
ATOM     12  C   UNL     1     -15.560   5.293  22.614  0.00  0.00    +0.235 C 
ATOM     13  C   UNL     1     -17.785   4.605  25.125  0.00  0.00    +0.185 C 
ATOM     14  C   UNL     1     -16.558   4.349  21.984  0.00  0.00    +0.207 C 
ENDROOT
BRANCH  11   7
ATOM      5  O   UNL     1     -17.204   1.032  26.928  0.00  0.00    -0.270 OA
ATOM      7  N   UNL     1     -16.357   3.142  26.468  0.00  0.00    -0.304 N 
ATOM     22  C   UNL     1     -16.517   2.001  27.241  0.00  0.00    +0.244 C 
ATOM     30  H   UNL     1     -15.860   3.944  26.842  0.00  0.00    +0.149 HD
BRANCH  22  23
ATOM     23  C   UNL     1     -15.812   1.996  28.549  0.00  0.00    +0.037 A 
ATOM     24  C   UNL     1     -15.283   3.182  29.060  0.00  0.00    +0.016 A 
ATOM     25  C   UNL     1     -15.677   0.807  29.265  0.00  0.00    +0.016 A 
ATOM     26  C   UNL     1     -14.620   3.178  30.287  0.00  0.00    +0.046 A 
ATOM     27  C   UNL     1     -15.013   0.804  30.492  0.00  0.00    +0.046 A 
ATOM     28  C   UNL     1     -14.485   1.988  31.002  0.00  0.00    +0.120 A 
BRANCH  28   6
ATOM      6  O   UNL     1     -13.836   1.985  32.199  0.00  0.00    -0.495 OA
ATOM     29  C   UNL     1     -14.622   1.728  33.362  0.00  0.00    +0.277 C 
ENDBRANCH  28   6
ENDBRANCH  22  23
ENDBRANCH  11   7
BRANCH  12   3
ATOM      3  O   UNL     1     -15.820   6.639  22.285  0.00  0.00    -0.442 OA
BRANCH   3  21
ATOM      4  O   UNL     1     -14.672   8.324  23.341  0.00  0.00    -0.226 OA
ATOM      8  N   UNL     1     -13.877   7.369  21.382  0.00  0.00    -0.278 N 
ATOM     21  C   UNL     1     -14.773   7.522  22.419  0.00  0.00    +0.401 C 
ATOM     31  H   UNL     1     -14.109   6.696  20.659  0.00  0.00    +0.152 HD
BRANCH   8  15
ATOM     15  C   UNL     1     -12.670   8.154  21.242  0.00  0.00    +0.076 C 
ATOM     16  C   UNL     1     -11.503   7.286  20.760  0.00  0.00    +0.022 C 
ATOM     17  C   UNL     1     -12.894   9.349  20.310  0.00  0.00    +0.022 C 
ATOM     18  C   UNL     1     -11.646   6.872  19.296  0.00  0.00    +0.002 C 
ATOM     19  C   UNL     1     -13.037   8.931  18.847  0.00  0.00    +0.002 C 
ATOM     20  C   UNL     1     -11.858   8.079  18.387  0.00  0.00    +0.000 C 
ENDBRANCH   8  15
ENDBRANCH   3  21
ENDBRANCH  12   3
TORSDOF 6
ENDMDL
MODEL 3
REMARK VINA RESULT:      -6.6      2.341      4.410
REMARK  Name = 40586229
REMARK  7 active torsions:
REMARK  status: ('A' for Active; 'I' for Inactive)
REMARK    1  A    between atoms: O_3  and  C_12
REMARK    2  A    between atoms: O_3  and  C_21
REMARK    3  A    between atoms: O_6  and  C_28
REMARK    4  A    between atoms: O_6  and  C_29
REMARK    5  A    between atoms: N_7  and  C_11
REMARK    6  A    between atoms: N_8  and  C_15
REMARK    7  A    between atoms: C_22  and  C_23
REMARK                            x       y       z     vdW  Elec       q    Type
REMARK                         _______ _______ _______ _____ _____    ______ ____
ROOT
ATOM      1  O   UNL     1      -6.951 -11.605  16.793  0.00  0.00    -0.368 OA
ATOM      2  O   UNL     1      -6.147 -10.653  19.595  0.00  0.00    -0.368 OA
ATOM      9  C   UNL     1      -6.808  -9.973  18.507  0.00  0.00    +0.173 C 
ATOM     10  C   UNL     1      -6.175 -10.475  17.225  0.00  0.00    +0.192 C 
ATOM     11  C   UNL     1      -8.244 -10.431  18.405  0.00  0.00    +0.130 C 
ATOM     12  C   UNL     1      -4.796 -10.886  17.682  0.00  0.00    +0.235 C 
ATOM     13  C   UNL     1      -8.115 -11.728  17.626  0.00  0.00    +0.185 C 
ATOM     14  C   UNL     1      -5.068 -11.436  19.064  0.00  0.00    +0.207 C 
ENDROOT
BRANCH  11   7
ATOM      5  O   UNL     1     -11.022  -9.854  18.854  0.00  0.00    -0.270 OA
ATOM      7  N   UNL     1      -9.051  -9.469  17.695  0.00  0.00    -0.304 N 
ATOM     22  C   UNL     1     -10.392  -9.259  17.984  0.00  0.00    +0.244 C 
ATOM     30  H   UNL     1      -8.628  -9.017  16.890  0.00  0.00    +0.149 HD
BRANCH  22  23
ATOM     23  C   UNL     1     -11.090  -8.252  17.143  0.00  0.00    +0.037 A 
ATOM     24  C   UNL     1     -12.415  -8.461  16.762  0.00  0.00    +0.016 A 
ATOM     25  C   UNL     1     -10.419  -7.100  16.734  0.00  0.00    +0.016 A 
ATOM     26  C   UNL     1     -13.070  -7.517  15.970  0.00  0.00    +0.046 A 
ATOM     27  C   UNL     1     -11.074  -6.156  15.943  0.00  0.00    +0.046 A 
ATOM     28  C   UNL     1     -12.398  -6.365  15.561  0.00  0.00    +0.120 A 
BRANCH  28   6
ATOM      6  O   UNL     1     -13.038  -5.445  14.788  0.00  0.00    -0.495 OA
ATOM     29  C   UNL     1     -12.385  -5.045  13.584  0.00  0.00    +0.277 C 
ENDBRANCH  28   6
ENDBRANCH  22  23
ENDBRANCH  11   7
BRANCH  12   3
ATOM      3  O   UNL     1      -4.186 -11.841  16.842  0.00  0.00    -0.442 OA
BRANCH   3  21
ATOM      4  O   UNL     1      -2.195 -10.713  16.648  0.00  0.00    -0.226 OA
ATOM      8  N   UNL     1      -3.052 -11.954  14.885  0.00  0.00    -0.278 N 
ATOM     21  C   UNL     1      -3.059 -11.436  16.163  0.00  0.00    +0.401 C 
ATOM     31  H   UNL     1      -3.858 -12.502  14.599  0.00  0.00    +0.152 HD
BRANCH   8  15
ATOM     15  C   UNL     1      -1.999 -11.709  13.925  0.00  0.00    +0.076 C 
ATOM     16  C   UNL     1      -1.862 -12.881  12.948  0.00  0.00    +0.022 C 
ATOM     17  C   UNL     1      -2.228 -10.390  13.180  0.00  0.00    +0.022 C 
ATOM     18  C   UNL     1      -3.024 -12.958  11.958  0.00  0.00    +0.002 C 
ATOM     19  C   UNL     1      -3.391 -10.470  12.192  0.00  0.00    +0.002 C 
ATOM     20  C   UNL     1      -3.226 -11.637  11.223  0.00  0.00    +0.000 C 
ENDBRANCH   8  15
ENDBRANCH   3  21
ENDBRANCH  12   3
TORSDOF 6
ENDMDL
MODEL 4
REMARK VINA RESULT:      -6.5      2.096      3.067
REMARK  Name = 40586229
REMARK  7 active torsions:
REMARK  status: ('A' for Active; 'I' for Inactive)
REMARK    1  A    between atoms: O_3  and  C_12
REMARK    2  A    between atoms: O_3  and  C_21
REMARK    3  A    between atoms: O_6  and  C_28
REMARK    4  A    between atoms: O_6  and  C_29
REMARK    5  A    between atoms: N_7  and  C_11
REMARK    6  A    between atoms: N_8  and  C_15
REMARK    7  A    between atoms: C_22  and  C_23
REMARK                            x       y       z     vdW  Elec       q    Type
REMARK                         _______ _______ _______ _____ _____    ______ ____
ROOT
ATOM      1  O   UNL     1      -6.295 -11.475  14.922  0.00  0.00    -0.368 OA
ATOM      2  O   UNL     1      -4.486 -10.082  16.970  0.00  0.00    -0.368 OA
ATOM      9  C   UNL     1      -5.545  -9.577  16.130  0.00  0.00    +0.173 C 
ATOM     10  C   UNL     1      -5.451 -10.316  14.810  0.00  0.00    +0.192 C 
ATOM     11  C   UNL     1      -6.888  -9.992  16.682  0.00  0.00    +0.130 C 
ATOM     12  C   UNL     1      -3.990 -10.693  14.752  0.00  0.00    +0.235 C 
ATOM     13  C   UNL     1      -7.031 -11.409  16.153  0.00  0.00    +0.185 C 
ATOM     14  C   UNL     1      -3.676 -10.984  16.202  0.00  0.00    +0.207 C 
ENDROOT
BRANCH  11   7
ATOM      5  O   UNL     1      -9.449  -9.549  17.907  0.00  0.00    -0.270 OA
ATOM      7  N   UNL     1      -7.943  -9.139  16.191  0.00  0.00    -0.304 N 
ATOM     22  C   UNL     1      -9.152  -8.987  16.856  0.00  0.00    +0.244 C 
ATOM     30  H   UNL     1      -7.812  -8.726  15.273  0.00  0.00    +0.149 HD
BRANCH  22  23
ATOM     23  C   UNL     1     -10.144  -8.093  16.205  0.00  0.00    +0.037 A 
ATOM     24  C   UNL     1     -10.636  -8.404  14.937  0.00  0.00    +0.016 A 
ATOM     25  C   UNL     1     -10.583  -6.943  16.861  0.00  0.00    +0.016 A 
ATOM     26  C   UNL     1     -11.567  -7.563  14.325  0.00  0.00    +0.046 A 
ATOM     27  C   UNL     1     -11.513  -6.103  16.249  0.00  0.00    +0.046 A 
ATOM     28  C   UNL     1     -12.005  -6.413  14.983  0.00  0.00    +0.120 A 
BRANCH  28   6
ATOM      6  O   UNL     1     -12.912  -5.593  14.384  0.00  0.00    -0.495 OA
ATOM     29  C   UNL     1     -12.429  -4.742  13.345  0.00  0.00    +0.277 C 
ENDBRANCH  28   6
ENDBRANCH  22  23
ENDBRANCH  11   7
BRANCH  12   3
ATOM      3  O   UNL     1      -3.727 -11.800  13.919  0.00  0.00    -0.442 OA
BRANCH   3  21
ATOM      4  O   UNL     1      -1.784 -11.699  12.699  0.00  0.00    -0.226 OA
ATOM      8  N   UNL     1      -3.827 -11.130  11.759  0.00  0.00    -0.278 N 
ATOM     21  C   UNL     1      -2.999 -11.554  12.777  0.00  0.00    +0.401 C 
ATOM     31  H   UNL     1      -4.811 -11.010  11.976  0.00  0.00    +0.152 HD
BRANCH   8  15
ATOM     15  C   UNL     1      -3.360 -10.792  10.432  0.00  0.00    +0.076 C 
ATOM     16  C   UNL     1      -4.309 -11.336   9.360  0.00  0.00    +0.022 C 
ATOM     17  C   UNL     1      -3.165  -9.279  10.285  0.00  0.00    +0.022 C 
ATOM     18  C   UNL     1      -5.634 -10.574   9.308  0.00  0.00    +0.002 C 
ATOM     19  C   UNL     1      -4.491  -8.521  10.234  0.00  0.00    +0.002 C 
ATOM     20  C   UNL     1      -5.414  -9.073   9.152  0.00  0.00    +0.000 C 
ENDBRANCH   8  15
ENDBRANCH   3  21
ENDBRANCH  12   3
TORSDOF 6
ENDMDL
MODEL 5
REMARK VINA RESULT:      -6.5      5.779     10.499
REMARK  Name = 40586229
REMARK  7 active torsions:
REMARK  status: ('A' for Active; 'I' for Inactive)
REMARK    1  A    between atoms: O_3  and  C_12
REMARK    2  A    between atoms: O_3  and  C_21
REMARK    3  A    between atoms: O_6  and  C_28
REMARK    4  A    between atoms: O_6  and  C_29
REMARK    5  A    between atoms: N_7  and  C_11
REMARK    6  A    between atoms: N_8  and  C_15
REMARK    7  A    between atoms: C_22  and  C_23
REMARK                            x       y       z     vdW  Elec       q    Type
REMARK                         _______ _______ _______ _____ _____    ______ ____
ROOT
ATOM      1  O   UNL     1      -9.674  -8.301   9.171  0.00  0.00    -0.368 OA
ATOM      2  O   UNL     1      -8.757  -7.292   6.424  0.00  0.00    -0.368 OA
ATOM      9  C   UNL     1      -8.021  -7.581   7.630  0.00  0.00    +0.173 C 
ATOM     10  C   UNL     1      -8.895  -7.154   8.792  0.00  0.00    +0.192 C 
ATOM     11  C   UNL     1      -7.886  -9.075   7.809  0.00  0.00    +0.130 C 
ATOM     12  C   UNL     1      -9.752  -6.075   8.175  0.00  0.00    +0.235 C 
ATOM     13  C   UNL     1      -9.219  -9.448   8.435  0.00  0.00    +0.185 C 
ATOM     14  C   UNL     1      -9.964  -6.598   6.773  0.00  0.00    +0.207 C 
ENDROOT
BRANCH  11   7
ATOM      5  O   UNL     1      -5.289 -10.024   7.027  0.00  0.00    -0.270 OA
ATOM      7  N   UNL     1      -6.786  -9.400   8.685  0.00  0.00    -0.304 N 
ATOM     22  C   UNL     1      -5.563  -9.853   8.212  0.00  0.00    +0.244 C 
ATOM     30  H   UNL     1      -6.972  -9.387   9.683  0.00  0.00    +0.149 HD
BRANCH  22  23
ATOM     23  C   UNL     1      -4.542 -10.170   9.245  0.00  0.00    +0.037 A 
ATOM     24  C   UNL     1      -4.447 -11.464   9.756  0.00  0.00    +0.016 A 
ATOM     25  C   UNL     1      -3.682  -9.173   9.704  0.00  0.00    +0.016 A 
ATOM     26  C   UNL     1      -3.490 -11.761  10.727  0.00  0.00    +0.046 A 
ATOM     27  C   UNL     1      -2.725  -9.470  10.675  0.00  0.00    +0.046 A 
ATOM     28  C   UNL     1      -2.630 -10.763  11.186  0.00  0.00    +0.120 A 
BRANCH  28   6
ATOM      6  O   UNL     1      -1.697 -11.053  12.134  0.00  0.00    -0.495 OA
ATOM     29  C   UNL     1      -1.830 -10.398  13.395  0.00  0.00    +0.277 C 
ENDBRANCH  28   6
ENDBRANCH  22  23
ENDBRANCH  11   7
BRANCH  12   3
ATOM      3  O   UNL     1     -10.971  -5.867   8.854  0.00  0.00    -0.442 OA
BRANCH   3  21
ATOM      4  O   UNL     1     -10.475  -3.640   9.120  0.00  0.00    -0.226 OA
ATOM      8  N   UNL     1     -12.282  -4.610  10.206  0.00  0.00    -0.278 N 
ATOM     21  C   UNL     1     -11.181  -4.610   9.374  0.00  0.00    +0.401 C 
ATOM     31  H   UNL     1     -12.748  -5.498  10.363  0.00  0.00    +0.152 HD
BRANCH   8  15
ATOM     15  C   UNL     1     -12.760  -3.437  10.903  0.00  0.00    +0.076 C 
ATOM     16  C   UNL     1     -14.282  -3.306  10.780  0.00  0.00    +0.022 C 
ATOM     17  C   UNL     1     -12.321  -3.452  12.372  0.00  0.00    +0.022 C 
ATOM     18  C   UNL     1     -15.029  -4.353  11.607  0.00  0.00    +0.002 C 
ATOM     19  C   UNL     1     -13.071  -4.499  13.195  0.00  0.00    +0.002 C 
ATOM     20  C   UNL     1     -14.582  -4.342  13.066  0.00  0.00    +0.000 C 
ENDBRANCH   8  15
ENDBRANCH   3  21
ENDBRANCH  12   3
TORSDOF 6
ENDMDL
MODEL 6
REMARK VINA RESULT:      -6.2     21.289     24.810
REMARK  Name = 40586229
REMARK  7 active torsions:
REMARK  status: ('A' for Active; 'I' for Inactive)
REMARK    1  A    between atoms: O_3  and  C_12
REMARK    2  A    between atoms: O_3  and  C_21
REMARK    3  A    between atoms: O_6  and  C_28
REMARK    4  A    between atoms: O_6  and  C_29
REMARK    5  A    between atoms: N_7  and  C_11
REMARK    6  A    between atoms: N_8  and  C_15
REMARK    7  A    between atoms: C_22  and  C_23
REMARK                            x       y       z     vdW  Elec       q    Type
REMARK                         _______ _______ _______ _____ _____    ______ ____
ROOT
ATOM      1  O   UNL     1     -15.791   3.475  31.766  0.00  0.00    -0.368 OA
ATOM      2  O   UNL     1     -14.257   3.013  34.382  0.00  0.00    -0.368 OA
ATOM      9  C   UNL     1     -14.007   3.899  33.270  0.00  0.00    +0.173 C 
ATOM     10  C   UNL     1     -14.412   3.154  32.014  0.00  0.00    +0.192 C 
ATOM     11  C   UNL     1     -14.958   5.072  33.318  0.00  0.00    +0.130 C 
ATOM     12  C   UNL     1     -14.238   1.711  32.422  0.00  0.00    +0.235 C 
ATOM     13  C   UNL     1     -16.213   4.496  32.684  0.00  0.00    +0.185 C 
ATOM     14  C   UNL     1     -14.664   1.735  33.872  0.00  0.00    +0.207 C 
ENDROOT
BRANCH  11   7
ATOM      5  O   UNL     1     -13.391   7.261  34.320  0.00  0.00    -0.270 OA
ATOM      7  N   UNL     1     -14.451   6.188  32.558  0.00  0.00    -0.304 N 
ATOM     22  C   UNL     1     -13.698   7.203  33.132  0.00  0.00    +0.244 C 
ATOM     30  H   UNL     1     -14.755   6.265  31.593  0.00  0.00    +0.149 HD
BRANCH  22  23
ATOM     23  C   UNL     1     -13.273   8.295  32.219  0.00  0.00    +0.037 A 
ATOM     24  C   UNL     1     -14.232   9.094  31.595  0.00  0.00    +0.016 A 
ATOM     25  C   UNL     1     -11.917   8.521  31.985  0.00  0.00    +0.016 A 
ATOM     26  C   UNL     1     -13.833  10.118  30.736  0.00  0.00    +0.046 A 
ATOM     27  C   UNL     1     -11.519   9.546  31.126  0.00  0.00    +0.046 A 
ATOM     28  C   UNL     1     -12.476  10.343  30.502  0.00  0.00    +0.120 A 
BRANCH  28   6
ATOM      6  O   UNL     1     -12.088  11.342  29.663  0.00  0.00    -0.495 OA
ATOM     29  C   UNL     1     -11.190  10.992  28.611  0.00  0.00    +0.277 C 
ENDBRANCH  28   6
ENDBRANCH  22  23
ENDBRANCH  11   7
BRANCH  12   3
ATOM      3  O   UNL     1     -15.011   0.813  31.656  0.00  0.00    -0.442 OA
BRANCH   3  21
ATOM      4  O   UNL     1     -13.826   0.600  29.701  0.00  0.00    -0.226 OA
ATOM      8  N   UNL     1     -16.036   1.306  29.698  0.00  0.00    -0.278 N 
ATOM     21  C   UNL     1     -14.864   0.881  30.290  0.00  0.00    +0.401 C 
ATOM     31  H   UNL     1     -16.807   1.549  30.312  0.00  0.00    +0.152 HD
BRANCH   8  15
ATOM     15  C   UNL     1     -16.199   1.478  28.272  0.00  0.00    +0.076 C 
ATOM     16  C   UNL     1     -17.628   1.137  27.836  0.00  0.00    +0.022 C 
ATOM     17  C   UNL     1     -15.810   2.896  27.840  0.00  0.00    +0.022 C 
ATOM     18  C   UNL     1     -18.643   2.189  28.284  0.00  0.00    +0.002 C 
ATOM     19  C   UNL     1     -16.827   3.944  28.289  0.00  0.00    +0.002 C 
ATOM     20  C   UNL     1     -18.239   3.590  27.835  0.00  0.00    +0.000 C 
ENDBRANCH   8  15
ENDBRANCH   3  21
ENDBRANCH  12   3
TORSDOF 6
ENDMDL
MODEL 7
REMARK VINA RESULT:      -6.2      2.088      7.794
REMARK  Name = 40586229
REMARK  7 active torsions:
REMARK  status: ('A' for Active; 'I' for Inactive)
REMARK    1  A    between atoms: O_3  and  C_12
REMARK    2  A    between atoms: O_3  and  C_21
REMARK    3  A    between atoms: O_6  and  C_28
REMARK    4  A    between atoms: O_6  and  C_29
REMARK    5  A    between atoms: N_7  and  C_11
REMARK    6  A    between atoms: N_8  and  C_15
REMARK    7  A    between atoms: C_22  and  C_23
REMARK                            x       y       z     vdW  Elec       q    Type
REMARK                         _______ _______ _______ _____ _____    ______ ____
ROOT
ATOM      1  O   UNL     1      -5.444 -10.057  17.215  0.00  0.00    -0.368 OA
ATOM      2  O   UNL     1      -4.896 -13.066  17.452  0.00  0.00    -0.368 OA
ATOM      9  C   UNL     1      -5.364 -12.263  16.348  0.00  0.00    +0.173 C 
ATOM     10  C   UNL     1      -6.271 -11.199  16.930  0.00  0.00    +0.192 C 
ATOM     11  C   UNL     1      -4.217 -11.477  15.756  0.00  0.00    +0.130 C 
ATOM     12  C   UNL     1      -6.773 -11.855  18.194  0.00  0.00    +0.235 C 
ATOM     13  C   UNL     1      -4.126 -10.284  16.692  0.00  0.00    +0.185 C 
ATOM     14  C   UNL     1      -5.563 -12.639  18.649  0.00  0.00    +0.207 C 
ENDROOT
BRANCH  11   7
ATOM      5  O   UNL     1      -2.336 -10.498  13.817  0.00  0.00    -0.270 OA
ATOM      7  N   UNL     1      -4.508 -11.063  14.405  0.00  0.00    -0.304 N 
ATOM     22  C   UNL     1      -3.528 -10.603  13.537  0.00  0.00    +0.244 C 
ATOM     30  H   UNL     1      -5.486 -11.019  14.137  0.00  0.00    +0.149 HD
BRANCH  22  23
ATOM     23  C   UNL     1      -3.995 -10.190  12.188  0.00  0.00    +0.037 A 
ATOM     24  C   UNL     1      -5.347  -9.923  11.970  0.00  0.00    +0.016 A 
ATOM     25  C   UNL     1      -3.082 -10.070  11.141  0.00  0.00    +0.016 A 
ATOM     26  C   UNL     1      -5.786  -9.537  10.704  0.00  0.00    +0.046 A 
ATOM     27  C   UNL     1      -3.522  -9.684   9.874  0.00  0.00    +0.046 A 
ATOM     28  C   UNL     1      -4.872  -9.418   9.656  0.00  0.00    +0.120 A 
BRANCH  28   6
ATOM      6  O   UNL     1      -5.302  -9.042   8.420  0.00  0.00    -0.495 OA
ATOM     29  C   UNL     1      -5.367 -10.059   7.420  0.00  0.00    +0.277 C 
ENDBRANCH  28   6
ENDBRANCH  22  23
ENDBRANCH  11   7
BRANCH  12   3
ATOM      3  O   UNL     1      -7.208 -10.935  19.171  0.00  0.00    -0.442 OA
BRANCH   3  21
ATOM      4  O   UNL     1      -9.312 -11.144  20.067  0.00  0.00    -0.226 OA
ATOM      8  N   UNL     1      -8.927  -9.837  18.190  0.00  0.00    -0.278 N 
ATOM     21  C   UNL     1      -8.559 -10.678  19.219  0.00  0.00    +0.401 C 
ATOM     31  H   UNL     1      -8.205  -9.563  17.530  0.00  0.00    +0.152 HD
BRANCH   8  15
ATOM     15  C   UNL     1     -10.281  -9.381  17.971  0.00  0.00    +0.076 C 
ATOM     16  C   UNL     1     -10.300  -7.933  17.470  0.00  0.00    +0.022 C 
ATOM     17  C   UNL     1     -11.027 -10.311  17.008  0.00  0.00    +0.022 C 
ATOM     18  C   UNL     1      -9.808  -7.804  16.029  0.00  0.00    +0.002 C 
ATOM     19  C   UNL     1     -10.532 -10.179  15.567  0.00  0.00    +0.002 C 
ATOM     20  C   UNL     1     -10.571  -8.732  15.088  0.00  0.00    +0.000 C 
ENDBRANCH   8  15
ENDBRANCH   3  21
ENDBRANCH  12   3
TORSDOF 6
ENDMDL
MODEL 8
REMARK VINA RESULT:      -6.1      4.287      8.270
REMARK  Name = 40586229
REMARK  7 active torsions:
REMARK  status: ('A' for Active; 'I' for Inactive)
REMARK    1  A    between atoms: O_3  and  C_12
REMARK    2  A    between atoms: O_3  and  C_21
REMARK    3  A    between atoms: O_6  and  C_28
REMARK    4  A    between atoms: O_6  and  C_29
REMARK    5  A    between atoms: N_7  and  C_11
REMARK    6  A    between atoms: N_8  and  C_15
REMARK    7  A    between atoms: C_22  and  C_23
REMARK                            x       y       z     vdW  Elec       q    Type
REMARK                         _______ _______ _______ _____ _____    ______ ____
ROOT
ATOM      1  O   UNL     1     -10.291  -7.092  15.705  0.00  0.00    -0.368 OA
ATOM      2  O   UNL     1     -12.075  -9.543  16.173  0.00  0.00    -0.368 OA
ATOM      9  C   UNL     1     -10.681  -9.429  15.819  0.00  0.00    +0.173 C 
ATOM     10  C   UNL     1     -10.560  -8.241  14.885  0.00  0.00    +0.192 C 
ATOM     11  C   UNL     1      -9.870  -9.022  17.027  0.00  0.00    +0.130 C 
ATOM     12  C   UNL     1     -11.934  -8.175  14.263  0.00  0.00    +0.235 C 
ATOM     13  C   UNL     1     -10.071  -7.517  17.059  0.00  0.00    +0.185 C 
ATOM     14  C   UNL     1     -12.826  -8.584  15.414  0.00  0.00    +0.207 C 
ENDROOT
BRANCH  11   7
ATOM      5  O   UNL     1      -8.258 -10.579  18.825  0.00  0.00    -0.270 OA
ATOM      7  N   UNL     1      -8.478  -9.363  16.862  0.00  0.00    -0.304 N 
ATOM     22  C   UNL     1      -7.780 -10.124  17.788  0.00  0.00    +0.244 C 
ATOM     30  H   UNL     1      -7.987  -8.933  16.084  0.00  0.00    +0.149 HD
BRANCH  22  23
ATOM     23  C   UNL     1      -6.345 -10.365  17.485  0.00  0.00    +0.037 A 
ATOM     24  C   UNL     1      -5.804  -9.919  16.279  0.00  0.00    +0.016 A 
ATOM     25  C   UNL     1      -5.541 -11.037  18.405  0.00  0.00    +0.016 A 
ATOM     26  C   UNL     1      -4.457 -10.146  15.993  0.00  0.00    +0.046 A 
ATOM     27  C   UNL     1      -4.195 -11.264  18.119  0.00  0.00    +0.046 A 
ATOM     28  C   UNL     1      -3.653 -10.819  16.914  0.00  0.00    +0.120 A 
BRANCH  28   6
ATOM      6  O   UNL     1      -2.340 -11.042  16.634  0.00  0.00    -0.495 OA
ATOM     29  C   UNL     1      -1.995 -11.240  15.263  0.00  0.00    +0.277 C 
ENDBRANCH  28   6
ENDBRANCH  22  23
ENDBRANCH  11   7
BRANCH  12   3
ATOM      3  O   UNL     1     -12.265  -6.899  13.763  0.00  0.00    -0.442 OA
BRANCH   3  21
ATOM      4  O   UNL     1     -13.801  -7.638  12.224  0.00  0.00    -0.226 OA
ATOM      8  N   UNL     1     -12.413  -5.835  11.770  0.00  0.00    -0.278 N 
ATOM     21  C   UNL     1     -12.911  -6.860  12.548  0.00  0.00    +0.401 C 
ATOM     31  H   UNL     1     -11.642  -5.294  12.148  0.00  0.00    +0.152 HD
BRANCH   8  15
ATOM     15  C   UNL     1     -12.888  -5.536  10.437  0.00  0.00    +0.076 C 
ATOM     16  C   UNL     1     -12.866  -4.027  10.171  0.00  0.00    +0.022 C 
ATOM     17  C   UNL     1     -12.082  -6.299   9.381  0.00  0.00    +0.022 C 
ATOM     18  C   UNL     1     -11.447  -3.483  10.007  0.00  0.00    +0.002 C 
ATOM     19  C   UNL     1     -10.664  -5.751   9.220  0.00  0.00    +0.002 C 
ATOM     20  C   UNL     1     -10.668  -4.251   8.944  0.00  0.00    +0.000 C 
ENDBRANCH   8  15
ENDBRANCH   3  21
ENDBRANCH  12   3
TORSDOF 6
ENDMDL
MODEL 9
REMARK VINA RESULT:      -5.9      4.239      7.707
REMARK  Name = 40586229
REMARK  7 active torsions:
REMARK  status: ('A' for Active; 'I' for Inactive)
REMARK    1  A    between atoms: O_3  and  C_12
REMARK    2  A    between atoms: O_3  and  C_21
REMARK    3  A    between atoms: O_6  and  C_28
REMARK    4  A    between atoms: O_6  and  C_29
REMARK    5  A    between atoms: N_7  and  C_11
REMARK    6  A    between atoms: N_8  and  C_15
REMARK    7  A    between atoms: C_22  and  C_23
REMARK                            x       y       z     vdW  Elec       q    Type
REMARK                         _______ _______ _______ _____ _____    ______ ____
ROOT
ATOM      1  O   UNL     1      -4.747  -8.505  10.565  0.00  0.00    -0.368 OA
ATOM      2  O   UNL     1      -5.717 -11.329   9.867  0.00  0.00    -0.368 OA
ATOM      9  C   UNL     1      -6.431 -10.154  10.301  0.00  0.00    +0.173 C 
ATOM     10  C   UNL     1      -5.544  -9.445  11.305  0.00  0.00    +0.192 C 
ATOM     11  C   UNL     1      -6.548  -9.168   9.163  0.00  0.00    +0.130 C 
ATOM     12  C   UNL     1      -4.708 -10.576  11.855  0.00  0.00    +0.235 C 
ATOM     13  C   UNL     1      -5.202  -8.466   9.203  0.00  0.00    +0.185 C 
ATOM     14  C   UNL     1      -4.512 -11.450  10.637  0.00  0.00    +0.207 C 
ENDROOT
BRANCH  11   7
ATOM      5  O   UNL     1      -7.975  -7.686   7.157  0.00  0.00    -0.270 OA
ATOM      7  N   UNL     1      -7.631  -8.240   9.383  0.00  0.00    -0.304 N 
ATOM     22  C   UNL     1      -8.262  -7.568   8.345  0.00  0.00    +0.244 C 
ATOM     30  H   UNL     1      -7.852  -8.010  10.346  0.00  0.00    +0.149 HD
BRANCH  22  23
ATOM     23  C   UNL     1      -9.341  -6.627   8.741  0.00  0.00    +0.037 A 
ATOM     24  C   UNL     1      -9.198  -5.261   8.497  0.00  0.00    +0.016 A 
ATOM     25  C   UNL     1     -10.496  -7.108   9.357  0.00  0.00    +0.016 A 
ATOM     26  C   UNL     1     -10.210  -4.376   8.870  0.00  0.00    +0.046 A 
ATOM     27  C   UNL     1     -11.508  -6.224   9.729  0.00  0.00    +0.046 A 
ATOM     28  C   UNL     1     -11.365  -4.859   9.486  0.00  0.00    +0.120 A 
BRANCH  28   6
ATOM      6  O   UNL     1     -12.352  -3.995   9.851  0.00  0.00    -0.495 OA
ATOM     29  C   UNL     1     -12.377  -3.578  11.216  0.00  0.00    +0.277 C 
ENDBRANCH  28   6
ENDBRANCH  22  23
ENDBRANCH  11   7
BRANCH  12   3
ATOM      3  O   UNL     1      -3.481 -10.151  12.407  0.00  0.00    -0.442 OA
BRANCH   3  21
ATOM      4  O   UNL     1      -1.817 -11.304  13.492  0.00  0.00    -0.226 OA
ATOM      8  N   UNL     1      -3.950 -11.139  14.389  0.00  0.00    -0.278 N 
ATOM     21  C   UNL     1      -2.976 -10.905  13.441  0.00  0.00    +0.401 C 
ATOM     31  H   UNL     1      -4.882 -10.787  14.197  0.00  0.00    +0.152 HD
BRANCH   8  15
ATOM     15  C   UNL     1      -3.728 -11.902  15.597  0.00  0.00    +0.076 C 
ATOM     16  C   UNL     1      -3.519 -10.978  16.801  0.00  0.00    +0.022 C 
ATOM     17  C   UNL     1      -4.875 -12.887  15.846  0.00  0.00    +0.022 C 
ATOM     18  C   UNL     1      -4.809 -10.282  17.236  0.00  0.00    +0.002 C 
ATOM     19  C   UNL     1      -6.163 -12.187  16.280  0.00  0.00    +0.002 C 
ATOM     20  C   UNL     1      -5.933 -11.283  17.486  0.00  0.00    +0.000 C 
ENDBRANCH   8  15
ENDBRANCH   3  21
ENDBRANCH  12   3
TORSDOF 6
ENDMDL
MODEL 10
REMARK VINA RESULT:      -5.9      5.424      9.601
REMARK  Name = 40586229
REMARK  7 active torsions:
REMARK  status: ('A' for Active; 'I' for Inactive)
REMARK    1  A    between atoms: O_3  and  C_12
REMARK    2  A    between atoms: O_3  and  C_21
REMARK    3  A    between atoms: O_6  and  C_28
REMARK    4  A    between atoms: O_6  and  C_29
REMARK    5  A    between atoms: N_7  and  C_11
REMARK    6  A    between atoms: N_8  and  C_15
REMARK    7  A    between atoms: C_22  and  C_23
REMARK                            x       y       z     vdW  Elec       q    Type
REMARK                         _______ _______ _______ _____ _____    ______ ____
ROOT
ATOM      1  O   UNL     1      -8.955  -9.511   8.744  0.00  0.00    -0.368 OA
ATOM      2  O   UNL     1      -7.882  -6.881   7.587  0.00  0.00    -0.368 OA
ATOM      9  C   UNL     1      -7.556  -7.596   8.797  0.00  0.00    +0.173 C 
ATOM     10  C   UNL     1      -8.848  -8.196   9.315  0.00  0.00    +0.192 C 
ATOM     11  C   UNL     1      -6.703  -8.800   8.473  0.00  0.00    +0.130 C 
ATOM     12  C   UNL     1      -9.890  -7.257   8.756  0.00  0.00    +0.235 C 
ATOM     13  C   UNL     1      -7.740  -9.826   8.048  0.00  0.00    +0.185 C 
ATOM     14  C   UNL     1      -9.306  -6.898   7.408  0.00  0.00    +0.207 C 
ENDROOT
BRANCH  11   7
ATOM      5  O   UNL     1      -3.850  -8.769   8.813  0.00  0.00    -0.270 OA
ATOM      7  N   UNL     1      -5.967  -9.247   9.631  0.00  0.00    -0.304 N 
ATOM     22  C   UNL     1      -4.582  -9.192   9.704  0.00  0.00    +0.244 C 
ATOM     30  H   UNL     1      -6.497  -9.708  10.364  0.00  0.00    +0.149 HD
BRANCH  22  23
ATOM     23  C   UNL     1      -3.975  -9.715  10.955  0.00  0.00    +0.037 A 
ATOM     24  C   UNL     1      -2.595  -9.900  11.035  0.00  0.00    +0.016 A 
ATOM     25  C   UNL     1      -4.785 -10.023  12.047  0.00  0.00    +0.016 A 
ATOM     26  C   UNL     1      -2.024 -10.393  12.208  0.00  0.00    +0.046 A 
ATOM     27  C   UNL     1      -4.214 -10.516  13.221  0.00  0.00    +0.046 A 
ATOM     28  C   UNL     1      -2.835 -10.701  13.301  0.00  0.00    +0.120 A 
BRANCH  28   6
ATOM      6  O   UNL     1      -2.277 -11.184  14.446  0.00  0.00    -0.495 OA
ATOM     29  C   UNL     1      -3.008 -10.986  15.656  0.00  0.00    +0.277 C 
ENDBRANCH  28   6
ENDBRANCH  22  23
ENDBRANCH  11   7
BRANCH  12   3
ATOM      3  O   UNL     1     -11.169  -7.839   8.642  0.00  0.00    -0.442 OA
BRANCH   3  21
ATOM      4  O   UNL     1     -13.010  -6.778   7.772  0.00  0.00    -0.226 OA
ATOM      8  N   UNL     1     -12.327  -6.406   9.958  0.00  0.00    -0.278 N 
ATOM     21  C   UNL     1     -12.245  -6.983   8.708  0.00  0.00    +0.401 C 
ATOM     31  H   UNL     1     -11.597  -6.633  10.626  0.00  0.00    +0.152 HD
BRANCH   8  15
ATOM     15  C   UNL     1     -13.352  -5.460  10.339  0.00  0.00    +0.076 C 
ATOM     16  C   UNL     1     -13.571  -5.468  11.856  0.00  0.00    +0.022 C 
ATOM     17  C   UNL     1     -13.019  -4.052   9.834  0.00  0.00    +0.022 C 
ATOM     18  C   UNL     1     -12.411  -4.828  12.618  0.00  0.00    +0.002 C 
ATOM     19  C   UNL     1     -11.859  -3.416  10.599  0.00  0.00    +0.002 C 
ATOM     20  C   UNL     1     -12.105  -3.425  12.104  0.00  0.00    +0.000 C 
ENDBRANCH   8  15
ENDBRANCH   3  21
ENDBRANCH  12   3
TORSDOF 6
ENDMDL
