MODEL 1
REMARK VINA RESULT:      -6.5      0.000      0.000
REMARK  Name = 11911845
REMARK  5 active torsions:
REMARK  status: ('A' for Active; 'I' for Inactive)
REMARK    1  A    between atoms: S_1  and  C_18
REMARK    2  A    between atoms: S_1  and  C_21
REMARK    3  A    between atoms: O_4  and  C_11
REMARK    4  A    between atoms: N_6  and  C_10
REMARK    5  A    between atoms: N_7  and  C_15
REMARK                            x       y       z     vdW  Elec       q    Type
REMARK                         _______ _______ _______ _____ _____    ______ ____
ROOT
ATOM      5  O   UNL     1      16.317   8.452  20.542  0.00  0.00    -0.252 OA
ATOM      6  N   UNL     1      14.773   6.855  19.899  0.00  0.00    -0.292 N 
ATOM      7  N   UNL     1      16.928   6.195  20.340  0.00  0.00    -0.269 N 
ATOM     14  C   UNL     1      16.049   7.280  20.289  0.00  0.00    +0.304 C 
ATOM     22  H   UNL     1      14.616   5.859  19.774  0.00  0.00    +0.151 HD
ATOM     24  H   UNL     1      16.543   5.285  20.098  0.00  0.00    +0.156 HD
ENDROOT
BRANCH   6  10
ATOM      2  O   UNL     1      11.699   6.433  20.094  0.00  0.00    -0.369 OA
ATOM      3  O   UNL     1      12.286   9.294  21.033  0.00  0.00    -0.369 OA
ATOM      8  C   UNL     1      13.065   8.082  21.111  0.00  0.00    +0.172 C 
ATOM      9  C   UNL     1      12.092   6.951  21.376  0.00  0.00    +0.179 C 
ATOM     10  C   UNL     1      13.649   7.754  19.757  0.00  0.00    +0.131 C 
ATOM     11  C   UNL     1      10.950   7.656  22.067  0.00  0.00    +0.171 C 
ATOM     12  C   UNL     1      12.493   7.049  19.069  0.00  0.00    +0.185 C 
ATOM     13  C   UNL     1      10.921   8.989  21.356  0.00  0.00    +0.194 C 
BRANCH  11   4
ATOM      4  O   UNL     1       9.722   6.972  21.965  0.00  0.00    -0.387 OA
ATOM     23  H   UNL     1       9.437   7.002  21.035  0.00  0.00    +0.210 HD
ENDBRANCH  11   4
ENDBRANCH   6  10
BRANCH   7  15
ATOM     15  C   UNL     1      18.300   6.203  20.688  0.00  0.00    +0.036 A 
ATOM     16  C   UNL     1      18.759   7.121  21.619  0.00  0.00    +0.038 A 
ATOM     17  C   UNL     1      19.156   5.294  20.089  0.00  0.00    +0.023 A 
ATOM     18  C   UNL     1      20.111   7.128  21.960  0.00  0.00    +0.009 A 
ATOM     19  C   UNL     1      20.508   5.301  20.429  0.00  0.00    +0.003 A 
ATOM     20  C   UNL     1      20.986   6.219  21.365  0.00  0.00    +0.015 A 
BRANCH  18   1
ATOM      1  S   UNL     1      20.723   8.300  23.156  0.00  0.00    -0.129 S 
ATOM     21  C   UNL     1      20.642   7.335  24.692  0.00  0.00    +0.090 C 
ENDBRANCH  18   1
ENDBRANCH   7  15
TORSDOF 4
ENDMDL
MODEL 2
REMARK VINA RESULT:      -6.4      5.233      8.393
REMARK  Name = 11911845
REMARK  5 active torsions:
REMARK  status: ('A' for Active; 'I' for Inactive)
REMARK    1  A    between atoms: S_1  and  C_18
REMARK    2  A    between atoms: S_1  and  C_21
REMARK    3  A    between atoms: O_4  and  C_11
REMARK    4  A    between atoms: N_6  and  C_10
REMARK    5  A    between atoms: N_7  and  C_15
REMARK                            x       y       z     vdW  Elec       q    Type
REMARK                         _______ _______ _______ _____ _____    ______ ____
ROOT
ATOM      5  O   UNL     1      12.819  11.249  22.654  0.00  0.00    -0.252 OA
ATOM      6  N   UNL     1      11.381   9.439  22.608  0.00  0.00    -0.292 N 
ATOM      7  N   UNL     1      10.600  11.451  23.393  0.00  0.00    -0.269 N 
ATOM     14  C   UNL     1      11.706  10.776  22.869  0.00  0.00    +0.304 C 
ATOM     22  H   UNL     1      10.420   9.141  22.749  0.00  0.00    +0.151 HD
ATOM     24  H   UNL     1       9.748  10.908  23.510  0.00  0.00    +0.156 HD
ENDROOT
BRANCH   6  10
ATOM      2  O   UNL     1      11.123   7.224  20.441  0.00  0.00    -0.369 OA
ATOM      3  O   UNL     1      14.003   8.273  20.330  0.00  0.00    -0.369 OA
ATOM      8  C   UNL     1      12.762   8.920  20.680  0.00  0.00    +0.172 C 
ATOM      9  C   UNL     1      11.697   8.353  19.762  0.00  0.00    +0.179 C 
ATOM     10  C   UNL     1      12.324   8.488  22.059  0.00  0.00    +0.131 C 
ATOM     11  C   UNL     1      12.498   7.930  18.554  0.00  0.00    +0.171 C 
ATOM     12  C   UNL     1      11.635   7.164  21.780  0.00  0.00    +0.185 C 
ATOM     13  C   UNL     1      13.786   7.444  19.179  0.00  0.00    +0.194 C 
BRANCH  11   4
ATOM      4  O   UNL     1      11.870   6.929  17.785  0.00  0.00    -0.387 OA
ATOM     23  H   UNL     1      12.557   6.460  17.281  0.00  0.00    +0.210 HD
ENDBRANCH  11   4
ENDBRANCH   6  10
BRANCH   7  15
ATOM     15  C   UNL     1      10.517  12.807  23.786  0.00  0.00    +0.036 A 
ATOM     16  C   UNL     1      10.854  13.162  25.081  0.00  0.00    +0.038 A 
ATOM     17  C   UNL     1      10.096  13.753  22.866  0.00  0.00    +0.023 A 
ATOM     18  C   UNL     1      10.771  14.500  25.467  0.00  0.00    +0.009 A 
ATOM     19  C   UNL     1      10.012  15.091  23.250  0.00  0.00    +0.003 A 
ATOM     20  C   UNL     1      10.349  15.464  24.551  0.00  0.00    +0.015 A 
BRANCH  18   1
ATOM      1  S   UNL     1      11.202  14.978  27.130  0.00  0.00    -0.129 S 
ATOM     21  C   UNL     1      13.015  14.920  27.071  0.00  0.00    +0.090 C 
ENDBRANCH  18   1
ENDBRANCH   7  15
TORSDOF 4
ENDMDL
MODEL 3
REMARK VINA RESULT:      -6.3      3.397      8.036
REMARK  Name = 11911845
REMARK  5 active torsions:
REMARK  status: ('A' for Active; 'I' for Inactive)
REMARK    1  A    between atoms: S_1  and  C_18
REMARK    2  A    between atoms: S_1  and  C_21
REMARK    3  A    between atoms: O_4  and  C_11
REMARK    4  A    between atoms: N_6  and  C_10
REMARK    5  A    between atoms: N_7  and  C_15
REMARK                            x       y       z     vdW  Elec       q    Type
REMARK                         _______ _______ _______ _____ _____    ______ ____
ROOT
ATOM      5  O   UNL     1      17.111   8.487  20.606  0.00  0.00    -0.252 OA
ATOM      6  N   UNL     1      18.026   6.860  21.970  0.00  0.00    -0.292 N 
ATOM      7  N   UNL     1      15.772   6.796  21.531  0.00  0.00    -0.269 N 
ATOM     14  C   UNL     1      16.967   7.481  21.296  0.00  0.00    +0.304 C 
ATOM     22  H   UNL     1      17.838   5.993  22.465  0.00  0.00    +0.151 HD
ATOM     24  H   UNL     1      15.828   5.977  22.132  0.00  0.00    +0.156 HD
ENDROOT
BRANCH   6  10
ATOM      2  O   UNL     1      20.755   5.544  22.667  0.00  0.00    -0.369 OA
ATOM      3  O   UNL     1      21.265   7.547  20.401  0.00  0.00    -0.369 OA
ATOM      8  C   UNL     1      20.109   6.747  20.729  0.00  0.00    +0.172 C 
ATOM      9  C   UNL     1      20.627   5.418  21.241  0.00  0.00    +0.179 C 
ATOM     10  C   UNL     1      19.389   7.341  21.917  0.00  0.00    +0.131 C 
ATOM     11  C   UNL     1      21.974   5.310  20.567  0.00  0.00    +0.171 C 
ATOM     12  C   UNL     1      20.188   6.793  23.087  0.00  0.00    +0.185 C 
ATOM     13  C   UNL     1      22.445   6.746  20.562  0.00  0.00    +0.194 C 
BRANCH  11   4
ATOM      4  O   UNL     1      22.873   4.459  21.240  0.00  0.00    -0.387 OA
ATOM     23  H   UNL     1      22.493   4.245  22.110  0.00  0.00    +0.210 HD
ENDBRANCH  11   4
ENDBRANCH   6  10
BRANCH   7  15
ATOM     15  C   UNL     1      14.483   7.102  21.035  0.00  0.00    +0.036 A 
ATOM     16  C   UNL     1      13.529   7.620  21.894  0.00  0.00    +0.038 A 
ATOM     17  C   UNL     1      14.202   6.874  19.698  0.00  0.00    +0.023 A 
ATOM     18  C   UNL     1      12.259   7.921  21.403  0.00  0.00    +0.009 A 
ATOM     19  C   UNL     1      12.931   7.174  19.206  0.00  0.00    +0.003 A 
ATOM     20  C   UNL     1      11.960   7.697  20.059  0.00  0.00    +0.015 A 
BRANCH  18   1
ATOM      1  S   UNL     1      11.016   8.589  22.494  0.00  0.00    -0.129 S 
ATOM     21  C   UNL     1      11.416  10.360  22.466  0.00  0.00    +0.090 C 
ENDBRANCH  18   1
ENDBRANCH   7  15
TORSDOF 4
ENDMDL
MODEL 4
REMARK VINA RESULT:      -6.2     27.407     28.913
REMARK  Name = 11911845
REMARK  5 active torsions:
REMARK  status: ('A' for Active; 'I' for Inactive)
REMARK    1  A    between atoms: S_1  and  C_18
REMARK    2  A    between atoms: S_1  and  C_21
REMARK    3  A    between atoms: O_4  and  C_11
REMARK    4  A    between atoms: N_6  and  C_10
REMARK    5  A    between atoms: N_7  and  C_15
REMARK                            x       y       z     vdW  Elec       q    Type
REMARK                         _______ _______ _______ _____ _____    ______ ____
ROOT
ATOM      5  O   UNL     1      -5.100 -12.650  15.701  0.00  0.00    -0.252 OA
ATOM      6  N   UNL     1      -5.064 -11.110  17.426  0.00  0.00    -0.292 N 
ATOM      7  N   UNL     1      -4.120 -10.537  15.412  0.00  0.00    -0.269 N 
ATOM     14  C   UNL     1      -4.786 -11.539  16.122  0.00  0.00    +0.304 C 
ATOM     22  H   UNL     1      -4.833 -10.153  17.676  0.00  0.00    +0.151 HD
ATOM     24  H   UNL     1      -3.934  -9.671  15.912  0.00  0.00    +0.156 HD
ENDROOT
BRANCH   6  10
ATOM      2  O   UNL     1      -6.805 -10.426  19.910  0.00  0.00    -0.369 OA
ATOM      3  O   UNL     1      -7.849 -13.075  18.770  0.00  0.00    -0.369 OA
ATOM      8  C   UNL     1      -7.235 -11.935  18.133  0.00  0.00    +0.172 C 
ATOM      9  C   UNL     1      -7.741 -10.703  18.855  0.00  0.00    +0.179 C 
ATOM     10  C   UNL     1      -5.748 -11.932  18.400  0.00  0.00    +0.131 C 
ATOM     11  C   UNL     1      -9.072 -11.166  19.398  0.00  0.00    +0.171 C 
ATOM     12  C   UNL     1      -5.669 -11.293  19.777  0.00  0.00    +0.185 C 
ATOM     13  C   UNL     1      -8.790 -12.609  19.748  0.00  0.00    +0.194 C 
BRANCH  11   4
ATOM      4  O   UNL     1      -9.513 -10.425  20.514  0.00  0.00    -0.387 OA
ATOM     23  H   UNL     1     -10.268 -10.894  20.908  0.00  0.00    +0.210 HD
ENDBRANCH  11   4
ENDBRANCH   6  10
BRANCH   7  15
ATOM     15  C   UNL     1      -3.666 -10.576  14.073  0.00  0.00    +0.036 A 
ATOM     16  C   UNL     1      -4.555 -10.306  13.045  0.00  0.00    +0.038 A 
ATOM     17  C   UNL     1      -2.341 -10.887  13.816  0.00  0.00    +0.023 A 
ATOM     18  C   UNL     1      -4.107 -10.346  11.726  0.00  0.00    +0.009 A 
ATOM     19  C   UNL     1      -1.892 -10.929  12.496  0.00  0.00    +0.003 A 
ATOM     20  C   UNL     1      -2.775 -10.658  11.451  0.00  0.00    +0.015 A 
BRANCH  18   1
ATOM      1  S   UNL     1      -5.236 -10.001  10.389  0.00  0.00    -0.129 S 
ATOM     21  C   UNL     1      -4.241  -8.900   9.343  0.00  0.00    +0.090 C 
ENDBRANCH  18   1
ENDBRANCH   7  15
TORSDOF 4
ENDMDL
MODEL 5
REMARK VINA RESULT:      -6.1     32.101     33.041
REMARK  Name = 11911845
REMARK  5 active torsions:
REMARK  status: ('A' for Active; 'I' for Inactive)
REMARK    1  A    between atoms: S_1  and  C_18
REMARK    2  A    between atoms: S_1  and  C_21
REMARK    3  A    between atoms: O_4  and  C_11
REMARK    4  A    between atoms: N_6  and  C_10
REMARK    5  A    between atoms: N_7  and  C_15
REMARK                            x       y       z     vdW  Elec       q    Type
REMARK                         _______ _______ _______ _____ _____    ______ ____
ROOT
ATOM      5  O   UNL     1     -17.088   3.479  28.865  0.00  0.00    -0.252 OA
ATOM      6  N   UNL     1     -15.632   3.441  27.069  0.00  0.00    -0.292 N 
ATOM      7  N   UNL     1     -14.854   2.814  29.137  0.00  0.00    -0.269 N 
ATOM     14  C   UNL     1     -15.965   3.261  28.417  0.00  0.00    +0.304 C 
ATOM     22  H   UNL     1     -14.700   3.175  26.765  0.00  0.00    +0.151 HD
ATOM     24  H   UNL     1     -13.993   2.685  28.612  0.00  0.00    +0.156 HD
ENDROOT
BRANCH   6  10
ATOM      2  O   UNL     1     -15.838   3.004  23.998  0.00  0.00    -0.369 OA
ATOM      3  O   UNL     1     -18.698   3.307  25.067  0.00  0.00    -0.369 OA
ATOM      8  C   UNL     1     -17.501   2.773  25.672  0.00  0.00    +0.172 C 
ATOM      9  C   UNL     1     -16.742   2.049  24.578  0.00  0.00    +0.179 C 
ATOM     10  C   UNL     1     -16.578   3.899  26.075  0.00  0.00    +0.131 C 
ATOM     11  C   UNL     1     -17.841   1.664  23.616  0.00  0.00    +0.171 C 
ATOM     12  C   UNL     1     -15.863   4.213  24.772  0.00  0.00    +0.185 C 
ATOM     13  C   UNL     1     -18.775   2.849  23.709  0.00  0.00    +0.194 C 
BRANCH  11   4
ATOM      4  O   UNL     1     -17.386   1.449  22.300  0.00  0.00    -0.387 OA
ATOM     23  H   UNL     1     -18.082   1.744  21.688  0.00  0.00    +0.210 HD
ENDBRANCH  11   4
ENDBRANCH   6  10
BRANCH   7  15
ATOM     15  C   UNL     1     -14.776   2.516  30.518  0.00  0.00    +0.036 A 
ATOM     16  C   UNL     1     -14.599   3.546  31.427  0.00  0.00    +0.038 A 
ATOM     17  C   UNL     1     -14.875   1.198  30.932  0.00  0.00    +0.023 A 
ATOM     18  C   UNL     1     -14.522   3.250  32.787  0.00  0.00    +0.009 A 
ATOM     19  C   UNL     1     -14.796   0.901  32.293  0.00  0.00    +0.003 A 
ATOM     20  C   UNL     1     -14.620   1.927  33.220  0.00  0.00    +0.015 A 
BRANCH  18   1
ATOM      1  S   UNL     1     -14.296   4.562  33.974  0.00  0.00    -0.129 S 
ATOM     21  C   UNL     1     -13.936   5.976  32.895  0.00  0.00    +0.090 C 
ENDBRANCH  18   1
ENDBRANCH   7  15
TORSDOF 4
ENDMDL
MODEL 6
REMARK VINA RESULT:      -6.0     27.417     29.410
REMARK  Name = 11911845
REMARK  5 active torsions:
REMARK  status: ('A' for Active; 'I' for Inactive)
REMARK    1  A    between atoms: S_1  and  C_18
REMARK    2  A    between atoms: S_1  and  C_21
REMARK    3  A    between atoms: O_4  and  C_11
REMARK    4  A    between atoms: N_6  and  C_10
REMARK    5  A    between atoms: N_7  and  C_15
REMARK                            x       y       z     vdW  Elec       q    Type
REMARK                         _______ _______ _______ _____ _____    ______ ____
ROOT
ATOM      5  O   UNL     1     -14.256   8.211  19.472  0.00  0.00    -0.252 OA
ATOM      6  N   UNL     1     -13.595   7.088  21.382  0.00  0.00    -0.292 N 
ATOM      7  N   UNL     1     -11.986   8.039  20.046  0.00  0.00    -0.269 N 
ATOM     14  C   UNL     1     -13.357   7.825  20.216  0.00  0.00    +0.304 C 
ATOM     22  H   UNL     1     -12.804   6.865  21.979  0.00  0.00    +0.151 HD
ATOM     24  H   UNL     1     -11.373   7.648  20.758  0.00  0.00    +0.156 HD
ENDROOT
BRANCH   6  10
ATOM      2  O   UNL     1     -14.945   4.332  21.880  0.00  0.00    -0.369 OA
ATOM      3  O   UNL     1     -16.204   6.329  23.838  0.00  0.00    -0.369 OA
ATOM      8  C   UNL     1     -14.883   6.256  23.264  0.00  0.00    +0.172 C 
ATOM      9  C   UNL     1     -14.522   4.786  23.176  0.00  0.00    +0.179 C 
ATOM     10  C   UNL     1     -14.920   6.710  21.823  0.00  0.00    +0.131 C 
ATOM     11  C   UNL     1     -15.355   4.179  24.280  0.00  0.00    +0.171 C 
ATOM     12  C   UNL     1     -15.379   5.456  21.100  0.00  0.00    +0.185 C 
ATOM     13  C   UNL     1     -16.618   5.008  24.220  0.00  0.00    +0.194 C 
BRANCH  11   4
ATOM      4  O   UNL     1     -15.613   2.805  24.098  0.00  0.00    -0.387 OA
ATOM     23  H   UNL     1     -16.389   2.718  23.518  0.00  0.00    +0.210 HD
ENDBRANCH  11   4
ENDBRANCH   6  10
BRANCH   7  15
ATOM     15  C   UNL     1     -11.339   8.735  18.999  0.00  0.00    +0.036 A 
ATOM     16  C   UNL     1     -11.285   8.168  17.736  0.00  0.00    +0.038 A 
ATOM     17  C   UNL     1     -10.768   9.970  19.259  0.00  0.00    +0.023 A 
ATOM     18  C   UNL     1     -10.646   8.856  16.705  0.00  0.00    +0.009 A 
ATOM     19  C   UNL     1     -10.128  10.659  18.229  0.00  0.00    +0.003 A 
ATOM     20  C   UNL     1     -10.067  10.101  16.952  0.00  0.00    +0.015 A 
BRANCH  18   1
ATOM      1  S   UNL     1     -10.568   8.144  15.072  0.00  0.00    -0.129 S 
ATOM     21  C   UNL     1     -12.282   8.331  14.506  0.00  0.00    +0.090 C 
ENDBRANCH  18   1
ENDBRANCH   7  15
TORSDOF 4
ENDMDL
MODEL 7
REMARK VINA RESULT:      -5.9      3.610      8.306
REMARK  Name = 11911845
REMARK  5 active torsions:
REMARK  status: ('A' for Active; 'I' for Inactive)
REMARK    1  A    between atoms: S_1  and  C_18
REMARK    2  A    between atoms: S_1  and  C_21
REMARK    3  A    between atoms: O_4  and  C_11
REMARK    4  A    between atoms: N_6  and  C_10
REMARK    5  A    between atoms: N_7  and  C_15
REMARK                            x       y       z     vdW  Elec       q    Type
REMARK                         _______ _______ _______ _____ _____    ______ ____
ROOT
ATOM      5  O   UNL     1      17.676   8.790  20.850  0.00  0.00    -0.252 OA
ATOM      6  N   UNL     1      18.466   6.913  21.945  0.00  0.00    -0.292 N 
ATOM      7  N   UNL     1      16.205   7.125  21.607  0.00  0.00    -0.269 N 
ATOM     14  C   UNL     1      17.455   7.718  21.408  0.00  0.00    +0.304 C 
ATOM     22  H   UNL     1      18.208   6.009  22.330  0.00  0.00    +0.151 HD
ATOM     24  H   UNL     1      16.197   6.231  22.091  0.00  0.00    +0.156 HD
ENDROOT
BRANCH   6  10
ATOM      2  O   UNL     1      21.061   5.334  22.609  0.00  0.00    -0.369 OA
ATOM      3  O   UNL     1      21.750   7.316  20.372  0.00  0.00    -0.369 OA
ATOM      8  C   UNL     1      20.526   6.624  20.693  0.00  0.00    +0.172 C 
ATOM      9  C   UNL     1      20.917   5.243  21.182  0.00  0.00    +0.179 C 
ATOM     10  C   UNL     1      19.869   7.264  21.893  0.00  0.00    +0.131 C 
ATOM     11  C   UNL     1      22.246   5.019  20.500  0.00  0.00    +0.171 C 
ATOM     12  C   UNL     1      20.616   6.625  23.051  0.00  0.00    +0.185 C 
ATOM     13  C   UNL     1      22.850   6.405  20.515  0.00  0.00    +0.194 C 
BRANCH  11   4
ATOM      4  O   UNL     1      23.063   4.077  21.155  0.00  0.00    -0.387 OA
ATOM     23  H   UNL     1      23.677   4.560  21.734  0.00  0.00    +0.210 HD
ENDBRANCH  11   4
ENDBRANCH   6  10
BRANCH   7  15
ATOM     15  C   UNL     1      14.938   7.618  21.215  0.00  0.00    +0.036 A 
ATOM     16  C   UNL     1      14.488   7.388  19.925  0.00  0.00    +0.038 A 
ATOM     17  C   UNL     1      14.173   8.322  22.130  0.00  0.00    +0.023 A 
ATOM     18  C   UNL     1      13.239   7.874  19.541  0.00  0.00    +0.009 A 
ATOM     19  C   UNL     1      12.925   8.811  21.746  0.00  0.00    +0.003 A 
ATOM     20  C   UNL     1      12.458   8.586  20.451  0.00  0.00    +0.015 A 
BRANCH  18   1
ATOM      1  S   UNL     1      12.642   7.589  17.885  0.00  0.00    -0.129 S 
ATOM     21  C   UNL     1      12.592   9.275  17.215  0.00  0.00    +0.090 C 
ENDBRANCH  18   1
ENDBRANCH   7  15
TORSDOF 4
ENDMDL
MODEL 8
REMARK VINA RESULT:      -5.7     16.438     18.928
REMARK  Name = 11911845
REMARK  5 active torsions:
REMARK  status: ('A' for Active; 'I' for Inactive)
REMARK    1  A    between atoms: S_1  and  C_18
REMARK    2  A    between atoms: S_1  and  C_21
REMARK    3  A    between atoms: O_4  and  C_11
REMARK    4  A    between atoms: N_6  and  C_10
REMARK    5  A    between atoms: N_7  and  C_15
REMARK                            x       y       z     vdW  Elec       q    Type
REMARK                         _______ _______ _______ _____ _____    ______ ____
ROOT
ATOM      5  O   UNL     1      10.438   6.478   3.306  0.00  0.00    -0.252 OA
ATOM      6  N   UNL     1      12.476   5.390   3.214  0.00  0.00    -0.292 N 
ATOM      7  N   UNL     1      11.565   5.856   5.269  0.00  0.00    -0.269 N 
ATOM     14  C   UNL     1      11.391   5.963   3.887  0.00  0.00    +0.304 C 
ATOM     22  H   UNL     1      13.192   4.924   3.764  0.00  0.00    +0.151 HD
ATOM     24  H   UNL     1      12.416   5.400   5.587  0.00  0.00    +0.156 HD
ENDROOT
BRANCH   6  10
ATOM      2  O   UNL     1      14.762   6.138   1.243  0.00  0.00    -0.369 OA
ATOM      3  O   UNL     1      13.166   3.855  -0.041  0.00  0.00    -0.369 OA
ATOM      8  C   UNL     1      13.432   4.178   1.340  0.00  0.00    +0.172 C 
ATOM      9  C   UNL     1      14.849   4.712   1.401  0.00  0.00    +0.179 C 
ATOM     10  C   UNL     1      12.581   5.348   1.771  0.00  0.00    +0.131 C 
ATOM     11  C   UNL     1      15.498   4.057   0.205  0.00  0.00    +0.171 C 
ATOM     12  C   UNL     1      13.383   6.535   1.266  0.00  0.00    +0.185 C 
ATOM     13  C   UNL     1      14.369   4.040  -0.801  0.00  0.00    +0.194 C 
BRANCH  11   4
ATOM      4  O   UNL     1      16.626   4.752  -0.275  0.00  0.00    -0.387 OA
ATOM     23  H   UNL     1      17.214   4.929   0.479  0.00  0.00    +0.210 HD
ENDBRANCH  11   4
ENDBRANCH   6  10
BRANCH   7  15
ATOM     15  C   UNL     1      10.698   6.309   6.291  0.00  0.00    +0.036 A 
ATOM     16  C   UNL     1      10.686   7.653   6.627  0.00  0.00    +0.038 A 
ATOM     17  C   UNL     1       9.879   5.397   6.938  0.00  0.00    +0.023 A 
ATOM     18  C   UNL     1       9.831   8.097   7.635  0.00  0.00    +0.009 A 
ATOM     19  C   UNL     1       9.025   5.841   7.947  0.00  0.00    +0.003 A 
ATOM     20  C   UNL     1       9.000   7.191   8.295  0.00  0.00    +0.015 A 
BRANCH  18   1
ATOM      1  S   UNL     1       9.799   9.823   8.082  0.00  0.00    -0.129 S 
ATOM     21  C   UNL     1      11.479  10.349   7.638  0.00  0.00    +0.090 C 
ENDBRANCH  18   1
ENDBRANCH   7  15
TORSDOF 4
ENDMDL
MODEL 9
REMARK VINA RESULT:      -5.6     16.869     18.714
REMARK  Name = 11911845
REMARK  5 active torsions:
REMARK  status: ('A' for Active; 'I' for Inactive)
REMARK    1  A    between atoms: S_1  and  C_18
REMARK    2  A    between atoms: S_1  and  C_21
REMARK    3  A    between atoms: O_4  and  C_11
REMARK    4  A    between atoms: N_6  and  C_10
REMARK    5  A    between atoms: N_7  and  C_15
REMARK                            x       y       z     vdW  Elec       q    Type
REMARK                         _______ _______ _______ _____ _____    ______ ____
ROOT
ATOM      5  O   UNL     1      10.679   5.786   2.081  0.00  0.00    -0.252 OA
ATOM      6  N   UNL     1      11.499   5.697   4.241  0.00  0.00    -0.292 N 
ATOM      7  N   UNL     1      12.840   4.983   2.519  0.00  0.00    -0.269 N 
ATOM     14  C   UNL     1      11.591   5.511   2.857  0.00  0.00    +0.304 C 
ATOM     22  H   UNL     1      12.321   5.509   4.807  0.00  0.00    +0.151 HD
ATOM     24  H   UNL     1      13.484   4.811   3.287  0.00  0.00    +0.156 HD
ENDROOT
BRANCH   6  10
ATOM      2  O   UNL     1       9.718   4.653   6.566  0.00  0.00    -0.369 OA
ATOM      3  O   UNL     1       9.661   7.718   6.683  0.00  0.00    -0.369 OA
ATOM      8  C   UNL     1      10.681   6.796   6.245  0.00  0.00    +0.172 C 
ATOM      9  C   UNL     1      10.617   5.598   7.172  0.00  0.00    +0.179 C 
ATOM     10  C   UNL     1      10.322   6.231   4.891  0.00  0.00    +0.131 C 
ATOM     11  C   UNL     1      10.036   6.191   8.433  0.00  0.00    +0.171 C 
ATOM     12  C   UNL     1       9.364   5.109   5.252  0.00  0.00    +0.185 C 
ATOM     13  C   UNL     1       9.066   7.215   7.888  0.00  0.00    +0.194 C 
BRANCH  11   4
ATOM      4  O   UNL     1       9.399   5.243   9.259  0.00  0.00    -0.387 OA
ATOM     23  H   UNL     1       9.220   5.663  10.118  0.00  0.00    +0.210 HD
ENDBRANCH  11   4
ENDBRANCH   6  10
BRANCH   7  15
ATOM     15  C   UNL     1      13.325   4.653   1.232  0.00  0.00    +0.036 A 
ATOM     16  C   UNL     1      14.388   5.365   0.702  0.00  0.00    +0.038 A 
ATOM     17  C   UNL     1      12.723   3.624   0.526  0.00  0.00    +0.023 A 
ATOM     18  C   UNL     1      14.864   5.038  -0.567  0.00  0.00    +0.009 A 
ATOM     19  C   UNL     1      13.198   3.298  -0.744  0.00  0.00    +0.003 A 
ATOM     20  C   UNL     1      14.269   4.005  -1.291  0.00  0.00    +0.015 A 
BRANCH  18   1
ATOM      1  S   UNL     1      16.233   5.943  -1.267  0.00  0.00    -0.129 S 
ATOM     21  C   UNL     1      17.394   4.605  -1.662  0.00  0.00    +0.090 C 
ENDBRANCH  18   1
ENDBRANCH   7  15
TORSDOF 4
ENDMDL
MODEL 10
REMARK VINA RESULT:      -5.6     17.190     19.143
REMARK  Name = 11911845
REMARK  5 active torsions:
REMARK  status: ('A' for Active; 'I' for Inactive)
REMARK    1  A    between atoms: S_1  and  C_18
REMARK    2  A    between atoms: S_1  and  C_21
REMARK    3  A    between atoms: O_4  and  C_11
REMARK    4  A    between atoms: N_6  and  C_10
REMARK    5  A    between atoms: N_7  and  C_15
REMARK                            x       y       z     vdW  Elec       q    Type
REMARK                         _______ _______ _______ _____ _____    ______ ____
ROOT
ATOM      5  O   UNL     1      11.069   6.268   2.084  0.00  0.00    -0.252 OA
ATOM      6  N   UNL     1      11.474   5.459   4.212  0.00  0.00    -0.292 N 
ATOM      7  N   UNL     1      12.716   4.639   2.463  0.00  0.00    -0.269 N 
ATOM     14  C   UNL     1      11.699   5.525   2.832  0.00  0.00    +0.304 C 
ATOM     22  H   UNL     1      12.083   4.869   4.771  0.00  0.00    +0.151 HD
ATOM     24  H   UNL     1      13.136   4.092   3.210  0.00  0.00    +0.156 HD
ENDROOT
BRANCH   6  10
ATOM      2  O   UNL     1       9.422   4.818   6.458  0.00  0.00    -0.369 OA
ATOM      3  O   UNL     1      10.221   7.763   6.770  0.00  0.00    -0.369 OA
ATOM      8  C   UNL     1      10.953   6.620   6.279  0.00  0.00    +0.172 C 
ATOM      9  C   UNL     1      10.536   5.435   7.126  0.00  0.00    +0.179 C 
ATOM     10  C   UNL     1      10.479   6.262   4.890  0.00  0.00    +0.131 C 
ATOM     11  C   UNL     1      10.116   6.089   8.421  0.00  0.00    +0.171 C 
ATOM     12  C   UNL     1       9.238   5.433   5.175  0.00  0.00    +0.185 C 
ATOM     13  C   UNL     1       9.484   7.375   7.939  0.00  0.00    +0.194 C 
BRANCH  11   4
ATOM      4  O   UNL     1       9.222   5.310   9.182  0.00  0.00    -0.387 OA
ATOM     23  H   UNL     1       8.428   5.150   8.643  0.00  0.00    +0.210 HD
ENDBRANCH  11   4
ENDBRANCH   6  10
BRANCH   7  15
ATOM     15  C   UNL     1      13.238   4.407   1.168  0.00  0.00    +0.036 A 
ATOM     16  C   UNL     1      12.484   3.698   0.248  0.00  0.00    +0.038 A 
ATOM     17  C   UNL     1      14.496   4.892   0.849  0.00  0.00    +0.023 A 
ATOM     18  C   UNL     1      13.000   3.469  -1.027  0.00  0.00    +0.009 A 
ATOM     19  C   UNL     1      15.013   4.663  -0.426  0.00  0.00    +0.003 A 
ATOM     20  C   UNL     1      14.265   3.951  -1.364  0.00  0.00    +0.015 A 
BRANCH  18   1
ATOM      1  S   UNL     1      12.045   2.560  -2.226  0.00  0.00    -0.129 S 
ATOM     21  C   UNL     1      12.455   3.434  -3.763  0.00  0.00    +0.090 C 
ENDBRANCH  18   1
ENDBRANCH   7  15
TORSDOF 4
ENDMDL
