MODEL 1
REMARK VINA RESULT:      -5.9      0.000      0.000
REMARK  Name = 7143899
REMARK  5 active torsions:
REMARK  status: ('A' for Active; 'I' for Inactive)
REMARK    1  A    between atoms: N_5  and  C_20
REMARK    2  A    between atoms: N_5  and  C_22
REMARK    3  A    between atoms: N_5  and  C_23
REMARK    4  A    between atoms: C_17  and  C_20
REMARK    5  A    between atoms: C_18  and  C_21
REMARK                            x       y       z     vdW  Elec       q    Type
REMARK                         _______ _______ _______ _____ _____    ______ ____
ROOT
ATOM      1  O   UNL     1       9.730   7.686   2.317  0.00  0.00    -0.267 OA
ATOM      2  O   UNL     1      12.852   9.525   6.874  0.00  0.00    -0.274 OA
ATOM      3  N   UNL     1      11.088   8.036   7.138  0.00  0.00    -0.299 N 
ATOM      4  N   UNL     1       9.566   6.985   4.535  0.00  0.00    -0.311 N 
ATOM      8  C   UNL     1       8.750   8.526   6.410  0.00  0.00    +0.027 C 
ATOM      9  C   UNL     1       9.408   6.214   6.929  0.00  0.00    +0.054 C 
ATOM     10  C   UNL     1       8.284   7.238   7.078  0.00  0.00    +0.018 C 
ATOM     11  C   UNL     1      10.033   9.048   7.082  0.00  0.00    +0.113 C 
ATOM     12  C   UNL     1       8.949   8.264   4.912  0.00  0.00    +0.130 C 
ATOM     13  C   UNL     1      10.669   6.723   7.652  0.00  0.00    +0.117 C 
ATOM     14  C   UNL     1       9.721   5.955   5.467  0.00  0.00    +0.027 A 
ATOM     15  C   UNL     1      10.174   4.755   5.074  0.00  0.00    +0.022 A 
ATOM     16  C   UNL     1       9.885   6.815   3.173  0.00  0.00    +0.259 A 
ATOM     17  C   UNL     1      12.394   8.383   6.792  0.00  0.00    +0.230 C 
ATOM     18  C   UNL     1      10.426   5.469   2.771  0.00  0.00    +0.050 A 
ATOM     19  C   UNL     1      10.536   4.514   3.706  0.00  0.00    +0.015 A 
ENDROOT
BRANCH  18  21
ATOM      6  N   UNL     1      12.541   5.139  -0.309  0.00  0.00    -0.243 NA
ATOM      7  N   UNL     1      10.284   4.487  -0.846  0.00  0.00    -0.243 NA
ATOM     21  C   UNL     1      10.836   5.196   1.381  0.00  0.00    +0.024 A 
ATOM     24  C   UNL     1      12.132   5.377   0.954  0.00  0.00    +0.122 A 
ATOM     25  C   UNL     1       9.944   4.745   0.433  0.00  0.00    +0.122 A 
ATOM     26  C   UNL     1      11.579   4.701  -1.146  0.00  0.00    +0.221 A 
ENDBRANCH  18  21
BRANCH  17  20
ATOM     20  C   UNL     1      13.276   7.271   6.281  0.00  0.00    +0.180 C 
BRANCH  20   5
ATOM      5  N   UNL     1      13.995   7.812   5.149  0.00  0.00    -0.300 NA
ATOM     22  C   UNL     1      13.406   7.358   3.884  0.00  0.00    +0.105 C 
ATOM     23  C   UNL     1      15.415   7.441   5.200  0.00  0.00    +0.105 C 
ENDBRANCH  20   5
ENDBRANCH  17  20
TORSDOF 3
ENDMDL
MODEL 2
REMARK VINA RESULT:      -5.7     24.796     27.018
REMARK  Name = 7143899
REMARK  5 active torsions:
REMARK  status: ('A' for Active; 'I' for Inactive)
REMARK    1  A    between atoms: N_5  and  C_20
REMARK    2  A    between atoms: N_5  and  C_22
REMARK    3  A    between atoms: N_5  and  C_23
REMARK    4  A    between atoms: C_17  and  C_20
REMARK    5  A    between atoms: C_18  and  C_21
REMARK                            x       y       z     vdW  Elec       q    Type
REMARK                         _______ _______ _______ _____ _____    ______ ____
ROOT
ATOM      1  O   UNL     1      -6.421 -11.107  14.945  0.00  0.00    -0.267 OA
ATOM      2  O   UNL     1      -3.418 -14.951  11.767  0.00  0.00    -0.274 OA
ATOM      3  N   UNL     1      -2.578 -12.832  12.214  0.00  0.00    -0.299 N 
ATOM      4  N   UNL     1      -4.257 -10.883  14.106  0.00  0.00    -0.311 N 
ATOM      8  C   UNL     1      -3.763 -10.721  11.599  0.00  0.00    +0.027 C 
ATOM      9  C   UNL     1      -1.911 -10.654  13.216  0.00  0.00    +0.054 C 
ATOM     10  C   UNL     1      -2.540  -9.922  12.032  0.00  0.00    +0.018 C 
ATOM     11  C   UNL     1      -3.355 -12.145  11.181  0.00  0.00    +0.113 C 
ATOM     12  C   UNL     1      -4.784 -10.726  12.743  0.00  0.00    +0.130 C 
ATOM     13  C   UNL     1      -1.458 -12.058  12.771  0.00  0.00    +0.117 C 
ATOM     14  C   UNL     1      -2.890 -10.771  14.370  0.00  0.00    +0.027 A 
ATOM     15  C   UNL     1      -2.444 -10.797  15.635  0.00  0.00    +0.022 A 
ATOM     16  C   UNL     1      -5.206 -11.039  15.136  0.00  0.00    +0.259 A 
ATOM     17  C   UNL     1      -2.880 -14.154  12.539  0.00  0.00    +0.230 C 
ATOM     18  C   UNL     1      -4.672 -11.102  16.541  0.00  0.00    +0.050 A 
ATOM     19  C   UNL     1      -3.351 -10.970  16.734  0.00  0.00    +0.015 A 
ENDROOT
BRANCH  18  21
ATOM      6  N   UNL     1      -6.650 -10.469  19.664  0.00  0.00    -0.243 NA
ATOM      7  N   UNL     1      -7.026 -12.742  18.957  0.00  0.00    -0.243 NA
ATOM     21  C   UNL     1      -5.571 -11.311  17.690  0.00  0.00    +0.024 A 
ATOM     24  C   UNL     1      -5.834 -10.313  18.602  0.00  0.00    +0.122 A 
ATOM     25  C   UNL     1      -6.198 -12.516  17.917  0.00  0.00    +0.122 A 
ATOM     26  C   UNL     1      -7.206 -11.691  19.780  0.00  0.00    +0.221 A 
ENDBRANCH  18  21
BRANCH  17  20
ATOM     20  C   UNL     1      -2.523 -14.606  13.933  0.00  0.00    +0.180 C 
BRANCH  20   5
ATOM      5  N   UNL     1      -1.767 -15.829  13.781  0.00  0.00    -0.300 NA
ATOM     22  C   UNL     1      -1.799 -16.625  15.014  0.00  0.00    +0.105 C 
ATOM     23  C   UNL     1      -0.376 -15.547  13.406  0.00  0.00    +0.105 C 
ENDBRANCH  20   5
ENDBRANCH  17  20
TORSDOF 3
ENDMDL
MODEL 3
REMARK VINA RESULT:      -5.6     25.253     27.412
REMARK  Name = 7143899
REMARK  5 active torsions:
REMARK  status: ('A' for Active; 'I' for Inactive)
REMARK    1  A    between atoms: N_5  and  C_20
REMARK    2  A    between atoms: N_5  and  C_22
REMARK    3  A    between atoms: N_5  and  C_23
REMARK    4  A    between atoms: C_17  and  C_20
REMARK    5  A    between atoms: C_18  and  C_21
REMARK                            x       y       z     vdW  Elec       q    Type
REMARK                         _______ _______ _______ _____ _____    ______ ____
ROOT
ATOM      1  O   UNL     1     -11.540  -7.550   9.902  0.00  0.00    -0.267 OA
ATOM      2  O   UNL     1     -16.914  -5.348  10.314  0.00  0.00    -0.274 OA
ATOM      3  N   UNL     1     -15.119  -4.372  11.419  0.00  0.00    -0.299 N 
ATOM      4  N   UNL     1     -12.199  -5.586  10.973  0.00  0.00    -0.311 N 
ATOM      8  C   UNL     1     -13.683  -5.589  13.060  0.00  0.00    +0.027 C 
ATOM      9  C   UNL     1     -12.912  -3.455  12.111  0.00  0.00    +0.054 C 
ATOM     10  C   UNL     1     -12.976  -4.280  13.395  0.00  0.00    +0.018 C 
ATOM     11  C   UNL     1     -15.104  -5.315  12.538  0.00  0.00    +0.113 C 
ATOM     12  C   UNL     1     -12.835  -6.365  12.046  0.00  0.00    +0.130 C 
ATOM     13  C   UNL     1     -14.342  -3.141  11.629  0.00  0.00    +0.117 C 
ATOM     14  C   UNL     1     -12.152  -4.191  11.024  0.00  0.00    +0.027 A 
ATOM     15  C   UNL     1     -11.462  -3.507  10.099  0.00  0.00    +0.022 A 
ATOM     16  C   UNL     1     -11.550  -6.320   9.960  0.00  0.00    +0.259 A 
ATOM     17  C   UNL     1     -15.901  -4.646  10.297  0.00  0.00    +0.230 C 
ATOM     18  C   UNL     1     -10.816  -5.522   8.916  0.00  0.00    +0.050 A 
ATOM     19  C   UNL     1     -10.790  -4.186   9.028  0.00  0.00    +0.015 A 
ENDROOT
BRANCH  18  21
ATOM      6  N   UNL     1     -10.246  -7.232   5.626  0.00  0.00    -0.243 NA
ATOM      7  N   UNL     1      -8.131  -7.008   6.759  0.00  0.00    -0.243 NA
ATOM     21  C   UNL     1     -10.141  -6.185   7.786  0.00  0.00    +0.024 A 
ATOM     24  C   UNL     1     -10.831  -6.621   6.677  0.00  0.00    +0.122 A 
ATOM     25  C   UNL     1      -8.781  -6.404   7.776  0.00  0.00    +0.122 A 
ATOM     26  C   UNL     1      -8.912  -7.390   5.731  0.00  0.00    +0.221 A 
ENDBRANCH  18  21
BRANCH  17  20
ATOM     20  C   UNL     1     -15.450  -4.036   8.993  0.00  0.00    +0.180 C 
BRANCH  20   5
ATOM      5  N   UNL     1     -15.646  -5.051   7.982  0.00  0.00    -0.300 NA
ATOM     22  C   UNL     1     -14.432  -5.854   7.799  0.00  0.00    +0.105 C 
ATOM     23  C   UNL     1     -16.045  -4.451   6.703  0.00  0.00    +0.105 C 
ENDBRANCH  20   5
ENDBRANCH  17  20
TORSDOF 3
ENDMDL
MODEL 4
REMARK VINA RESULT:      -5.6     26.753     28.866
REMARK  Name = 7143899
REMARK  5 active torsions:
REMARK  status: ('A' for Active; 'I' for Inactive)
REMARK    1  A    between atoms: N_5  and  C_20
REMARK    2  A    between atoms: N_5  and  C_22
REMARK    3  A    between atoms: N_5  and  C_23
REMARK    4  A    between atoms: C_17  and  C_20
REMARK    5  A    between atoms: C_18  and  C_21
REMARK                            x       y       z     vdW  Elec       q    Type
REMARK                         _______ _______ _______ _____ _____    ______ ____
ROOT
ATOM      1  O   UNL     1      -5.484 -13.277  15.957  0.00  0.00    -0.267 OA
ATOM      2  O   UNL     1     -11.045 -11.558  15.856  0.00  0.00    -0.274 OA
ATOM      3  N   UNL     1      -9.882 -11.771  17.855  0.00  0.00    -0.299 N 
ATOM      4  N   UNL     1      -6.790 -12.564  17.753  0.00  0.00    -0.311 N 
ATOM      8  C   UNL     1      -8.804 -13.896  18.604  0.00  0.00    +0.027 C 
ATOM      9  C   UNL     1      -8.198 -11.773  19.687  0.00  0.00    +0.054 C 
ATOM     10  C   UNL     1      -8.489 -13.249  19.948  0.00  0.00    +0.018 C 
ATOM     11  C   UNL     1     -10.028 -13.223  17.956  0.00  0.00    +0.113 C 
ATOM     12  C   UNL     1      -7.561 -13.814  17.710  0.00  0.00    +0.130 C 
ATOM     13  C   UNL     1      -9.448 -11.098  19.089  0.00  0.00    +0.117 C 
ATOM     14  C   UNL     1      -7.022 -11.606  18.742  0.00  0.00    +0.027 A 
ATOM     15  C   UNL     1      -6.226 -10.529  18.836  0.00  0.00    +0.022 A 
ATOM     16  C   UNL     1      -5.741 -12.437  16.821  0.00  0.00    +0.259 A 
ATOM     17  C   UNL     1     -10.224 -11.125  16.667  0.00  0.00    +0.230 C 
ATOM     18  C   UNL     1      -4.889 -11.200  16.928  0.00  0.00    +0.050 A 
ATOM     19  C   UNL     1      -5.148 -10.325  17.910  0.00  0.00    +0.015 A 
ENDROOT
BRANCH  18  21
ATOM      6  N   UNL     1      -1.447 -10.723  15.519  0.00  0.00    -0.243 NA
ATOM      7  N   UNL     1      -3.055 -10.438  13.747  0.00  0.00    -0.243 NA
ATOM     21  C   UNL     1      -3.794 -10.944  15.976  0.00  0.00    +0.024 A 
ATOM     24  C   UNL     1      -2.473 -10.954  16.363  0.00  0.00    +0.122 A 
ATOM     25  C   UNL     1      -4.032 -10.678  14.646  0.00  0.00    +0.122 A 
ATOM     26  C   UNL     1      -1.804 -10.475  14.243  0.00  0.00    +0.221 A 
ENDBRANCH  18  21
BRANCH  17  20
ATOM     20  C   UNL     1      -9.524  -9.820  16.381  0.00  0.00    +0.180 C 
BRANCH  20   5
ATOM      5  N   UNL     1     -10.565  -8.828  16.223  0.00  0.00    -0.300 NA
ATOM     22  C   UNL     1     -10.611  -8.326  14.845  0.00  0.00    +0.105 C 
ATOM     23  C   UNL     1     -10.373  -7.709  17.155  0.00  0.00    +0.105 C 
ENDBRANCH  20   5
ENDBRANCH  17  20
TORSDOF 3
ENDMDL
MODEL 5
REMARK VINA RESULT:      -5.6     25.004     27.277
REMARK  Name = 7143899
REMARK  5 active torsions:
REMARK  status: ('A' for Active; 'I' for Inactive)
REMARK    1  A    between atoms: N_5  and  C_20
REMARK    2  A    between atoms: N_5  and  C_22
REMARK    3  A    between atoms: N_5  and  C_23
REMARK    4  A    between atoms: C_17  and  C_20
REMARK    5  A    between atoms: C_18  and  C_21
REMARK                            x       y       z     vdW  Elec       q    Type
REMARK                         _______ _______ _______ _____ _____    ______ ____
ROOT
ATOM      1  O   UNL     1      -6.756 -10.285  14.057  0.00  0.00    -0.267 OA
ATOM      2  O   UNL     1      -3.725 -15.007  12.502  0.00  0.00    -0.274 OA
ATOM      3  N   UNL     1      -2.662 -13.056  13.178  0.00  0.00    -0.299 N 
ATOM      4  N   UNL     1      -4.447 -10.597  14.160  0.00  0.00    -0.311 N 
ATOM      8  C   UNL     1      -2.997 -10.845  12.064  0.00  0.00    +0.027 C 
ATOM      9  C   UNL     1      -1.955 -10.945  14.290  0.00  0.00    +0.054 C 
ATOM     10  C   UNL     1      -1.890 -10.254  12.929  0.00  0.00    +0.018 C 
ATOM     11  C   UNL     1      -2.798 -12.362  11.897  0.00  0.00    +0.113 C 
ATOM     12  C   UNL     1      -4.353 -10.508  12.696  0.00  0.00    +0.130 C 
ATOM     13  C   UNL     1      -1.700 -12.454  14.115  0.00  0.00    +0.117 C 
ATOM     14  C   UNL     1      -3.303 -10.723  14.951  0.00  0.00    +0.027 A 
ATOM     15  C   UNL     1      -3.402 -10.680  16.289  0.00  0.00    +0.022 A 
ATOM     16  C   UNL     1      -5.730 -10.435  14.721  0.00  0.00    +0.259 A 
ATOM     17  C   UNL     1      -3.362 -14.242  13.398  0.00  0.00    +0.230 C 
ATOM     18  C   UNL     1      -5.812 -10.428  16.224  0.00  0.00    +0.050 A 
ATOM     19  C   UNL     1      -4.677 -10.535  16.931  0.00  0.00    +0.015 A 
ENDROOT
BRANCH  18  21
ATOM      6  N   UNL     1      -8.865 -11.304  18.219  0.00  0.00    -0.243 NA
ATOM      7  N   UNL     1      -9.007  -8.990  17.562  0.00  0.00    -0.243 NA
ATOM     21  C   UNL     1      -7.108 -10.312  16.916  0.00  0.00    +0.024 A 
ATOM     24  C   UNL     1      -7.681 -11.375  17.577  0.00  0.00    +0.122 A 
ATOM     25  C   UNL     1      -7.819  -9.132  16.940  0.00  0.00    +0.122 A 
ATOM     26  C   UNL     1      -9.465 -10.099  18.174  0.00  0.00    +0.221 A 
ENDBRANCH  18  21
BRANCH  17  20
ATOM     20  C   UNL     1      -3.687 -14.579  14.832  0.00  0.00    +0.180 C 
BRANCH  20   5
ATOM      5  N   UNL     1      -4.888 -13.844  15.159  0.00  0.00    -0.300 NA
ATOM     22  C   UNL     1      -5.293 -14.086  16.548  0.00  0.00    +0.105 C 
ATOM     23  C   UNL     1      -5.986 -14.197  14.250  0.00  0.00    +0.105 C 
ENDBRANCH  20   5
ENDBRANCH  17  20
TORSDOF 3
ENDMDL
MODEL 6
REMARK VINA RESULT:      -5.4     13.756     16.137
REMARK  Name = 7143899
REMARK  5 active torsions:
REMARK  status: ('A' for Active; 'I' for Inactive)
REMARK    1  A    between atoms: N_5  and  C_20
REMARK    2  A    between atoms: N_5  and  C_22
REMARK    3  A    between atoms: N_5  and  C_23
REMARK    4  A    between atoms: C_17  and  C_20
REMARK    5  A    between atoms: C_18  and  C_21
REMARK                            x       y       z     vdW  Elec       q    Type
REMARK                         _______ _______ _______ _____ _____    ______ ____
ROOT
ATOM      1  O   UNL     1      -6.439  10.060   5.767  0.00  0.00    -0.267 OA
ATOM      2  O   UNL     1      -2.173  12.298   2.497  0.00  0.00    -0.274 OA
ATOM      3  N   UNL     1      -1.722  10.796   4.211  0.00  0.00    -0.299 N 
ATOM      4  N   UNL     1      -4.170   9.522   5.818  0.00  0.00    -0.311 N 
ATOM      8  C   UNL     1      -2.378  11.180   6.590  0.00  0.00    +0.027 C 
ATOM      9  C   UNL     1      -1.722   8.927   5.853  0.00  0.00    +0.054 C 
ATOM     10  C   UNL     1      -1.598   9.935   6.994  0.00  0.00    +0.018 C 
ATOM     11  C   UNL     1      -1.805  11.778   5.292  0.00  0.00    +0.113 C 
ATOM     12  C   UNL     1      -3.860  10.812   6.449  0.00  0.00    +0.130 C 
ATOM     13  C   UNL     1      -1.095   9.516   4.575  0.00  0.00    +0.117 C 
ATOM     14  C   UNL     1      -3.174   8.568   5.597  0.00  0.00    +0.027 A 
ATOM     15  C   UNL     1      -3.498   7.351   5.132  0.00  0.00    +0.022 A 
ATOM     16  C   UNL     1      -5.529   9.258   5.553  0.00  0.00    +0.259 A 
ATOM     17  C   UNL     1      -2.151  11.144   2.930  0.00  0.00    +0.230 C 
ATOM     18  C   UNL     1      -5.856   7.898   4.997  0.00  0.00    +0.050 A 
ATOM     19  C   UNL     1      -4.859   7.017   4.824  0.00  0.00    +0.015 A 
ENDROOT
BRANCH  18  21
ATOM      6  N   UNL     1      -9.304   6.433   5.186  0.00  0.00    -0.243 NA
ATOM      7  N   UNL     1      -9.071   7.598   3.090  0.00  0.00    -0.243 NA
ATOM     21  C   UNL     1      -7.238   7.532   4.641  0.00  0.00    +0.024 A 
ATOM     24  C   UNL     1      -8.035   6.786   5.481  0.00  0.00    +0.122 A 
ATOM     25  C   UNL     1      -7.810   7.915   3.448  0.00  0.00    +0.122 A 
ATOM     26  C   UNL     1      -9.752   6.866   3.992  0.00  0.00    +0.221 A 
ENDBRANCH  18  21
BRANCH  17  20
ATOM     20  C   UNL     1      -2.618  10.016   2.044  0.00  0.00    +0.180 C 
BRANCH  20   5
ATOM      5  N   UNL     1      -2.090  10.290   0.726  0.00  0.00    -0.300 NA
ATOM     22  C   UNL     1      -2.982   9.773  -0.318  0.00  0.00    +0.105 C 
ATOM     23  C   UNL     1      -0.749   9.715   0.565  0.00  0.00    +0.105 C 
ENDBRANCH  20   5
ENDBRANCH  17  20
TORSDOF 3
ENDMDL
MODEL 7
REMARK VINA RESULT:      -5.4     25.059     27.355
REMARK  Name = 7143899
REMARK  5 active torsions:
REMARK  status: ('A' for Active; 'I' for Inactive)
REMARK    1  A    between atoms: N_5  and  C_20
REMARK    2  A    between atoms: N_5  and  C_22
REMARK    3  A    between atoms: N_5  and  C_23
REMARK    4  A    between atoms: C_17  and  C_20
REMARK    5  A    between atoms: C_18  and  C_21
REMARK                            x       y       z     vdW  Elec       q    Type
REMARK                         _______ _______ _______ _____ _____    ______ ____
ROOT
ATOM      1  O   UNL     1      -4.617 -10.155  17.122  0.00  0.00    -0.267 OA
ATOM      2  O   UNL     1      -4.421  -9.302  11.366  0.00  0.00    -0.274 OA
ATOM      3  N   UNL     1      -3.499 -11.199  12.340  0.00  0.00    -0.299 N 
ATOM      4  N   UNL     1      -3.822 -11.618  15.489  0.00  0.00    -0.311 N 
ATOM      8  C   UNL     1      -1.729 -11.123  14.100  0.00  0.00    +0.027 C 
ATOM      9  C   UNL     1      -2.984 -13.204  13.720  0.00  0.00    +0.054 C 
ATOM     10  C   UNL     1      -1.596 -12.639  14.015  0.00  0.00    +0.018 C 
ATOM     11  C   UNL     1      -2.259 -10.554  12.772  0.00  0.00    +0.113 C 
ATOM     12  C   UNL     1      -2.639 -10.771  15.282  0.00  0.00    +0.130 C 
ATOM     13  C   UNL     1      -3.480 -12.670  12.363  0.00  0.00    +0.117 C 
ATOM     14  C   UNL     1      -3.970 -12.830  14.812  0.00  0.00    +0.027 A 
ATOM     15  C   UNL     1      -4.995 -13.645  15.105  0.00  0.00    +0.022 A 
ATOM     16  C   UNL     1      -4.733 -11.199  16.480  0.00  0.00    +0.259 A 
ATOM     17  C   UNL     1      -4.557 -10.417  11.875  0.00  0.00    +0.230 C 
ATOM     18  C   UNL     1      -5.893 -12.117  16.759  0.00  0.00    +0.050 A 
ATOM     19  C   UNL     1      -5.972 -13.276  16.091  0.00  0.00    +0.015 A 
ENDROOT
BRANCH  18  21
ATOM      6  N   UNL     1      -7.786 -11.836  19.985  0.00  0.00    -0.243 NA
ATOM      7  N   UNL     1      -9.002 -10.661  18.268  0.00  0.00    -0.243 NA
ATOM     21  C   UNL     1      -6.931 -11.756  17.742  0.00  0.00    +0.024 A 
ATOM     24  C   UNL     1      -6.855 -12.147  19.060  0.00  0.00    +0.122 A 
ATOM     25  C   UNL     1      -8.034 -11.008  17.396  0.00  0.00    +0.122 A 
ATOM     26  C   UNL     1      -8.819 -11.101  19.528  0.00  0.00    +0.221 A 
ENDBRANCH  18  21
BRANCH  17  20
ATOM     20  C   UNL     1      -5.942 -10.996  12.023  0.00  0.00    +0.180 C 
BRANCH  20   5
ATOM      5  N   UNL     1      -6.788  -9.911  12.468  0.00  0.00    -0.300 NA
ATOM     22  C   UNL     1      -7.111 -10.045  13.894  0.00  0.00    +0.105 C 
ATOM     23  C   UNL     1      -8.026  -9.851  11.680  0.00  0.00    +0.105 C 
ENDBRANCH  20   5
ENDBRANCH  17  20
TORSDOF 3
ENDMDL
MODEL 8
REMARK VINA RESULT:      -5.3     23.303     24.931
REMARK  Name = 7143899
REMARK  5 active torsions:
REMARK  status: ('A' for Active; 'I' for Inactive)
REMARK    1  A    between atoms: N_5  and  C_20
REMARK    2  A    between atoms: N_5  and  C_22
REMARK    3  A    between atoms: N_5  and  C_23
REMARK    4  A    between atoms: C_17  and  C_20
REMARK    5  A    between atoms: C_18  and  C_21
REMARK                            x       y       z     vdW  Elec       q    Type
REMARK                         _______ _______ _______ _____ _____    ______ ____
ROOT
ATOM      1  O   UNL     1      -4.864 -12.908   9.690  0.00  0.00    -0.267 OA
ATOM      2  O   UNL     1      -6.111 -11.880  15.284  0.00  0.00    -0.274 OA
ATOM      3  N   UNL     1      -3.942 -11.692  14.474  0.00  0.00    -0.299 N 
ATOM      4  N   UNL     1      -3.427 -12.125  11.352  0.00  0.00    -0.311 N 
ATOM      8  C   UNL     1      -2.723 -13.561  13.351  0.00  0.00    +0.027 C 
ATOM      9  C   UNL     1      -1.884 -11.258  13.145  0.00  0.00    +0.054 C 
ATOM     10  C   UNL     1      -1.457 -12.712  13.338  0.00  0.00    +0.018 C 
ATOM     11  C   UNL     1      -3.651 -13.126  14.499  0.00  0.00    +0.113 C 
ATOM     12  C   UNL     1      -3.407 -13.452  11.984  0.00  0.00    +0.130 C 
ATOM     13  C   UNL     1      -2.767 -10.818  14.328  0.00  0.00    +0.117 C 
ATOM     14  C   UNL     1      -2.641 -11.079  11.842  0.00  0.00    +0.027 A 
ATOM     15  C   UNL     1      -2.582  -9.914  11.179  0.00  0.00    +0.022 A 
ATOM     16  C   UNL     1      -4.187 -11.999  10.172  0.00  0.00    +0.259 A 
ATOM     17  C   UNL     1      -5.252 -11.251  14.662  0.00  0.00    +0.230 C 
ATOM     18  C   UNL     1      -4.129 -10.667   9.472  0.00  0.00    +0.050 A 
ATOM     19  C   UNL     1      -3.342  -9.708   9.979  0.00  0.00    +0.015 A 
ENDROOT
BRANCH  18  21
ATOM      6  N   UNL     1      -6.707  -9.252   7.144  0.00  0.00    -0.243 NA
ATOM      7  N   UNL     1      -5.367 -10.848   5.936  0.00  0.00    -0.243 NA
ATOM     21  C   UNL     1      -4.921 -10.411   8.255  0.00  0.00    +0.024 A 
ATOM     24  C   UNL     1      -5.962  -9.510   8.239  0.00  0.00    +0.122 A 
ATOM     25  C   UNL     1      -4.663 -11.058   7.067  0.00  0.00    +0.122 A 
ATOM     26  C   UNL     1      -6.360  -9.946   6.043  0.00  0.00    +0.221 A 
ENDBRANCH  18  21
BRANCH  17  20
ATOM     20  C   UNL     1      -5.612  -9.922  14.047  0.00  0.00    +0.180 C 
BRANCH  20   5
ATOM      5  N   UNL     1      -5.925 -10.188  12.660  0.00  0.00    -0.300 NA
ATOM     22  C   UNL     1      -6.299  -8.955  11.958  0.00  0.00    +0.105 C 
ATOM     23  C   UNL     1      -7.004 -11.176  12.543  0.00  0.00    +0.105 C 
ENDBRANCH  20   5
ENDBRANCH  17  20
TORSDOF 3
ENDMDL
MODEL 9
REMARK VINA RESULT:      -5.1     31.198     33.383
REMARK  Name = 7143899
REMARK  5 active torsions:
REMARK  status: ('A' for Active; 'I' for Inactive)
REMARK    1  A    between atoms: N_5  and  C_20
REMARK    2  A    between atoms: N_5  and  C_22
REMARK    3  A    between atoms: N_5  and  C_23
REMARK    4  A    between atoms: C_17  and  C_20
REMARK    5  A    between atoms: C_18  and  C_21
REMARK                            x       y       z     vdW  Elec       q    Type
REMARK                         _______ _______ _______ _____ _____    ______ ____
ROOT
ATOM      1  O   UNL     1       9.267 -11.781  31.726  0.00  0.00    -0.267 OA
ATOM      2  O   UNL     1       6.445 -10.262  36.587  0.00  0.00    -0.274 OA
ATOM      3  N   UNL     1       7.176  -8.667  35.065  0.00  0.00    -0.299 N 
ATOM      4  N   UNL     1       8.565  -9.650  32.362  0.00  0.00    -0.311 N 
ATOM      8  C   UNL     1       9.562  -8.414  34.371  0.00  0.00    +0.027 C 
ATOM      9  C   UNL     1       7.786  -7.352  33.043  0.00  0.00    +0.054 C 
ATOM     10  C   UNL     1       9.193  -7.152  33.602  0.00  0.00    +0.018 C 
ATOM     11  C   UNL     1       8.567  -8.656  35.520  0.00  0.00    +0.113 C 
ATOM     12  C   UNL     1       9.611  -9.594  33.393  0.00  0.00    +0.130 C 
ATOM     13  C   UNL     1       6.791  -7.538  34.204  0.00  0.00    +0.117 C 
ATOM     14  C   UNL     1       7.731  -8.556  32.120  0.00  0.00    +0.027 A 
ATOM     15  C   UNL     1       6.865  -8.583  31.095  0.00  0.00    +0.022 A 
ATOM     16  C   UNL     1       8.524 -10.811  31.565  0.00  0.00    +0.259 A 
ATOM     17  C   UNL     1       6.310  -9.662  35.519  0.00  0.00    +0.230 C 
ATOM     18  C   UNL     1       7.517 -10.826  30.447  0.00  0.00    +0.050 A 
ATOM     19  C   UNL     1       6.757  -9.739  30.251  0.00  0.00    +0.015 A 
ENDROOT
BRANCH  18  21
ATOM      6  N   UNL     1       6.317 -14.125  29.124  0.00  0.00    -0.243 NA
ATOM      7  N   UNL     1       7.949 -13.225  27.596  0.00  0.00    -0.243 NA
ATOM     21  C   UNL     1       7.357 -12.008  29.581  0.00  0.00    +0.024 A 
ATOM     24  C   UNL     1       6.488 -13.029  29.892  0.00  0.00    +0.122 A 
ATOM     25  C   UNL     1       8.070 -12.157  28.411  0.00  0.00    +0.122 A 
ATOM     26  C   UNL     1       7.068 -14.157  28.006  0.00  0.00    +0.221 A 
ENDBRANCH  18  21
BRANCH  17  20
ATOM     20  C   UNL     1       5.150 -10.010  34.620  0.00  0.00    +0.180 C 
BRANCH  20   5
ATOM      5  N   UNL     1       5.027 -11.450  34.657  0.00  0.00    -0.300 NA
ATOM     22  C   UNL     1       5.643 -12.062  33.473  0.00  0.00    +0.105 C 
ATOM     23  C   UNL     1       3.619 -11.857  34.752  0.00  0.00    +0.105 C 
ENDBRANCH  20   5
ENDBRANCH  17  20
TORSDOF 3
ENDMDL
MODEL 10
REMARK VINA RESULT:      -5.1     31.287     33.117
REMARK  Name = 7143899
REMARK  5 active torsions:
REMARK  status: ('A' for Active; 'I' for Inactive)
REMARK    1  A    between atoms: N_5  and  C_20
REMARK    2  A    between atoms: N_5  and  C_22
REMARK    3  A    between atoms: N_5  and  C_23
REMARK    4  A    between atoms: C_17  and  C_20
REMARK    5  A    between atoms: C_18  and  C_21
REMARK                            x       y       z     vdW  Elec       q    Type
REMARK                         _______ _______ _______ _____ _____    ______ ____
ROOT
ATOM      1  O   UNL     1       7.320 -10.064  34.213  0.00  0.00    -0.267 OA
ATOM      2  O   UNL     1      10.425 -14.164  31.484  0.00  0.00    -0.274 OA
ATOM      3  N   UNL     1       8.329 -13.522  30.715  0.00  0.00    -0.299 N 
ATOM      4  N   UNL     1       6.807 -11.147  32.212  0.00  0.00    -0.311 N 
ATOM      8  C   UNL     1       6.255 -13.645  32.101  0.00  0.00    +0.027 C 
ATOM      9  C   UNL     1       6.268 -12.303  30.039  0.00  0.00    +0.054 C 
ATOM     10  C   UNL     1       5.429 -13.266  30.878  0.00  0.00    +0.018 C 
ATOM     11  C   UNL     1       7.569 -14.323  31.675  0.00  0.00    +0.113 C 
ATOM     12  C   UNL     1       6.502 -12.386  32.941  0.00  0.00    +0.130 C 
ATOM     13  C   UNL     1       7.554 -13.012  29.573  0.00  0.00    +0.117 C 
ATOM     14  C   UNL     1       6.624 -11.058  30.830  0.00  0.00    +0.027 A 
ATOM     15  C   UNL     1       6.792  -9.883  30.203  0.00  0.00    +0.022 A 
ATOM     16  C   UNL     1       7.182 -10.033  32.989  0.00  0.00    +0.259 A 
ATOM     17  C   UNL     1       9.704 -13.361  30.888  0.00  0.00    +0.230 C 
ATOM     18  C   UNL     1       7.400  -8.739  32.252  0.00  0.00    +0.050 A 
ATOM     19  C   UNL     1       7.190  -8.710  30.928  0.00  0.00    +0.015 A 
ENDROOT
BRANCH  18  21
ATOM      6  N   UNL     1       9.579  -6.244  34.011  0.00  0.00    -0.243 NA
ATOM      7  N   UNL     1       7.334  -5.372  33.904  0.00  0.00    -0.243 NA
ATOM     21  C   UNL     1       7.839  -7.523  32.959  0.00  0.00    +0.024 A 
ATOM     24  C   UNL     1       9.143  -7.343  33.361  0.00  0.00    +0.122 A 
ATOM     25  C   UNL     1       6.968  -6.498  33.257  0.00  0.00    +0.122 A 
ATOM     26  C   UNL     1       8.635  -5.311  34.246  0.00  0.00    +0.221 A 
ENDBRANCH  18  21
BRANCH  17  20
ATOM     20  C   UNL     1      10.317 -12.113  30.304  0.00  0.00    +0.180 C 
BRANCH  20   5
ATOM      5  N   UNL     1      11.379 -12.555  29.428  0.00  0.00    -0.300 NA
ATOM     22  C   UNL     1      12.596 -11.760  29.631  0.00  0.00    +0.105 C 
ATOM     23  C   UNL     1      10.967 -12.483  28.020  0.00  0.00    +0.105 C 
ENDBRANCH  20   5
ENDBRANCH  17  20
TORSDOF 3
ENDMDL
