REMARK  Name = 45783627
REMARK  7 active torsions:
REMARK  status: ('A' for Active; 'I' for Inactive)
REMARK    1  A    between atoms: O_3  and  C_27
REMARK    2  A    between atoms: O_3  and  C_28
REMARK    3  A    between atoms: N_4  and  C_9
REMARK    4  A    between atoms: N_8  and  C_25
REMARK    5  A    between atoms: C_10  and  C_19
REMARK    6  A    between atoms: C_20  and  C_21
REMARK    7  A    between atoms: C_26  and  C_27
REMARK                            x       y       z     vdW  Elec       q    Type
REMARK                         _______ _______ _______ _____ _____    ______ ____
ROOT
ATOM      1  O   UNL     1      -2.297  -2.350   1.217  0.00  0.00    -0.336 OA
ATOM      5  N   UNL     1      -1.324  -0.930  -0.216  0.00  0.00    -0.190 NA
ATOM      6  N   UNL     1      -0.930  -2.360   1.526  0.00  0.00    -0.056 NA
ATOM     19  C   UNL     1      -2.442  -1.483   0.181  0.00  0.00    +0.245 A 
ATOM     20  C   UNL     1      -0.424  -1.499   0.638  0.00  0.00    +0.204 A 
ENDROOT
BRANCH  20  21
ATOM      7  N   UNL     1       3.205  -1.520   1.447  0.00  0.00    -0.239 NA
ATOM     21  C   UNL     1       0.974  -1.186   0.577  0.00  0.00    +0.041 A 
ATOM     22  C   UNL     1       1.467  -0.286  -0.361  0.00  0.00    +0.016 A 
ATOM     23  C   UNL     1       1.877  -1.771   1.451  0.00  0.00    +0.124 A 
ATOM     24  C   UNL     1       2.828  -0.002  -0.396  0.00  0.00    +0.044 A 
ATOM     25  C   UNL     1       3.647  -0.640   0.521  0.00  0.00    +0.125 A 
BRANCH  25   8
ATOM      2  O   UNL     1       5.191   1.205  -1.286  0.00  0.00    -0.273 OA
ATOM      8  N   UNL     1       5.015  -0.347   0.477  0.00  0.00    -0.268 N 
ATOM     26  C   UNL     1       5.682   0.525  -0.389  0.00  0.00    +0.244 C 
ATOM     29  H   UNL     1       5.573  -0.840   1.170  0.00  0.00    +0.156 HD
BRANCH  26  27
ATOM     27  C   UNL     1       7.171   0.563  -0.124  0.00  0.00    +0.255 C 
BRANCH  27   3
ATOM      3  O   UNL     1       7.774   1.456  -1.037  0.00  0.00    -0.374 OA
ATOM     28  C   UNL     1       9.182   1.541  -0.844  0.00  0.00    +0.194 C 
ENDBRANCH  27   3
ENDBRANCH  26  27
ENDBRANCH  25   8
ENDBRANCH  20  21
BRANCH  19  10
ATOM      4  N   UNL     1      -4.048   0.037  -0.960  0.00  0.00    -0.288 NA
ATOM     10  C   UNL     1      -3.849  -1.290  -0.345  0.00  0.00    +0.146 C 
ATOM     13  C   UNL     1      -5.075  -0.133  -1.988  0.00  0.00    +0.085 C 
ATOM     14  C   UNL     1      -4.210  -2.294  -1.456  0.00  0.00    +0.030 C 
ATOM     15  C   UNL     1      -4.658  -1.439  -2.633  0.00  0.00    +0.017 C 
BRANCH   4   9
ATOM      9  C   UNL     1      -4.406   1.073   0.008  0.00  0.00    +0.057 C 
ATOM     11  C   UNL     1      -3.298   1.208   1.059  0.00  0.00    +0.019 C 
ATOM     12  C   UNL     1      -4.647   2.402  -0.716  0.00  0.00    +0.019 C 
ATOM     16  C   UNL     1      -3.602   2.335   2.045  0.00  0.00    +0.002 C 
ATOM     17  C   UNL     1      -4.949   3.527   0.273  0.00  0.00    +0.002 C 
ATOM     18  C   UNL     1      -3.854   3.658   1.328  0.00  0.00    +0.000 C 
ENDBRANCH   4   9
ENDBRANCH  19  10
TORSDOF 6
