MODEL 1
REMARK VINA RESULT:      -6.5      0.000      0.000
REMARK  Name = 38027741
REMARK  14 active torsions:
REMARK  status: ('A' for Active; 'I' for Inactive)
REMARK    1  A    between atoms: O_3  and  C_29
REMARK    2  A    between atoms: O_3  and  C_30
REMARK    3  A    between atoms: N_4  and  C_14
REMARK    4  A    between atoms: N_5  and  C_21
REMARK    5  A    between atoms: N_6  and  C_23
REMARK    6  A    between atoms: C_7  and  C_11
REMARK    7  A    between atoms: C_8  and  C_14
REMARK    8  A    between atoms: C_10  and  C_15
REMARK    9  A    between atoms: C_11  and  C_16
REMARK   10  A    between atoms: C_11  and  C_17
REMARK   11  A    between atoms: C_12  and  C_18
REMARK   12  A    between atoms: C_15  and  C_19
REMARK   13  A    between atoms: C_21  and  C_22
REMARK   14  A    between atoms: C_23  and  C_26
REMARK                            x       y       z     vdW  Elec       q    Type
REMARK                         _______ _______ _______ _____ _____    ______ ____
ROOT
ATOM      7  C   UNL     1      -5.858 -10.558  15.221  0.00  0.00    +0.000 C 
ATOM      8  C   UNL     1      -6.691 -10.560  16.527  0.00  0.00    +0.032 C 
ATOM      9  C   UNL     1      -4.904 -11.761  15.191  0.00  0.00    +0.012 C 
ATOM     10  C   UNL     1      -3.934 -11.764  16.388  0.00  0.00    +0.023 C 
ATOM     12  C   UNL     1      -4.652 -11.502  17.696  0.00  0.00    -0.073 C 
ATOM     13  C   UNL     1      -5.889 -10.976  17.738  0.00  0.00    -0.022 C 
ATOM     18  C   UNL     1      -3.933 -11.901  18.955  0.00  0.00    +0.039 C 
ENDROOT
BRANCH   7  11
ATOM     11  C   UNL     1      -6.753 -10.575  13.977  0.00  0.00    -0.013 C 
ATOM     16  C   UNL     1      -6.212  -9.616  12.920  0.00  0.00    +0.007 C 
ATOM     17  C   UNL     1      -6.861 -11.990  13.419  0.00  0.00    +0.007 C 
ENDBRANCH   7  11
BRANCH   8  14
ATOM     14  C   UNL     1      -7.325  -9.187  16.782  0.00  0.00    +0.113 C 
BRANCH  14   4
ATOM      2  O   UNL     1     -10.138  -9.795  16.582  0.00  0.00    -0.253 OA
ATOM      4  N   UNL     1      -8.269  -9.256  17.852  0.00  0.00    -0.299 N 
ATOM      6  N   UNL     1     -10.317  -9.559  18.883  0.00  0.00    -0.300 N 
ATOM     20  C   UNL     1      -9.625  -9.559  17.674  0.00  0.00    +0.300 C 
ATOM     31  H   UNL     1      -7.932  -9.144  18.803  0.00  0.00    +0.150 HD
ATOM     33  H   UNL     1      -9.811  -9.338  19.735  0.00  0.00    +0.150 HD
BRANCH   6  23
ATOM     23  C   UNL     1     -11.730  -9.842  18.975  0.00  0.00    +0.102 C 
ATOM     26  C   UNL     1     -12.184  -9.935  20.417  0.00  0.00    +0.024 C 
ENDBRANCH   6  23
ENDBRANCH  14   4
ENDBRANCH   8  14
BRANCH  10  15
ATOM     15  C   UNL     1      -2.794 -10.760  16.177  0.00  0.00    +0.103 C 
BRANCH  15  19
ATOM      1  O   UNL     1      -1.246 -12.027  14.814  0.00  0.00    -0.276 OA
ATOM      5  N   UNL     1      -2.225 -10.104  13.949  0.00  0.00    -0.311 N 
ATOM     19  C   UNL     1      -1.995 -11.060  14.928  0.00  0.00    +0.214 C 
ATOM     32  H   UNL     1      -2.867  -9.340  14.136  0.00  0.00    +0.149 HD
BRANCH   5  21
ATOM     21  C   UNL     1      -1.593 -10.138  12.651  0.00  0.00    +0.139 C 
BRANCH  21  22
ATOM     22  C   UNL     1      -2.591 -10.322  11.544  0.00  0.00    -0.030 A 
ATOM     24  C   UNL     1      -2.806  -9.299  10.620  0.00  0.00    +0.009 A 
ATOM     25  C   UNL     1      -3.300 -11.519  11.438  0.00  0.00    +0.009 A 
ATOM     27  C   UNL     1      -3.733  -9.472   9.592  0.00  0.00    +0.046 A 
ATOM     28  C   UNL     1      -4.227 -11.692  10.411  0.00  0.00    +0.046 A 
ATOM     29  C   UNL     1      -4.443 -10.668   9.487  0.00  0.00    +0.120 A 
BRANCH  29   3
ATOM      3  O   UNL     1      -5.346 -10.837   8.483  0.00  0.00    -0.495 OA
ATOM     30  C   UNL     1      -4.864 -11.409   7.267  0.00  0.00    +0.277 C 
ENDBRANCH  29   3
ENDBRANCH  21  22
ENDBRANCH   5  21
ENDBRANCH  15  19
ENDBRANCH  10  15
TORSDOF 9
ENDMDL
MODEL 2
REMARK VINA RESULT:      -6.3      2.900      8.056
REMARK  Name = 38027741
REMARK  14 active torsions:
REMARK  status: ('A' for Active; 'I' for Inactive)
REMARK    1  A    between atoms: O_3  and  C_29
REMARK    2  A    between atoms: O_3  and  C_30
REMARK    3  A    between atoms: N_4  and  C_14
REMARK    4  A    between atoms: N_5  and  C_21
REMARK    5  A    between atoms: N_6  and  C_23
REMARK    6  A    between atoms: C_7  and  C_11
REMARK    7  A    between atoms: C_8  and  C_14
REMARK    8  A    between atoms: C_10  and  C_15
REMARK    9  A    between atoms: C_11  and  C_16
REMARK   10  A    between atoms: C_11  and  C_17
REMARK   11  A    between atoms: C_12  and  C_18
REMARK   12  A    between atoms: C_15  and  C_19
REMARK   13  A    between atoms: C_21  and  C_22
REMARK   14  A    between atoms: C_23  and  C_26
REMARK                            x       y       z     vdW  Elec       q    Type
REMARK                         _______ _______ _______ _____ _____    ______ ____
ROOT
ATOM      7  C   UNL     1      -5.006 -10.646  10.992  0.00  0.00    +0.000 C 
ATOM      8  C   UNL     1      -4.530  -9.732   9.835  0.00  0.00    +0.032 C 
ATOM      9  C   UNL     1      -4.411 -10.176  12.327  0.00  0.00    +0.012 C 
ATOM     10  C   UNL     1      -2.870 -10.176  12.309  0.00  0.00    +0.023 C 
ATOM     12  C   UNL     1      -2.322  -9.522  11.056  0.00  0.00    -0.073 C 
ATOM     13  C   UNL     1      -3.082  -9.321   9.965  0.00  0.00    -0.022 C 
ATOM     18  C   UNL     1      -0.890  -9.066  11.102  0.00  0.00    +0.039 C 
ENDROOT
BRANCH   7  11
ATOM     11  C   UNL     1      -6.535 -10.685  11.091  0.00  0.00    -0.013 C 
ATOM     16  C   UNL     1      -6.966 -11.415  12.361  0.00  0.00    +0.007 C 
ATOM     17  C   UNL     1      -7.107  -9.272  11.060  0.00  0.00    +0.007 C 
ENDBRANCH   7  11
BRANCH   8  14
ATOM     14  C   UNL     1      -4.750 -10.401   8.474  0.00  0.00    +0.113 C 
BRANCH  14   4
ATOM      2  O   UNL     1      -7.458 -10.210   7.496  0.00  0.00    -0.253 OA
ATOM      4  N   UNL     1      -5.258  -9.463   7.523  0.00  0.00    -0.299 N 
ATOM      6  N   UNL     1      -6.814  -8.419   6.169  0.00  0.00    -0.300 N 
ATOM     20  C   UNL     1      -6.592  -9.433   7.097  0.00  0.00    +0.300 C 
ATOM     31  H   UNL     1      -4.638  -8.733   7.184  0.00  0.00    +0.150 HD
ATOM     33  H   UNL     1      -6.034  -7.834   5.888  0.00  0.00    +0.150 HD
BRANCH   6  23
ATOM     23  C   UNL     1      -8.107  -8.174   5.573  0.00  0.00    +0.102 C 
ATOM     26  C   UNL     1      -8.179  -8.720   4.162  0.00  0.00    +0.024 C 
ENDBRANCH   6  23
ENDBRANCH  14   4
ENDBRANCH   8  14
BRANCH  10  15
ATOM     15  C   UNL     1      -2.315 -11.595  12.476  0.00  0.00    +0.103 C 
BRANCH  15  19
ATOM      1  O   UNL     1      -2.371 -13.221  14.266  0.00  0.00    -0.276 OA
ATOM      5  N   UNL     1      -2.285 -10.956  14.780  0.00  0.00    -0.311 N 
ATOM     19  C   UNL     1      -2.328 -12.044  13.920  0.00  0.00    +0.214 C 
ATOM     32  H   UNL     1      -2.248 -10.016  14.397  0.00  0.00    +0.149 HD
BRANCH   5  21
ATOM     21  C   UNL     1      -2.288 -11.087  16.218  0.00  0.00    +0.139 C 
BRANCH  21  22
ATOM     22  C   UNL     1      -3.656 -10.875  16.800  0.00  0.00    -0.030 A 
ATOM     24  C   UNL     1      -4.610 -10.144  16.091  0.00  0.00    +0.009 A 
ATOM     25  C   UNL     1      -3.973 -11.411  18.048  0.00  0.00    +0.009 A 
ATOM     27  C   UNL     1      -5.880  -9.948  16.633  0.00  0.00    +0.046 A 
ATOM     28  C   UNL     1      -5.243 -11.215  18.589  0.00  0.00    +0.046 A 
ATOM     29  C   UNL     1      -6.197 -10.483  17.882  0.00  0.00    +0.120 A 
BRANCH  29   3
ATOM      3  O   UNL     1      -7.437 -10.292  18.408  0.00  0.00    -0.495 OA
ATOM     30  C   UNL     1      -8.550 -10.517  17.544  0.00  0.00    +0.277 C 
ENDBRANCH  29   3
ENDBRANCH  21  22
ENDBRANCH   5  21
ENDBRANCH  15  19
ENDBRANCH  10  15
TORSDOF 9
ENDMDL
MODEL 3
REMARK VINA RESULT:      -6.0     19.193     21.940
REMARK  Name = 38027741
REMARK  14 active torsions:
REMARK  status: ('A' for Active; 'I' for Inactive)
REMARK    1  A    between atoms: O_3  and  C_29
REMARK    2  A    between atoms: O_3  and  C_30
REMARK    3  A    between atoms: N_4  and  C_14
REMARK    4  A    between atoms: N_5  and  C_21
REMARK    5  A    between atoms: N_6  and  C_23
REMARK    6  A    between atoms: C_7  and  C_11
REMARK    7  A    between atoms: C_8  and  C_14
REMARK    8  A    between atoms: C_10  and  C_15
REMARK    9  A    between atoms: C_11  and  C_16
REMARK   10  A    between atoms: C_11  and  C_17
REMARK   11  A    between atoms: C_12  and  C_18
REMARK   12  A    between atoms: C_15  and  C_19
REMARK   13  A    between atoms: C_21  and  C_22
REMARK   14  A    between atoms: C_23  and  C_26
REMARK                            x       y       z     vdW  Elec       q    Type
REMARK                         _______ _______ _______ _____ _____    ______ ____
ROOT
ATOM      7  C   UNL     1     -13.425   8.970  20.828  0.00  0.00    +0.000 C 
ATOM      8  C   UNL     1     -13.769   8.550  22.279  0.00  0.00    +0.032 C 
ATOM      9  C   UNL     1     -12.180   9.870  20.811  0.00  0.00    +0.012 C 
ATOM     10  C   UNL     1     -12.373  11.144  21.655  0.00  0.00    +0.023 C 
ATOM     12  C   UNL     1     -12.966  10.835  23.015  0.00  0.00    -0.073 C 
ATOM     13  C   UNL     1     -13.575   9.665  23.278  0.00  0.00    -0.022 C 
ATOM     18  C   UNL     1     -12.804  11.885  24.078  0.00  0.00    +0.039 C 
ENDROOT
BRANCH   7  11
ATOM     11  C   UNL     1     -13.197   7.753  19.924  0.00  0.00    -0.013 C 
ATOM     16  C   UNL     1     -13.371   8.141  18.458  0.00  0.00    +0.007 C 
ATOM     17  C   UNL     1     -11.812   7.163  20.165  0.00  0.00    +0.007 C 
ENDBRANCH   7  11
BRANCH   8  14
ATOM     14  C   UNL     1     -15.205   8.022  22.376  0.00  0.00    +0.113 C 
BRANCH  14   4
ATOM      2  O   UNL     1     -15.038   5.150  22.151  0.00  0.00    -0.253 OA
ATOM      4  N   UNL     1     -15.324   7.067  23.433  0.00  0.00    -0.299 N 
ATOM      6  N   UNL     1     -15.382   4.986  24.439  0.00  0.00    -0.300 N 
ATOM     20  C   UNL     1     -15.230   5.682  23.243  0.00  0.00    +0.300 C 
ATOM     31  H   UNL     1     -15.416   7.407  24.385  0.00  0.00    +0.150 HD
ATOM     33  H   UNL     1     -15.551   5.511  25.292  0.00  0.00    +0.150 HD
BRANCH   6  23
ATOM     23  C   UNL     1     -15.327   3.545  24.518  0.00  0.00    +0.102 C 
ATOM     26  C   UNL     1     -16.704   2.929  24.386  0.00  0.00    +0.024 C 
ENDBRANCH   6  23
ENDBRANCH  14   4
ENDBRANCH   8  14
BRANCH  10  15
ATOM     15  C   UNL     1     -13.222  12.179  20.908  0.00  0.00    +0.103 C 
BRANCH  15  19
ATOM      1  O   UNL     1     -13.689  12.015  18.539  0.00  0.00    -0.276 OA
ATOM      5  N   UNL     1     -11.547  12.574  19.248  0.00  0.00    -0.311 N 
ATOM     19  C   UNL     1     -12.881  12.239  19.436  0.00  0.00    +0.214 C 
ATOM     32  H   UNL     1     -10.955  12.744  20.055  0.00  0.00    +0.149 HD
BRANCH   5  21
ATOM     21  C   UNL     1     -10.943  12.702  17.942  0.00  0.00    +0.139 C 
BRANCH  21  22
ATOM     22  C   UNL     1     -10.771  11.371  17.269  0.00  0.00    -0.030 A 
ATOM     24  C   UNL     1     -10.178  10.312  17.957  0.00  0.00    +0.009 A 
ATOM     25  C   UNL     1     -11.207  11.193  15.956  0.00  0.00    +0.009 A 
ATOM     27  C   UNL     1     -10.020   9.076  17.331  0.00  0.00    +0.046 A 
ATOM     28  C   UNL     1     -11.049   9.957  15.330  0.00  0.00    +0.046 A 
ATOM     29  C   UNL     1     -10.454   8.898  16.017  0.00  0.00    +0.120 A 
BRANCH  29   3
ATOM      3  O   UNL     1     -10.300   7.691  15.408  0.00  0.00    -0.495 OA
ATOM     30  C   UNL     1     -10.469   7.654  13.991  0.00  0.00    +0.277 C 
ENDBRANCH  29   3
ENDBRANCH  21  22
ENDBRANCH   5  21
ENDBRANCH  15  19
ENDBRANCH  10  15
TORSDOF 9
ENDMDL
MODEL 4
REMARK VINA RESULT:      -5.9      1.647      2.114
REMARK  Name = 38027741
REMARK  14 active torsions:
REMARK  status: ('A' for Active; 'I' for Inactive)
REMARK    1  A    between atoms: O_3  and  C_29
REMARK    2  A    between atoms: O_3  and  C_30
REMARK    3  A    between atoms: N_4  and  C_14
REMARK    4  A    between atoms: N_5  and  C_21
REMARK    5  A    between atoms: N_6  and  C_23
REMARK    6  A    between atoms: C_7  and  C_11
REMARK    7  A    between atoms: C_8  and  C_14
REMARK    8  A    between atoms: C_10  and  C_15
REMARK    9  A    between atoms: C_11  and  C_16
REMARK   10  A    between atoms: C_11  and  C_17
REMARK   11  A    between atoms: C_12  and  C_18
REMARK   12  A    between atoms: C_15  and  C_19
REMARK   13  A    between atoms: C_21  and  C_22
REMARK   14  A    between atoms: C_23  and  C_26
REMARK                            x       y       z     vdW  Elec       q    Type
REMARK                         _______ _______ _______ _____ _____    ______ ____
ROOT
ATOM      7  C   UNL     1      -7.183 -11.535  16.862  0.00  0.00    +0.000 C 
ATOM      8  C   UNL     1      -7.401 -11.910  18.349  0.00  0.00    +0.032 C 
ATOM      9  C   UNL     1      -5.947 -12.254  16.302  0.00  0.00    +0.012 C 
ATOM     10  C   UNL     1      -4.667 -11.906  17.085  0.00  0.00    +0.023 C 
ATOM     12  C   UNL     1      -4.881 -11.994  18.583  0.00  0.00    -0.073 C 
ATOM     13  C   UNL     1      -6.110 -12.007  19.128  0.00  0.00    -0.022 C 
ATOM     18  C   UNL     1      -3.650 -12.111  19.437  0.00  0.00    +0.039 C 
ENDROOT
BRANCH   7  11
ATOM     11  C   UNL     1      -8.410 -11.869  16.007  0.00  0.00    -0.013 C 
ATOM     16  C   UNL     1      -8.411 -11.035  14.729  0.00  0.00    +0.007 C 
ATOM     17  C   UNL     1      -8.440 -13.359  15.679  0.00  0.00    +0.007 C 
ENDBRANCH   7  11
BRANCH   8  14
ATOM     14  C   UNL     1      -8.340 -10.914  19.040  0.00  0.00    +0.113 C 
BRANCH  14   4
ATOM      2  O   UNL     1     -10.826  -9.549  18.510  0.00  0.00    -0.253 OA
ATOM      4  N   UNL     1      -8.528  -9.750  18.232  0.00  0.00    -0.299 N 
ATOM      6  N   UNL     1      -9.669  -8.027  17.195  0.00  0.00    -0.300 N 
ATOM     20  C   UNL     1      -9.773  -9.143  18.022  0.00  0.00    +0.300 C 
ATOM     31  H   UNL     1      -7.710  -9.296  17.838  0.00  0.00    +0.150 HD
ATOM     33  H   UNL     1      -8.758  -7.775  16.826  0.00  0.00    +0.150 HD
BRANCH   6  23
ATOM     23  C   UNL     1     -10.809  -7.222  16.823  0.00  0.00    +0.102 C 
ATOM     26  C   UNL     1     -10.500  -6.343  15.628  0.00  0.00    +0.024 C 
ENDBRANCH   6  23
ENDBRANCH  14   4
ENDBRANCH   8  14
BRANCH  10  15
ATOM     15  C   UNL     1      -4.135 -10.524  16.687  0.00  0.00    +0.103 C 
BRANCH  15  19
ATOM      1  O   UNL     1      -1.760 -10.794  16.312  0.00  0.00    -0.276 OA
ATOM      5  N   UNL     1      -3.177 -10.480  14.497  0.00  0.00    -0.311 N 
ATOM     19  C   UNL     1      -2.882 -10.619  15.845  0.00  0.00    +0.214 C 
ATOM     32  H   UNL     1      -4.140 -10.341  14.206  0.00  0.00    +0.149 HD
BRANCH   5  21
ATOM     21  C   UNL     1      -2.172 -10.527  13.461  0.00  0.00    +0.139 C 
BRANCH  21  22
ATOM     22  C   UNL     1      -2.779 -10.624  12.091  0.00  0.00    -0.030 A 
ATOM     24  C   UNL     1      -2.832  -9.498  11.269  0.00  0.00    +0.009 A 
ATOM     25  C   UNL     1      -3.288 -11.842  11.640  0.00  0.00    +0.009 A 
ATOM     27  C   UNL     1      -3.396  -9.590   9.997  0.00  0.00    +0.046 A 
ATOM     28  C   UNL     1      -3.852 -11.934  10.368  0.00  0.00    +0.046 A 
ATOM     29  C   UNL     1      -3.906 -10.808   9.546  0.00  0.00    +0.120 A 
BRANCH  29   3
ATOM      3  O   UNL     1      -4.455 -10.897   8.304  0.00  0.00    -0.495 OA
ATOM     30  C   UNL     1      -5.604 -10.092   8.043  0.00  0.00    +0.277 C 
ENDBRANCH  29   3
ENDBRANCH  21  22
ENDBRANCH   5  21
ENDBRANCH  15  19
ENDBRANCH  10  15
TORSDOF 9
ENDMDL
MODEL 5
REMARK VINA RESULT:      -5.8     19.884     23.202
REMARK  Name = 38027741
REMARK  14 active torsions:
REMARK  status: ('A' for Active; 'I' for Inactive)
REMARK    1  A    between atoms: O_3  and  C_29
REMARK    2  A    between atoms: O_3  and  C_30
REMARK    3  A    between atoms: N_4  and  C_14
REMARK    4  A    between atoms: N_5  and  C_21
REMARK    5  A    between atoms: N_6  and  C_23
REMARK    6  A    between atoms: C_7  and  C_11
REMARK    7  A    between atoms: C_8  and  C_14
REMARK    8  A    between atoms: C_10  and  C_15
REMARK    9  A    between atoms: C_11  and  C_16
REMARK   10  A    between atoms: C_11  and  C_17
REMARK   11  A    between atoms: C_12  and  C_18
REMARK   12  A    between atoms: C_15  and  C_19
REMARK   13  A    between atoms: C_21  and  C_22
REMARK   14  A    between atoms: C_23  and  C_26
REMARK                            x       y       z     vdW  Elec       q    Type
REMARK                         _______ _______ _______ _____ _____    ______ ____
ROOT
ATOM      7  C   UNL     1     -14.067   7.236  22.068  0.00  0.00    +0.000 C 
ATOM      8  C   UNL     1     -15.257   8.222  21.962  0.00  0.00    +0.032 C 
ATOM      9  C   UNL     1     -14.518   5.810  21.718  0.00  0.00    +0.012 C 
ATOM     10  C   UNL     1     -15.646   5.314  22.643  0.00  0.00    +0.023 C 
ATOM     12  C   UNL     1     -16.740   6.350  22.803  0.00  0.00    -0.073 C 
ATOM     13  C   UNL     1     -16.552   7.642  22.481  0.00  0.00    -0.022 C 
ATOM     18  C   UNL     1     -18.071   5.858  23.299  0.00  0.00    +0.039 C 
ENDROOT
BRANCH   7  11
ATOM     11  C   UNL     1     -12.904   7.649  21.159  0.00  0.00    -0.013 C 
ATOM     16  C   UNL     1     -11.894   6.512  21.038  0.00  0.00    +0.007 C 
ATOM     17  C   UNL     1     -13.424   8.059  19.785  0.00  0.00    +0.007 C 
ENDBRANCH   7  11
BRANCH   8  14
ATOM     14  C   UNL     1     -14.956   9.534  22.695  0.00  0.00    +0.113 C 
BRANCH  14   4
ATOM      2  O   UNL     1     -13.393  11.283  24.376  0.00  0.00    -0.253 OA
ATOM      4  N   UNL     1     -14.520   9.280  24.032  0.00  0.00    -0.299 N 
ATOM      6  N   UNL     1     -13.474   9.683  26.055  0.00  0.00    -0.300 N 
ATOM     20  C   UNL     1     -13.760  10.184  24.786  0.00  0.00    +0.300 C 
ATOM     31  H   UNL     1     -14.829   8.428  24.488  0.00  0.00    +0.150 HD
ATOM     33  H   UNL     1     -13.809   8.757  26.301  0.00  0.00    +0.150 HD
BRANCH   6  23
ATOM     23  C   UNL     1     -12.705  10.420  27.030  0.00  0.00    +0.102 C 
ATOM     26  C   UNL     1     -11.337   9.803  27.237  0.00  0.00    +0.024 C 
ENDBRANCH   6  23
ENDBRANCH  14   4
ENDBRANCH   8  14
BRANCH  10  15
ATOM     15  C   UNL     1     -15.094   4.883  24.006  0.00  0.00    +0.103 C 
BRANCH  15  19
ATOM      1  O   UNL     1     -16.091   2.693  23.761  0.00  0.00    -0.276 OA
ATOM      5  N   UNL     1     -15.852   3.611  25.883  0.00  0.00    -0.311 N 
ATOM     19  C   UNL     1     -15.732   3.605  24.501  0.00  0.00    +0.214 C 
ATOM     32  H   UNL     1     -15.521   4.413  26.411  0.00  0.00    +0.149 HD
BRANCH   5  21
ATOM     21  C   UNL     1     -16.428   2.516  26.629  0.00  0.00    +0.139 C 
BRANCH  21  22
ATOM     22  C   UNL     1     -16.003   2.531  28.069  0.00  0.00    -0.030 A 
ATOM     24  C   UNL     1     -15.712   3.742  28.699  0.00  0.00    +0.009 A 
ATOM     25  C   UNL     1     -15.900   1.334  28.777  0.00  0.00    +0.009 A 
ATOM     27  C   UNL     1     -15.317   3.754  30.036  0.00  0.00    +0.046 A 
ATOM     28  C   UNL     1     -15.505   1.346  30.115  0.00  0.00    +0.046 A 
ATOM     29  C   UNL     1     -15.213   2.557  30.744  0.00  0.00    +0.120 A 
BRANCH  29   3
ATOM      3  O   UNL     1     -14.830   2.570  32.050  0.00  0.00    -0.495 OA
ATOM     30  C   UNL     1     -14.047   3.681  32.484  0.00  0.00    +0.277 C 
ENDBRANCH  29   3
ENDBRANCH  21  22
ENDBRANCH   5  21
ENDBRANCH  15  19
ENDBRANCH  10  15
TORSDOF 9
ENDMDL
MODEL 6
REMARK VINA RESULT:      -5.8     23.533     26.858
REMARK  Name = 38027741
REMARK  14 active torsions:
REMARK  status: ('A' for Active; 'I' for Inactive)
REMARK    1  A    between atoms: O_3  and  C_29
REMARK    2  A    between atoms: O_3  and  C_30
REMARK    3  A    between atoms: N_4  and  C_14
REMARK    4  A    between atoms: N_5  and  C_21
REMARK    5  A    between atoms: N_6  and  C_23
REMARK    6  A    between atoms: C_7  and  C_11
REMARK    7  A    between atoms: C_8  and  C_14
REMARK    8  A    between atoms: C_10  and  C_15
REMARK    9  A    between atoms: C_11  and  C_16
REMARK   10  A    between atoms: C_11  and  C_17
REMARK   11  A    between atoms: C_12  and  C_18
REMARK   12  A    between atoms: C_15  and  C_19
REMARK   13  A    between atoms: C_21  and  C_22
REMARK   14  A    between atoms: C_23  and  C_26
REMARK                            x       y       z     vdW  Elec       q    Type
REMARK                         _______ _______ _______ _____ _____    ______ ____
ROOT
ATOM      7  C   UNL     1       9.021   8.738   5.763  0.00  0.00    +0.000 C 
ATOM      8  C   UNL     1       8.956   8.769   7.311  0.00  0.00    +0.032 C 
ATOM      9  C   UNL     1       8.415   7.433   5.227  0.00  0.00    +0.012 C 
ATOM     10  C   UNL     1       9.142   6.188   5.770  0.00  0.00    +0.023 C 
ATOM     12  C   UNL     1       9.356   6.269   7.268  0.00  0.00    -0.073 C 
ATOM     13  C   UNL     1       9.256   7.430   7.941  0.00  0.00    -0.022 C 
ATOM     18  C   UNL     1       9.643   4.978   7.982  0.00  0.00    +0.039 C 
ENDROOT
BRANCH   7  11
ATOM     11  C   UNL     1       8.300   9.939   5.141  0.00  0.00    -0.013 C 
ATOM     16  C   UNL     1       9.296  10.842   4.419  0.00  0.00    +0.007 C 
ATOM     17  C   UNL     1       7.208   9.467   4.186  0.00  0.00    +0.007 C 
ENDBRANCH   7  11
BRANCH   8  14
ATOM     14  C   UNL     1       9.907   9.827   7.884  0.00  0.00    +0.113 C 
BRANCH  14   4
ATOM      2  O   UNL     1      12.043  11.252   6.568  0.00  0.00    -0.253 OA
ATOM      4  N   UNL     1      11.267   9.410   7.752  0.00  0.00    -0.299 N 
ATOM      6  N   UNL     1      13.488   9.522   7.116  0.00  0.00    -0.300 N 
ATOM     20  C   UNL     1      12.251  10.162   7.096  0.00  0.00    +0.300 C 
ATOM     31  H   UNL     1      11.559   8.554   8.214  0.00  0.00    +0.150 HD
ATOM     33  H   UNL     1      13.561   8.614   7.564  0.00  0.00    +0.150 HD
BRANCH   6  23
ATOM     23  C   UNL     1      14.670  10.087   6.508  0.00  0.00    +0.102 C 
ATOM     26  C   UNL     1      15.666   9.011   6.129  0.00  0.00    +0.024 C 
ENDBRANCH   6  23
ENDBRANCH  14   4
ENDBRANCH   8  14
BRANCH  10  15
ATOM     15  C   UNL     1      10.469   5.960   5.038  0.00  0.00    +0.103 C 
BRANCH  15  19
ATOM      1  O   UNL     1      10.068   3.575   4.966  0.00  0.00    -0.276 OA
ATOM      5  N   UNL     1      11.268   4.586   3.251  0.00  0.00    -0.311 N 
ATOM     19  C   UNL     1      10.560   4.572   4.445  0.00  0.00    +0.214 C 
ATOM     32  H   UNL     1      11.636   5.464   2.897  0.00  0.00    +0.149 HD
BRANCH   5  21
ATOM     21  C   UNL     1      11.512   3.399   2.466  0.00  0.00    +0.139 C 
BRANCH  21  22
ATOM     22  C   UNL     1      12.548   3.630   1.404  0.00  0.00    -0.030 A 
ATOM     24  C   UNL     1      13.904   3.587   1.730  0.00  0.00    +0.009 A 
ATOM     25  C   UNL     1      12.155   3.886   0.090  0.00  0.00    +0.009 A 
ATOM     27  C   UNL     1      14.866   3.802   0.743  0.00  0.00    +0.046 A 
ATOM     28  C   UNL     1      13.116   4.101  -0.897  0.00  0.00    +0.046 A 
ATOM     29  C   UNL     1      14.472   4.059  -0.570  0.00  0.00    +0.120 A 
BRANCH  29   3
ATOM      3  O   UNL     1      15.412   4.267  -1.533  0.00  0.00    -0.495 OA
ATOM     30  C   UNL     1      16.775   4.292  -1.114  0.00  0.00    +0.277 C 
ENDBRANCH  29   3
ENDBRANCH  21  22
ENDBRANCH   5  21
ENDBRANCH  15  19
ENDBRANCH  10  15
TORSDOF 9
ENDMDL
MODEL 7
REMARK VINA RESULT:      -5.7     18.573     20.556
REMARK  Name = 38027741
REMARK  14 active torsions:
REMARK  status: ('A' for Active; 'I' for Inactive)
REMARK    1  A    between atoms: O_3  and  C_29
REMARK    2  A    between atoms: O_3  and  C_30
REMARK    3  A    between atoms: N_4  and  C_14
REMARK    4  A    between atoms: N_5  and  C_21
REMARK    5  A    between atoms: N_6  and  C_23
REMARK    6  A    between atoms: C_7  and  C_11
REMARK    7  A    between atoms: C_8  and  C_14
REMARK    8  A    between atoms: C_10  and  C_15
REMARK    9  A    between atoms: C_11  and  C_16
REMARK   10  A    between atoms: C_11  and  C_17
REMARK   11  A    between atoms: C_12  and  C_18
REMARK   12  A    between atoms: C_15  and  C_19
REMARK   13  A    between atoms: C_21  and  C_22
REMARK   14  A    between atoms: C_23  and  C_26
REMARK                            x       y       z     vdW  Elec       q    Type
REMARK                         _______ _______ _______ _____ _____    ______ ____
ROOT
ATOM      7  C   UNL     1     -15.795   6.340  21.949  0.00  0.00    +0.000 C 
ATOM      8  C   UNL     1     -14.902   5.153  22.390  0.00  0.00    +0.032 C 
ATOM      9  C   UNL     1     -15.345   6.870  20.580  0.00  0.00    +0.012 C 
ATOM     10  C   UNL     1     -13.879   7.340  20.591  0.00  0.00    +0.023 C 
ATOM     12  C   UNL     1     -12.968   6.329  21.257  0.00  0.00    -0.073 C 
ATOM     13  C   UNL     1     -13.445   5.351  22.047  0.00  0.00    -0.022 C 
ATOM     18  C   UNL     1     -11.499   6.441  20.958  0.00  0.00    +0.039 C 
ENDROOT
BRANCH   7  11
ATOM     11  C   UNL     1     -17.275   5.948  21.893  0.00  0.00    -0.013 C 
ATOM     16  C   UNL     1     -18.121   7.129  21.426  0.00  0.00    +0.007 C 
ATOM     17  C   UNL     1     -17.472   4.746  20.975  0.00  0.00    +0.007 C 
ENDBRANCH   7  11
BRANCH   8  14
ATOM     14  C   UNL     1     -15.041   4.883  23.892  0.00  0.00    +0.113 C 
BRANCH  14   4
ATOM      2  O   UNL     1     -17.553   3.662  24.617  0.00  0.00    -0.253 OA
ATOM      4  N   UNL     1     -15.286   3.497  24.138  0.00  0.00    -0.299 N 
ATOM      6  N   UNL     1     -16.495   1.598  24.667  0.00  0.00    -0.300 N 
ATOM     20  C   UNL     1     -16.540   2.979  24.487  0.00  0.00    +0.300 C 
ATOM     31  H   UNL     1     -14.528   2.838  23.990  0.00  0.00    +0.150 HD
ATOM     33  H   UNL     1     -15.607   1.119  24.552  0.00  0.00    +0.150 HD
BRANCH   6  23
ATOM     23  C   UNL     1     -17.656   0.819  25.031  0.00  0.00    +0.102 C 
ATOM     26  C   UNL     1     -17.736   0.610  26.529  0.00  0.00    +0.024 C 
ENDBRANCH   6  23
ENDBRANCH  14   4
ENDBRANCH   8  14
BRANCH  10  15
ATOM     15  C   UNL     1     -13.745   8.718  21.250  0.00  0.00    +0.103 C 
BRANCH  15  19
ATOM      1  O   UNL     1     -13.906  10.546  19.672  0.00  0.00    -0.276 OA
ATOM      5  N   UNL     1     -11.816   9.687  20.220  0.00  0.00    -0.311 N 
ATOM     19  C   UNL     1     -13.200   9.756  20.294  0.00  0.00    +0.214 C 
ATOM     32  H   UNL     1     -11.319   8.999  20.777  0.00  0.00    +0.149 HD
BRANCH   5  21
ATOM     21  C   UNL     1     -11.027  10.559  19.382  0.00  0.00    +0.139 C 
BRANCH  21  22
ATOM     22  C   UNL     1     -10.903  10.032  17.982  0.00  0.00    -0.030 A 
ATOM     24  C   UNL     1     -10.723   8.666  17.763  0.00  0.00    +0.009 A 
ATOM     25  C   UNL     1     -10.970  10.910  16.899  0.00  0.00    +0.009 A 
ATOM     27  C   UNL     1     -10.608   8.178  16.461  0.00  0.00    +0.046 A 
ATOM     28  C   UNL     1     -10.855  10.422  15.598  0.00  0.00    +0.046 A 
ATOM     29  C   UNL     1     -10.673   9.055  15.379  0.00  0.00    +0.120 A 
BRANCH  29   3
ATOM      3  O   UNL     1     -10.563   8.578  14.109  0.00  0.00    -0.495 OA
ATOM     30  C   UNL     1     -10.181   7.211  13.962  0.00  0.00    +0.277 C 
ENDBRANCH  29   3
ENDBRANCH  21  22
ENDBRANCH   5  21
ENDBRANCH  15  19
ENDBRANCH  10  15
TORSDOF 9
ENDMDL
MODEL 8
REMARK VINA RESULT:      -5.7     21.531     26.820
REMARK  Name = 38027741
REMARK  14 active torsions:
REMARK  status: ('A' for Active; 'I' for Inactive)
REMARK    1  A    between atoms: O_3  and  C_29
REMARK    2  A    between atoms: O_3  and  C_30
REMARK    3  A    between atoms: N_4  and  C_14
REMARK    4  A    between atoms: N_5  and  C_21
REMARK    5  A    between atoms: N_6  and  C_23
REMARK    6  A    between atoms: C_7  and  C_11
REMARK    7  A    between atoms: C_8  and  C_14
REMARK    8  A    between atoms: C_10  and  C_15
REMARK    9  A    between atoms: C_11  and  C_16
REMARK   10  A    between atoms: C_11  and  C_17
REMARK   11  A    between atoms: C_12  and  C_18
REMARK   12  A    between atoms: C_15  and  C_19
REMARK   13  A    between atoms: C_21  and  C_22
REMARK   14  A    between atoms: C_23  and  C_26
REMARK                            x       y       z     vdW  Elec       q    Type
REMARK                         _______ _______ _______ _____ _____    ______ ____
ROOT
ATOM      7  C   UNL     1     -12.512   9.494  31.664  0.00  0.00    +0.000 C 
ATOM      8  C   UNL     1     -11.757  10.165  32.839  0.00  0.00    +0.032 C 
ATOM      9  C   UNL     1     -13.850   8.915  32.148  0.00  0.00    +0.012 C 
ATOM     10  C   UNL     1     -13.662   7.872  33.266  0.00  0.00    +0.023 C 
ATOM     12  C   UNL     1     -12.710   8.361  34.338  0.00  0.00    -0.073 C 
ATOM     13  C   UNL     1     -11.875   9.395  34.133  0.00  0.00    -0.022 C 
ATOM     18  C   UNL     1     -12.770   7.662  35.668  0.00  0.00    +0.039 C 
ENDROOT
BRANCH   7  11
ATOM     11  C   UNL     1     -12.758  10.475  30.513  0.00  0.00    -0.013 C 
ATOM     16  C   UNL     1     -11.836  10.158  29.339  0.00  0.00    +0.007 C 
ATOM     17  C   UNL     1     -14.219  10.431  30.080  0.00  0.00    +0.007 C 
ENDBRANCH   7  11
BRANCH   8  14
ATOM     14  C   UNL     1     -10.276  10.369  32.500  0.00  0.00    +0.113 C 
BRANCH  14   4
ATOM      2  O   UNL     1      -8.062  11.750  33.734  0.00  0.00    -0.253 OA
ATOM      4  N   UNL     1      -9.443   9.889  33.557  0.00  0.00    -0.299 N 
ATOM      6  N   UNL     1      -7.739   9.918  35.120  0.00  0.00    -0.300 N 
ATOM     20  C   UNL     1      -8.383  10.622  34.105  0.00  0.00    +0.300 C 
ATOM     31  H   UNL     1      -9.667   8.995  33.982  0.00  0.00    +0.150 HD
ATOM     33  H   UNL     1      -8.065   8.985  35.350  0.00  0.00    +0.150 HD
BRANCH   6  23
ATOM     23  C   UNL     1      -6.612  10.452  35.849  0.00  0.00    +0.102 C 
ATOM     26  C   UNL     1      -7.024  10.948  37.220  0.00  0.00    +0.024 C 
ENDBRANCH   6  23
ENDBRANCH  14   4
ENDBRANCH   8  14
BRANCH  10  15
ATOM     15  C   UNL     1     -13.202   6.526  32.695  0.00  0.00    +0.103 C 
BRANCH  15  19
ATOM      1  O   UNL     1     -14.043   4.752  34.109  0.00  0.00    -0.276 OA
ATOM      5  N   UNL     1     -15.099   5.204  32.087  0.00  0.00    -0.311 N 
ATOM     19  C   UNL     1     -14.138   5.399  33.069  0.00  0.00    +0.214 C 
ATOM     32  H   UNL     1     -15.098   5.794  31.261  0.00  0.00    +0.149 HD
BRANCH   5  21
ATOM     21  C   UNL     1     -16.124   4.191  32.179  0.00  0.00    +0.139 C 
BRANCH  21  22
ATOM     22  C   UNL     1     -15.754   2.946  31.425  0.00  0.00    -0.030 A 
ATOM     24  C   UNL     1     -16.134   2.799  30.091  0.00  0.00    +0.009 A 
ATOM     25  C   UNL     1     -15.028   1.938  32.059  0.00  0.00    +0.009 A 
ATOM     27  C   UNL     1     -15.790   1.642  29.391  0.00  0.00    +0.046 A 
ATOM     28  C   UNL     1     -14.684   0.781  31.360  0.00  0.00    +0.046 A 
ATOM     29  C   UNL     1     -15.065   0.633  30.025  0.00  0.00    +0.120 A 
BRANCH  29   3
ATOM      3  O   UNL     1     -14.728  -0.494  29.342  0.00  0.00    -0.495 OA
ATOM     30  C   UNL     1     -13.367  -0.916  29.419  0.00  0.00    +0.277 C 
ENDBRANCH  29   3
ENDBRANCH  21  22
ENDBRANCH   5  21
ENDBRANCH  15  19
ENDBRANCH  10  15
TORSDOF 9
ENDMDL
MODEL 9
REMARK VINA RESULT:      -5.6      1.747      3.246
REMARK  Name = 38027741
REMARK  14 active torsions:
REMARK  status: ('A' for Active; 'I' for Inactive)
REMARK    1  A    between atoms: O_3  and  C_29
REMARK    2  A    between atoms: O_3  and  C_30
REMARK    3  A    between atoms: N_4  and  C_14
REMARK    4  A    between atoms: N_5  and  C_21
REMARK    5  A    between atoms: N_6  and  C_23
REMARK    6  A    between atoms: C_7  and  C_11
REMARK    7  A    between atoms: C_8  and  C_14
REMARK    8  A    between atoms: C_10  and  C_15
REMARK    9  A    between atoms: C_11  and  C_16
REMARK   10  A    between atoms: C_11  and  C_17
REMARK   11  A    between atoms: C_12  and  C_18
REMARK   12  A    between atoms: C_15  and  C_19
REMARK   13  A    between atoms: C_21  and  C_22
REMARK   14  A    between atoms: C_23  and  C_26
REMARK                            x       y       z     vdW  Elec       q    Type
REMARK                         _______ _______ _______ _____ _____    ______ ____
ROOT
ATOM      7  C   UNL     1      -5.559 -11.671  17.690  0.00  0.00    +0.000 C 
ATOM      8  C   UNL     1      -7.017 -11.343  17.282  0.00  0.00    +0.032 C 
ATOM      9  C   UNL     1      -4.604 -10.572  17.201  0.00  0.00    +0.012 C 
ATOM     10  C   UNL     1      -4.655 -10.395  15.671  0.00  0.00    +0.023 C 
ATOM     12  C   UNL     1      -6.080 -10.332  15.159  0.00  0.00    -0.073 C 
ATOM     13  C   UNL     1      -7.123 -10.748  15.898  0.00  0.00    -0.022 C 
ATOM     18  C   UNL     1      -6.282  -9.737  13.793  0.00  0.00    +0.039 C 
ENDROOT
BRANCH   7  11
ATOM     11  C   UNL     1      -5.418 -11.843  19.206  0.00  0.00    -0.013 C 
ATOM     16  C   UNL     1      -3.957 -12.082  19.580  0.00  0.00    +0.007 C 
ATOM     17  C   UNL     1      -5.969 -10.622  19.934  0.00  0.00    +0.007 C 
ENDBRANCH   7  11
BRANCH   8  14
ATOM     14  C   UNL     1      -7.911 -12.585  17.374  0.00  0.00    +0.113 C 
BRANCH  14   4
ATOM      2  O   UNL     1      -9.101 -12.242  19.980  0.00  0.00    -0.253 OA
ATOM      4  N   UNL     1      -9.261 -12.217  17.662  0.00  0.00    -0.299 N 
ATOM      6  N   UNL     1     -11.111 -11.706  18.952  0.00  0.00    -0.300 N 
ATOM     20  C   UNL     1      -9.766 -12.070  18.960  0.00  0.00    +0.300 C 
ATOM     31  H   UNL     1      -9.875 -11.985  16.888  0.00  0.00    +0.150 HD
ATOM     33  H   UNL     1     -11.583 -11.600  18.060  0.00  0.00    +0.150 HD
BRANCH   6  23
ATOM     23  C   UNL     1     -11.870 -11.490  20.162  0.00  0.00    +0.102 C 
ATOM     26  C   UNL     1     -12.170 -10.021  20.374  0.00  0.00    +0.024 C 
ENDBRANCH   6  23
ENDBRANCH  14   4
ENDBRANCH   8  14
BRANCH  10  15
ATOM     15  C   UNL     1      -3.865 -11.500  14.961  0.00  0.00    +0.103 C 
BRANCH  15  19
ATOM      1  O   UNL     1      -2.008 -10.148  14.200  0.00  0.00    -0.276 OA
ATOM      5  N   UNL     1      -3.182 -11.446  12.670  0.00  0.00    -0.311 N 
ATOM     19  C   UNL     1      -2.906 -10.942  13.933  0.00  0.00    +0.214 C 
ATOM     32  H   UNL     1      -3.947 -12.104  12.549  0.00  0.00    +0.149 HD
BRANCH   5  21
ATOM     21  C   UNL     1      -2.425 -11.084  11.495  0.00  0.00    +0.139 C 
BRANCH  21  22
ATOM     22  C   UNL     1      -3.314 -10.646  10.366  0.00  0.00    -0.030 A 
ATOM     24  C   UNL     1      -3.991 -11.597   9.601  0.00  0.00    +0.009 A 
ATOM     25  C   UNL     1      -3.464  -9.288  10.085  0.00  0.00    +0.009 A 
ATOM     27  C   UNL     1      -4.816 -11.188   8.553  0.00  0.00    +0.046 A 
ATOM     28  C   UNL     1      -4.290  -8.880   9.038  0.00  0.00    +0.046 A 
ATOM     29  C   UNL     1      -4.966  -9.830   8.271  0.00  0.00    +0.120 A 
BRANCH  29   3
ATOM      3  O   UNL     1      -5.773  -9.433   7.250  0.00  0.00    -0.495 OA
ATOM     30  C   UNL     1      -5.987 -10.366   6.192  0.00  0.00    +0.277 C 
ENDBRANCH  29   3
ENDBRANCH  21  22
ENDBRANCH   5  21
ENDBRANCH  15  19
ENDBRANCH  10  15
TORSDOF 9
ENDMDL
MODEL 10
REMARK VINA RESULT:      -5.5      4.377      8.214
REMARK  Name = 38027741
REMARK  14 active torsions:
REMARK  status: ('A' for Active; 'I' for Inactive)
REMARK    1  A    between atoms: O_3  and  C_29
REMARK    2  A    between atoms: O_3  and  C_30
REMARK    3  A    between atoms: N_4  and  C_14
REMARK    4  A    between atoms: N_5  and  C_21
REMARK    5  A    between atoms: N_6  and  C_23
REMARK    6  A    between atoms: C_7  and  C_11
REMARK    7  A    between atoms: C_8  and  C_14
REMARK    8  A    between atoms: C_10  and  C_15
REMARK    9  A    between atoms: C_11  and  C_16
REMARK   10  A    between atoms: C_11  and  C_17
REMARK   11  A    between atoms: C_12  and  C_18
REMARK   12  A    between atoms: C_15  and  C_19
REMARK   13  A    between atoms: C_21  and  C_22
REMARK   14  A    between atoms: C_23  and  C_26
REMARK                            x       y       z     vdW  Elec       q    Type
REMARK                         _______ _______ _______ _____ _____    ______ ____
ROOT
ATOM      7  C   UNL     1     -10.346  -8.760  17.088  0.00  0.00    +0.000 C 
ATOM      8  C   UNL     1     -11.432  -7.969  16.317  0.00  0.00    +0.032 C 
ATOM      9  C   UNL     1     -10.737 -10.242  17.196  0.00  0.00    +0.012 C 
ATOM     10  C   UNL     1     -12.086 -10.437  17.914  0.00  0.00    +0.023 C 
ATOM     12  C   UNL     1     -13.147  -9.494  17.386  0.00  0.00    -0.073 C 
ATOM     13  C   UNL     1     -12.836  -8.403  16.663  0.00  0.00    -0.022 C 
ATOM     18  C   UNL     1     -14.578  -9.857  17.669  0.00  0.00    +0.039 C 
ENDROOT
BRANCH   7  11
ATOM     11  C   UNL     1      -8.971  -8.634  16.424  0.00  0.00    -0.013 C 
ATOM     16  C   UNL     1      -7.892  -9.247  17.313  0.00  0.00    +0.007 C 
ATOM     17  C   UNL     1      -8.981  -9.298  15.051  0.00  0.00    +0.007 C 
ENDBRANCH   7  11
BRANCH   8  14
ATOM     14  C   UNL     1     -11.290  -6.460  16.555  0.00  0.00    +0.113 C 
BRANCH  14   4
ATOM      2  O   UNL     1     -13.430  -5.629  14.806  0.00  0.00    -0.253 OA
ATOM      4  N   UNL     1     -11.166  -5.762  15.314  0.00  0.00    -0.299 N 
ATOM      6  N   UNL     1     -11.853  -4.722  13.366  0.00  0.00    -0.300 N 
ATOM     20  C   UNL     1     -12.258  -5.391  14.519  0.00  0.00    +0.300 C 
ATOM     31  H   UNL     1     -10.244  -5.457  15.020  0.00  0.00    +0.150 HD
ATOM     33  H   UNL     1     -10.860  -4.583  13.205  0.00  0.00    +0.150 HD
BRANCH   6  23
ATOM     23  C   UNL     1     -12.785  -4.233  12.378  0.00  0.00    +0.102 C 
ATOM     26  C   UNL     1     -12.068  -3.569  11.221  0.00  0.00    +0.024 C 
ENDBRANCH   6  23
ENDBRANCH  14   4
ENDBRANCH   8  14
BRANCH  10  15
ATOM     15  C   UNL     1     -11.929 -10.292  19.432  0.00  0.00    +0.103 C 
BRANCH  15  19
ATOM      1  O   UNL     1      -9.757 -10.282  20.498  0.00  0.00    -0.276 OA
ATOM      5  N   UNL     1     -10.615 -12.276  19.668  0.00  0.00    -0.311 N 
ATOM     19  C   UNL     1     -10.645 -10.914  19.934  0.00  0.00    +0.214 C 
ATOM     32  H   UNL     1     -11.402 -12.712  19.197  0.00  0.00    +0.149 HD
BRANCH   5  21
ATOM     21  C   UNL     1      -9.507 -13.126  20.034  0.00  0.00    +0.139 C 
BRANCH  21  22
ATOM     22  C   UNL     1      -8.304 -12.887  19.168  0.00  0.00    -0.030 A 
ATOM     24  C   UNL     1      -8.350 -13.196  17.808  0.00  0.00    +0.009 A 
ATOM     25  C   UNL     1      -7.141 -12.353  19.722  0.00  0.00    +0.009 A 
ATOM     27  C   UNL     1      -7.233 -12.973  17.004  0.00  0.00    +0.046 A 
ATOM     28  C   UNL     1      -6.023 -12.130  18.918  0.00  0.00    +0.046 A 
ATOM     29  C   UNL     1      -6.069 -12.441  17.559  0.00  0.00    +0.120 A 
BRANCH  29   3
ATOM      3  O   UNL     1      -4.980 -12.222  16.773  0.00  0.00    -0.495 OA
ATOM     30  C   UNL     1      -5.183 -11.468  15.579  0.00  0.00    +0.277 C 
ENDBRANCH  29   3
ENDBRANCH  21  22
ENDBRANCH   5  21
ENDBRANCH  15  19
ENDBRANCH  10  15
TORSDOF 9
ENDMDL
