MODEL 1
REMARK VINA RESULT:      -8.5      0.000      0.000
REMARK  Name = 11913048
REMARK  7 active torsions:
REMARK  status: ('A' for Active; 'I' for Inactive)
REMARK    1  A    between atoms: O_3  and  C_14
REMARK    2  A    between atoms: O_3  and  C_18
REMARK    3  A    between atoms: N_7  and  C_13
REMARK    4  A    between atoms: N_10  and  C_21
REMARK    5  A    between atoms: C_19  and  C_23
REMARK    6  A    between atoms: C_29  and  C_32
REMARK    7  A    between atoms: C_32  and  C_33
REMARK                            x       y       z     vdW  Elec       q    Type
REMARK                         _______ _______ _______ _____ _____    ______ ____
ROOT
ATOM      1  O   UNL     1      13.422   9.433  20.779  0.00  0.00    -0.368 OA
ATOM      2  O   UNL     1      11.491   7.099  20.291  0.00  0.00    -0.368 OA
ATOM     11  C   UNL     1      11.972   7.704  21.509  0.00  0.00    +0.173 C 
ATOM     12  C   UNL     1      13.421   8.082  21.269  0.00  0.00    +0.192 C 
ATOM     13  C   UNL     1      11.282   9.028  21.737  0.00  0.00    +0.130 C 
ATOM     14  C   UNL     1      13.843   7.100  20.203  0.00  0.00    +0.235 C 
ATOM     15  C   UNL     1      12.094   9.971  20.866  0.00  0.00    +0.185 C 
ATOM     16  C   UNL     1      12.586   6.971  19.372  0.00  0.00    +0.207 C 
ENDROOT
BRANCH  13   7
ATOM      7  N   UNL     1      11.384   9.415  23.127  0.00  0.00    -0.306 N 
ATOM      8  N   UNL     1      10.835  11.649  22.661  0.00  0.00    -0.211 NA
ATOM      9  N   UNL     1      11.292  10.931  24.916  0.00  0.00    -0.223 NA
ATOM     17  C   UNL     1      11.164  10.704  23.581  0.00  0.00    +0.216 A 
ATOM     19  C   UNL     1      10.627  12.893  23.138  0.00  0.00    +0.111 A 
ATOM     20  C   UNL     1      11.069  12.198  25.324  0.00  0.00    +0.116 A 
ATOM     22  C   UNL     1      10.730  13.230  24.473  0.00  0.00    +0.051 A 
ATOM     34  H   UNL     1      11.578   8.709  23.829  0.00  0.00    +0.149 HD
BRANCH  19  23
ATOM      5  O   UNL     1       9.072  14.465  22.307  0.00  0.00    -0.461 OA
ATOM     23  C   UNL     1      10.281  13.871  22.141  0.00  0.00    +0.153 A 
ATOM     26  C   UNL     1      10.914  14.358  21.024  0.00  0.00    +0.051 A 
ATOM     30  C   UNL     1      10.036  15.316  20.464  0.00  0.00    +0.042 A 
ATOM     31  C   UNL     1       8.930  15.343  21.280  0.00  0.00    +0.196 A 
ENDBRANCH  19  23
ENDBRANCH  13   7
BRANCH  14   3
ATOM      3  O   UNL     1      14.943   7.538  19.439  0.00  0.00    -0.442 OA
BRANCH   3  18
ATOM      4  O   UNL     1      16.253   5.829  18.670  0.00  0.00    -0.226 OA
ATOM     10  N   UNL     1      16.909   7.163  20.478  0.00  0.00    -0.251 N 
ATOM     18  C   UNL     1      16.073   6.747  19.461  0.00  0.00    +0.405 C 
ATOM     35  H   UNL     1      16.584   7.951  21.034  0.00  0.00    +0.158 HD
BRANCH  10  21
ATOM     21  C   UNL     1      18.165   6.628  20.847  0.00  0.00    +0.036 A 
ATOM     24  C   UNL     1      18.738   5.638  20.065  0.00  0.00    +0.024 A 
ATOM     25  C   UNL     1      18.799   7.105  21.983  0.00  0.00    +0.024 A 
ATOM     27  C   UNL     1      19.976   5.111  20.428  0.00  0.00    +0.013 A 
ATOM     28  C   UNL     1      20.038   6.578  22.347  0.00  0.00    +0.013 A 
ATOM     29  C   UNL     1      20.626   5.581  21.570  0.00  0.00    +0.017 A 
BRANCH  29  32
ATOM      6  O   UNL     1      22.084   4.447  23.038  0.00  0.00    -0.292 OA
ATOM     32  C   UNL     1      21.919   5.032  21.949  0.00  0.00    +0.160 C 
ATOM     33  C   UNL     1      23.114   5.161  21.010  0.00  0.00    +0.091 C 
ENDBRANCH  29  32
ENDBRANCH  10  21
ENDBRANCH   3  18
ENDBRANCH  14   3
TORSDOF 6
ENDMDL
MODEL 2
REMARK VINA RESULT:      -8.2     27.144     30.576
REMARK  Name = 11913048
REMARK  7 active torsions:
REMARK  status: ('A' for Active; 'I' for Inactive)
REMARK    1  A    between atoms: O_3  and  C_14
REMARK    2  A    between atoms: O_3  and  C_18
REMARK    3  A    between atoms: N_7  and  C_13
REMARK    4  A    between atoms: N_10  and  C_21
REMARK    5  A    between atoms: C_19  and  C_23
REMARK    6  A    between atoms: C_29  and  C_32
REMARK    7  A    between atoms: C_32  and  C_33
REMARK                            x       y       z     vdW  Elec       q    Type
REMARK                         _______ _______ _______ _____ _____    ______ ____
ROOT
ATOM      1  O   UNL     1      -4.547  -9.157  10.054  0.00  0.00    -0.368 OA
ATOM      2  O   UNL     1      -6.151 -11.756  10.348  0.00  0.00    -0.368 OA
ATOM     11  C   UNL     1      -4.767 -11.451  10.617  0.00  0.00    +0.173 C 
ATOM     12  C   UNL     1      -4.316 -10.480   9.543  0.00  0.00    +0.192 C 
ATOM     13  C   UNL     1      -4.650 -10.658  11.897  0.00  0.00    +0.130 C 
ATOM     14  C   UNL     1      -5.243 -10.806   8.396  0.00  0.00    +0.235 C 
ATOM     15  C   UNL     1      -4.945  -9.243  11.431  0.00  0.00    +0.185 C 
ATOM     16  C   UNL     1      -6.533 -11.134   9.113  0.00  0.00    +0.207 C 
ENDROOT
BRANCH  13   7
ATOM      7  N   UNL     1      -3.304 -10.745  12.421  0.00  0.00    -0.306 N 
ATOM      8  N   UNL     1      -4.041 -10.613  14.644  0.00  0.00    -0.211 NA
ATOM      9  N   UNL     1      -1.696 -10.814  14.128  0.00  0.00    -0.223 NA
ATOM     17  C   UNL     1      -3.005 -10.723  13.772  0.00  0.00    +0.216 A 
ATOM     19  C   UNL     1      -3.713 -10.596  15.953  0.00  0.00    +0.111 A 
ATOM     20  C   UNL     1      -1.440 -10.791  15.452  0.00  0.00    +0.116 A 
ATOM     22  C   UNL     1      -2.418 -10.683  16.420  0.00  0.00    +0.051 A 
ATOM     34  H   UNL     1      -2.529 -10.879  11.782  0.00  0.00    +0.149 HD
BRANCH  19  23
ATOM      5  O   UNL     1      -5.938  -9.896  16.327  0.00  0.00    -0.461 OA
ATOM     23  C   UNL     1      -4.830 -10.477  16.853  0.00  0.00    +0.153 A 
ATOM     26  C   UNL     1      -5.040 -10.829  18.164  0.00  0.00    +0.051 A 
ATOM     30  C   UNL     1      -6.365 -10.438  18.466  0.00  0.00    +0.042 A 
ATOM     31  C   UNL     1      -6.869  -9.875  17.317  0.00  0.00    +0.196 A 
ENDBRANCH  19  23
ENDBRANCH  13   7
BRANCH  14   3
ATOM      3  O   UNL     1      -5.397  -9.747   7.480  0.00  0.00    -0.442 OA
BRANCH   3  18
ATOM      4  O   UNL     1      -7.468  -9.628   6.516  0.00  0.00    -0.226 OA
ATOM     10  N   UNL     1      -6.842  -8.204   8.266  0.00  0.00    -0.251 N 
ATOM     18  C   UNL     1      -6.664  -9.218   7.345  0.00  0.00    +0.405 C 
ATOM     35  H   UNL     1      -6.051  -8.007   8.875  0.00  0.00    +0.158 HD
BRANCH  10  21
ATOM     21  C   UNL     1      -7.989  -7.401   8.467  0.00  0.00    +0.036 A 
ATOM     24  C   UNL     1      -9.139  -7.978   8.982  0.00  0.00    +0.024 A 
ATOM     25  C   UNL     1      -7.940  -6.055   8.146  0.00  0.00    +0.024 A 
ATOM     27  C   UNL     1     -10.269  -7.187   9.180  0.00  0.00    +0.013 A 
ATOM     28  C   UNL     1      -9.070  -5.263   8.345  0.00  0.00    +0.013 A 
ATOM     29  C   UNL     1     -10.235  -5.829   8.861  0.00  0.00    +0.017 A 
BRANCH  29  32
ATOM      6  O   UNL     1     -12.560  -5.429   8.824  0.00  0.00    -0.292 OA
ATOM     32  C   UNL     1     -11.415  -5.003   9.069  0.00  0.00    +0.160 C 
ATOM     33  C   UNL     1     -11.272  -3.580   9.599  0.00  0.00    +0.091 C 
ENDBRANCH  29  32
ENDBRANCH  10  21
ENDBRANCH   3  18
ENDBRANCH  14   3
TORSDOF 6
ENDMDL
MODEL 3
REMARK VINA RESULT:      -8.2     27.100     30.794
REMARK  Name = 11913048
REMARK  7 active torsions:
REMARK  status: ('A' for Active; 'I' for Inactive)
REMARK    1  A    between atoms: O_3  and  C_14
REMARK    2  A    between atoms: O_3  and  C_18
REMARK    3  A    between atoms: N_7  and  C_13
REMARK    4  A    between atoms: N_10  and  C_21
REMARK    5  A    between atoms: C_19  and  C_23
REMARK    6  A    between atoms: C_29  and  C_32
REMARK    7  A    between atoms: C_32  and  C_33
REMARK                            x       y       z     vdW  Elec       q    Type
REMARK                         _______ _______ _______ _____ _____    ______ ____
ROOT
ATOM      1  O   UNL     1     -15.536   3.735  24.834  0.00  0.00    -0.368 OA
ATOM      2  O   UNL     1     -17.278   3.581  22.313  0.00  0.00    -0.368 OA
ATOM     11  C   UNL     1     -17.031   4.657  23.240  0.00  0.00    +0.173 C 
ATOM     12  C   UNL     1     -16.925   4.034  24.619  0.00  0.00    +0.192 C 
ATOM     13  C   UNL     1     -15.660   5.245  22.999  0.00  0.00    +0.130 C 
ATOM     14  C   UNL     1     -17.751   2.778  24.474  0.00  0.00    +0.235 C 
ATOM     15  C   UNL     1     -14.759   4.288  23.761  0.00  0.00    +0.185 C 
ATOM     16  C   UNL     1     -17.453   2.362  23.051  0.00  0.00    +0.207 C 
ENDROOT
BRANCH  13   7
ATOM      7  N   UNL     1     -15.576   6.573  23.566  0.00  0.00    -0.306 N 
ATOM      8  N   UNL     1     -14.113   7.316  21.889  0.00  0.00    -0.211 NA
ATOM      9  N   UNL     1     -14.826   8.795  23.652  0.00  0.00    -0.223 NA
ATOM     17  C   UNL     1     -14.815   7.591  23.019  0.00  0.00    +0.216 A 
ATOM     19  C   UNL     1     -13.383   8.332  21.383  0.00  0.00    +0.111 A 
ATOM     20  C   UNL     1     -14.075   9.766  23.092  0.00  0.00    +0.116 A 
ATOM     22  C   UNL     1     -13.326   9.590  21.947  0.00  0.00    +0.051 A 
ATOM     34  H   UNL     1     -16.136   6.805  24.378  0.00  0.00    +0.149 HD
BRANCH  19  23
ATOM      5  O   UNL     1     -13.206   8.453  19.030  0.00  0.00    -0.461 OA
ATOM     23  C   UNL     1     -12.650   8.011  20.186  0.00  0.00    +0.153 A 
ATOM     26  C   UNL     1     -11.479   7.338  19.938  0.00  0.00    +0.051 A 
ATOM     30  C   UNL     1     -11.302   7.367  18.535  0.00  0.00    +0.042 A 
ATOM     31  C   UNL     1     -12.379   8.055  18.028  0.00  0.00    +0.196 A 
ENDBRANCH  19  23
ENDBRANCH  13   7
BRANCH  14   3
ATOM      3  O   UNL     1     -17.415   1.774  25.403  0.00  0.00    -0.442 OA
BRANCH   3  18
ATOM      4  O   UNL     1     -18.412   2.571  27.301  0.00  0.00    -0.226 OA
ATOM     10  N   UNL     1     -16.168   1.904  27.278  0.00  0.00    -0.251 N 
ATOM     18  C   UNL     1     -17.418   2.129  26.736  0.00  0.00    +0.405 C 
ATOM     35  H   UNL     1     -15.465   1.529  26.645  0.00  0.00    +0.158 HD
BRANCH  10  21
ATOM     21  C   UNL     1     -15.741   2.131  28.607  0.00  0.00    +0.036 A 
ATOM     24  C   UNL     1     -15.366   3.408  28.991  0.00  0.00    +0.024 A 
ATOM     25  C   UNL     1     -15.705   1.071  29.499  0.00  0.00    +0.024 A 
ATOM     27  C   UNL     1     -14.945   3.631  30.301  0.00  0.00    +0.013 A 
ATOM     28  C   UNL     1     -15.284   1.294  30.809  0.00  0.00    +0.013 A 
ATOM     29  C   UNL     1     -14.903   2.574  31.210  0.00  0.00    +0.017 A 
BRANCH  29  32
ATOM      6  O   UNL     1     -13.899   3.868  32.909  0.00  0.00    -0.292 OA
ATOM     32  C   UNL     1     -14.465   2.807  32.578  0.00  0.00    +0.160 C 
ATOM     33  C   UNL     1     -14.692   1.745  33.649  0.00  0.00    +0.091 C 
ENDBRANCH  29  32
ENDBRANCH  10  21
ENDBRANCH   3  18
ENDBRANCH  14   3
TORSDOF 6
ENDMDL
MODEL 4
REMARK VINA RESULT:      -8.1      3.746      5.838
REMARK  Name = 11913048
REMARK  7 active torsions:
REMARK  status: ('A' for Active; 'I' for Inactive)
REMARK    1  A    between atoms: O_3  and  C_14
REMARK    2  A    between atoms: O_3  and  C_18
REMARK    3  A    between atoms: N_7  and  C_13
REMARK    4  A    between atoms: N_10  and  C_21
REMARK    5  A    between atoms: C_19  and  C_23
REMARK    6  A    between atoms: C_29  and  C_32
REMARK    7  A    between atoms: C_32  and  C_33
REMARK                            x       y       z     vdW  Elec       q    Type
REMARK                         _______ _______ _______ _____ _____    ______ ____
ROOT
ATOM      1  O   UNL     1      17.752   8.156  21.502  0.00  0.00    -0.368 OA
ATOM      2  O   UNL     1      17.533   5.843  19.497  0.00  0.00    -0.368 OA
ATOM     11  C   UNL     1      16.733   6.193  20.645  0.00  0.00    +0.173 C 
ATOM     12  C   UNL     1      17.684   6.733  21.695  0.00  0.00    +0.192 C 
ATOM     13  C   UNL     1      15.844   7.370  20.318  0.00  0.00    +0.130 C 
ATOM     14  C   UNL     1      18.986   6.057  21.336  0.00  0.00    +0.235 C 
ATOM     15  C   UNL     1      16.779   8.549  20.523  0.00  0.00    +0.185 C 
ATOM     16  C   UNL     1      18.919   6.018  19.826  0.00  0.00    +0.207 C 
ENDROOT
BRANCH  13   7
ATOM      7  N   UNL     1      14.738   7.438  21.249  0.00  0.00    -0.306 N 
ATOM      8  N   UNL     1      13.222   8.073  19.573  0.00  0.00    -0.211 NA
ATOM      9  N   UNL     1      12.502   7.807  21.858  0.00  0.00    -0.223 NA
ATOM     17  C   UNL     1      13.449   7.783  20.882  0.00  0.00    +0.216 A 
ATOM     19  C   UNL     1      11.955   8.404  19.251  0.00  0.00    +0.111 A 
ATOM     20  C   UNL     1      11.257   8.146  21.466  0.00  0.00    +0.116 A 
ATOM     22  C   UNL     1      10.921   8.457  20.164  0.00  0.00    +0.051 A 
ATOM     34  H   UNL     1      14.884   7.175  22.217  0.00  0.00    +0.149 HD
BRANCH  19  23
ATOM      5  O   UNL     1      10.521   8.378  17.375  0.00  0.00    -0.461 OA
ATOM     23  C   UNL     1      11.745   8.705  17.860  0.00  0.00    +0.153 A 
ATOM     26  C   UNL     1      12.525   9.265  16.878  0.00  0.00    +0.051 A 
ATOM     30  C   UNL     1      11.728   9.285  15.710  0.00  0.00    +0.042 A 
ATOM     31  C   UNL     1      10.518   8.734  16.063  0.00  0.00    +0.196 A 
ENDBRANCH  19  23
ENDBRANCH  13   7
BRANCH  14   3
ATOM      3  O   UNL     1      20.124   6.746  21.800  0.00  0.00    -0.442 OA
BRANCH   3  18
ATOM      4  O   UNL     1      22.239   6.701  20.932  0.00  0.00    -0.226 OA
ATOM     10  N   UNL     1      21.377   4.907  22.165  0.00  0.00    -0.251 N 
ATOM     18  C   UNL     1      21.348   6.154  21.571  0.00  0.00    +0.405 C 
ATOM     35  H   UNL     1      20.533   4.624  22.658  0.00  0.00    +0.158 HD
BRANCH  10  21
ATOM     21  C   UNL     1      22.437   3.970  22.174  0.00  0.00    +0.036 A 
ATOM     24  C   UNL     1      23.179   3.795  23.331  0.00  0.00    +0.024 A 
ATOM     25  C   UNL     1      22.713   3.247  21.024  0.00  0.00    +0.024 A 
ATOM     27  C   UNL     1      24.223   2.872  23.339  0.00  0.00    +0.013 A 
ATOM     28  C   UNL     1      23.758   2.324  21.032  0.00  0.00    +0.013 A 
ATOM     29  C   UNL     1      24.513   2.137  22.189  0.00  0.00    +0.017 A 
BRANCH  29  32
ATOM      6  O   UNL     1      25.390  -0.051  22.080  0.00  0.00    -0.292 OA
ATOM     32  C   UNL     1      25.603   1.172  22.198  0.00  0.00    +0.160 C 
ATOM     33  C   UNL     1      27.045   1.643  22.351  0.00  0.00    +0.091 C 
ENDBRANCH  29  32
ENDBRANCH  10  21
ENDBRANCH   3  18
ENDBRANCH  14   3
TORSDOF 6
ENDMDL
MODEL 5
REMARK VINA RESULT:      -8.0     28.109     31.806
REMARK  Name = 11913048
REMARK  7 active torsions:
REMARK  status: ('A' for Active; 'I' for Inactive)
REMARK    1  A    between atoms: O_3  and  C_14
REMARK    2  A    between atoms: O_3  and  C_18
REMARK    3  A    between atoms: N_7  and  C_13
REMARK    4  A    between atoms: N_10  and  C_21
REMARK    5  A    between atoms: C_19  and  C_23
REMARK    6  A    between atoms: C_29  and  C_32
REMARK    7  A    between atoms: C_32  and  C_33
REMARK                            x       y       z     vdW  Elec       q    Type
REMARK                         _______ _______ _______ _____ _____    ______ ____
ROOT
ATOM      1  O   UNL     1     -11.301  -8.733  17.573  0.00  0.00    -0.368 OA
ATOM      2  O   UNL     1      -9.334  -8.733  15.217  0.00  0.00    -0.368 OA
ATOM     11  C   UNL     1      -9.119  -8.713  16.643  0.00  0.00    +0.173 C 
ATOM     12  C   UNL     1     -10.215  -7.852  17.241  0.00  0.00    +0.192 C 
ATOM     13  C   UNL     1      -9.372 -10.083  17.225  0.00  0.00    +0.130 C 
ATOM     14  C   UNL     1     -10.570  -6.933  16.097  0.00  0.00    +0.235 C 
ATOM     15  C   UNL     1     -10.883 -10.094  17.384  0.00  0.00    +0.185 C 
ATOM     16  C   UNL     1     -10.413  -7.842  14.898  0.00  0.00    +0.207 C 
ENDROOT
BRANCH  13   7
ATOM      7  N   UNL     1      -8.731 -10.207  18.517  0.00  0.00    -0.306 N 
ATOM      8  N   UNL     1      -6.693 -10.875  17.565  0.00  0.00    -0.211 NA
ATOM      9  N   UNL     1      -6.935 -10.670  19.954  0.00  0.00    -0.223 NA
ATOM     17  C   UNL     1      -7.414 -10.596  18.683  0.00  0.00    +0.216 A 
ATOM     19  C   UNL     1      -5.413 -11.250  17.764  0.00  0.00    +0.111 A 
ATOM     20  C   UNL     1      -5.647 -11.051  20.080  0.00  0.00    +0.116 A 
ATOM     22  C   UNL     1      -4.829 -11.357  19.011  0.00  0.00    +0.051 A 
ATOM     34  H   UNL     1      -9.243  -9.952  19.354  0.00  0.00    +0.149 HD
BRANCH  19  23
ATOM      5  O   UNL     1      -3.514 -10.853  16.417  0.00  0.00    -0.461 OA
ATOM     23  C   UNL     1      -4.675 -11.540  16.563  0.00  0.00    +0.153 A 
ATOM     26  C   UNL     1      -4.883 -12.378  15.495  0.00  0.00    +0.051 A 
ATOM     30  C   UNL     1      -3.776 -12.195  14.634  0.00  0.00    +0.042 A 
ATOM     31  C   UNL     1      -2.972 -11.258  15.238  0.00  0.00    +0.196 A 
ENDBRANCH  19  23
ENDBRANCH  13   7
BRANCH  14   3
ATOM      3  O   UNL     1     -11.869  -6.396  16.189  0.00  0.00    -0.442 OA
BRANCH   3  18
ATOM      4  O   UNL     1     -13.297  -7.128  14.559  0.00  0.00    -0.226 OA
ATOM     10  N   UNL     1     -12.316  -5.004  14.472  0.00  0.00    -0.251 N 
ATOM     18  C   UNL     1     -12.571  -6.250  15.010  0.00  0.00    +0.405 C 
ATOM     35  H   UNL     1     -11.679  -4.409  14.998  0.00  0.00    +0.158 HD
BRANCH  10  21
ATOM     21  C   UNL     1     -12.829  -4.450  13.277  0.00  0.00    +0.036 A 
ATOM     24  C   UNL     1     -12.001  -4.336  12.171  0.00  0.00    +0.024 A 
ATOM     25  C   UNL     1     -14.149  -4.031  13.234  0.00  0.00    +0.024 A 
ATOM     27  C   UNL     1     -12.507  -3.790  10.992  0.00  0.00    +0.013 A 
ATOM     28  C   UNL     1     -14.655  -3.485  12.056  0.00  0.00    +0.013 A 
ATOM     29  C   UNL     1     -13.834  -3.364  10.935  0.00  0.00    +0.017 A 
BRANCH  29  32
ATOM      6  O   UNL     1     -13.837  -3.030   8.599  0.00  0.00    -0.292 OA
ATOM     32  C   UNL     1     -14.363  -2.794   9.705  0.00  0.00    +0.160 C 
ATOM     33  C   UNL     1     -15.589  -1.887   9.742  0.00  0.00    +0.091 C 
ENDBRANCH  29  32
ENDBRANCH  10  21
ENDBRANCH   3  18
ENDBRANCH  14   3
TORSDOF 6
ENDMDL
MODEL 6
REMARK VINA RESULT:      -8.0     28.448     30.844
REMARK  Name = 11913048
REMARK  7 active torsions:
REMARK  status: ('A' for Active; 'I' for Inactive)
REMARK    1  A    between atoms: O_3  and  C_14
REMARK    2  A    between atoms: O_3  and  C_18
REMARK    3  A    between atoms: N_7  and  C_13
REMARK    4  A    between atoms: N_10  and  C_21
REMARK    5  A    between atoms: C_19  and  C_23
REMARK    6  A    between atoms: C_29  and  C_32
REMARK    7  A    between atoms: C_32  and  C_33
REMARK                            x       y       z     vdW  Elec       q    Type
REMARK                         _______ _______ _______ _____ _____    ______ ____
ROOT
ATOM      1  O   UNL     1      -6.718 -12.298  17.019  0.00  0.00    -0.368 OA
ATOM      2  O   UNL     1      -5.071 -10.358  18.733  0.00  0.00    -0.368 OA
ATOM     11  C   UNL     1      -4.725 -11.610  18.106  0.00  0.00    +0.173 C 
ATOM     12  C   UNL     1      -5.944 -12.505  18.212  0.00  0.00    +0.192 C 
ATOM     13  C   UNL     1      -4.546 -11.412  16.619  0.00  0.00    +0.130 C 
ATOM     14  C   UNL     1      -6.644 -11.961  19.435  0.00  0.00    +0.235 C 
ATOM     15  C   UNL     1      -5.977 -11.472  16.110  0.00  0.00    +0.185 C 
ATOM     16  C   UNL     1      -6.374 -10.478  19.323  0.00  0.00    +0.207 C 
ENDROOT
BRANCH  13   7
ATOM      7  N   UNL     1      -3.768 -12.496  16.058  0.00  0.00    -0.306 N 
ATOM      8  N   UNL     1      -3.750 -11.524  13.922  0.00  0.00    -0.211 NA
ATOM      9  N   UNL     1      -2.645 -13.626  14.336  0.00  0.00    -0.223 NA
ATOM     17  C   UNL     1      -3.377 -12.550  14.732  0.00  0.00    +0.216 A 
ATOM     19  C   UNL     1      -3.350 -11.609  12.636  0.00  0.00    +0.111 A 
ATOM     20  C   UNL     1      -2.279 -13.646  13.037  0.00  0.00    +0.116 A 
ATOM     22  C   UNL     1      -2.605 -12.656  12.132  0.00  0.00    +0.051 A 
ATOM     34  H   UNL     1      -3.441 -13.240  16.664  0.00  0.00    +0.149 HD
BRANCH  19  23
ATOM      5  O   UNL     1      -4.968  -9.972  12.109  0.00  0.00    -0.461 OA
ATOM     23  C   UNL     1      -3.760 -10.510  11.803  0.00  0.00    +0.153 A 
ATOM     26  C   UNL     1      -3.193  -9.859  10.736  0.00  0.00    +0.051 A 
ATOM     30  C   UNL     1      -4.112  -8.853  10.358  0.00  0.00    +0.042 A 
ATOM     31  C   UNL     1      -5.176  -8.963  11.222  0.00  0.00    +0.196 A 
ENDBRANCH  19  23
ENDBRANCH  13   7
BRANCH  14   3
ATOM      3  O   UNL     1      -8.023 -12.249  19.468  0.00  0.00    -0.442 OA
BRANCH   3  18
ATOM      4  O   UNL     1      -9.420 -10.674  20.361  0.00  0.00    -0.226 OA
ATOM     10  N   UNL     1      -9.025 -10.804  18.057  0.00  0.00    -0.251 N 
ATOM     18  C   UNL     1      -8.887 -11.178  19.379  0.00  0.00    +0.405 C 
ATOM     35  H   UNL     1      -8.496 -11.348  17.378  0.00  0.00    +0.158 HD
BRANCH  10  21
ATOM     21  C   UNL     1      -9.813  -9.757  17.525  0.00  0.00    +0.036 A 
ATOM     24  C   UNL     1      -9.190  -8.621  17.032  0.00  0.00    +0.024 A 
ATOM     25  C   UNL     1     -11.192  -9.886  17.508  0.00  0.00    +0.024 A 
ATOM     27  C   UNL     1      -9.967  -7.589  16.508  0.00  0.00    +0.013 A 
ATOM     28  C   UNL     1     -11.970  -8.854  16.984  0.00  0.00    +0.013 A 
ATOM     29  C   UNL     1     -11.357  -7.705  16.485  0.00  0.00    +0.017 A 
BRANCH  29  32
ATOM      6  O   UNL     1     -11.652  -5.578  15.508  0.00  0.00    -0.292 OA
ATOM     32  C   UNL     1     -12.169  -6.629  15.937  0.00  0.00    +0.160 C 
ATOM     33  C   UNL     1     -13.686  -6.765  15.876  0.00  0.00    +0.091 C 
ENDBRANCH  29  32
ENDBRANCH  10  21
ENDBRANCH   3  18
ENDBRANCH  14   3
TORSDOF 6
ENDMDL
MODEL 7
REMARK VINA RESULT:      -8.0     27.648     31.674
REMARK  Name = 11913048
REMARK  7 active torsions:
REMARK  status: ('A' for Active; 'I' for Inactive)
REMARK    1  A    between atoms: O_3  and  C_14
REMARK    2  A    between atoms: O_3  and  C_18
REMARK    3  A    between atoms: N_7  and  C_13
REMARK    4  A    between atoms: N_10  and  C_21
REMARK    5  A    between atoms: C_19  and  C_23
REMARK    6  A    between atoms: C_29  and  C_32
REMARK    7  A    between atoms: C_32  and  C_33
REMARK                            x       y       z     vdW  Elec       q    Type
REMARK                         _______ _______ _______ _____ _____    ______ ____
ROOT
ATOM      1  O   UNL     1      -6.281 -12.394  18.988  0.00  0.00    -0.368 OA
ATOM      2  O   UNL     1      -7.503 -10.948  16.573  0.00  0.00    -0.368 OA
ATOM     11  C   UNL     1      -6.233 -10.792  17.240  0.00  0.00    +0.173 C 
ATOM     12  C   UNL     1      -6.488 -10.997  18.721  0.00  0.00    +0.192 C 
ATOM     13  C   UNL     1      -5.309 -11.927  16.867  0.00  0.00    +0.130 C 
ATOM     14  C   UNL     1      -7.940 -10.609  18.860  0.00  0.00    +0.235 C 
ATOM     15  C   UNL     1      -5.750 -13.029  17.815  0.00  0.00    +0.185 C 
ATOM     16  C   UNL     1      -8.530 -11.111  17.562  0.00  0.00    +0.207 C 
ENDROOT
BRANCH  13   7
ATOM      7  N   UNL     1      -3.933 -11.561  17.129  0.00  0.00    -0.306 N 
ATOM      8  N   UNL     1      -3.553 -10.959  14.893  0.00  0.00    -0.211 NA
ATOM      9  N   UNL     1      -1.803 -10.776  16.539  0.00  0.00    -0.223 NA
ATOM     17  C   UNL     1      -3.071 -11.085  16.157  0.00  0.00    +0.216 A 
ATOM     19  C   UNL     1      -2.685 -10.491  13.972  0.00  0.00    +0.111 A 
ATOM     20  C   UNL     1      -0.988 -10.313  15.568  0.00  0.00    +0.116 A 
ATOM     22  C   UNL     1      -1.378 -10.148  14.254  0.00  0.00    +0.051 A 
ATOM     34  H   UNL     1      -3.578 -11.601  18.077  0.00  0.00    +0.149 HD
BRANCH  19  23
ATOM      5  O   UNL     1      -4.578 -10.350  12.567  0.00  0.00    -0.461 OA
ATOM     23  C   UNL     1      -3.223 -10.370  12.643  0.00  0.00    +0.153 A 
ATOM     26  C   UNL     1      -2.663 -10.266  11.393  0.00  0.00    +0.051 A 
ATOM     30  C   UNL     1      -3.745 -10.177  10.486  0.00  0.00    +0.042 A 
ATOM     31  C   UNL     1      -4.888 -10.233  11.249  0.00  0.00    +0.196 A 
ENDBRANCH  19  23
ENDBRANCH  13   7
BRANCH  14   3
ATOM      3  O   UNL     1      -8.569 -11.180  19.985  0.00  0.00    -0.442 OA
BRANCH   3  18
ATOM      4  O   UNL     1     -10.458 -12.468  20.000  0.00  0.00    -0.226 OA
ATOM     10  N   UNL     1     -10.556 -10.145  19.731  0.00  0.00    -0.251 N 
ATOM     18  C   UNL     1      -9.934 -11.365  19.911  0.00  0.00    +0.405 C 
ATOM     35  H   UNL     1      -9.946  -9.332  19.681  0.00  0.00    +0.158 HD
BRANCH  10  21
ATOM     21  C   UNL     1     -11.940  -9.884  19.605  0.00  0.00    +0.036 A 
ATOM     24  C   UNL     1     -12.706  -9.718  20.748  0.00  0.00    +0.024 A 
ATOM     25  C   UNL     1     -12.504  -9.799  18.342  0.00  0.00    +0.024 A 
ATOM     27  C   UNL     1     -14.071  -9.461  20.624  0.00  0.00    +0.013 A 
ATOM     28  C   UNL     1     -13.868  -9.542  18.218  0.00  0.00    +0.013 A 
ATOM     29  C   UNL     1     -14.652  -9.373  19.359  0.00  0.00    +0.017 A 
BRANCH  29  32
ATOM      6  O   UNL     1     -16.928  -9.994  19.418  0.00  0.00    -0.292 OA
ATOM     32  C   UNL     1     -16.076  -9.103  19.229  0.00  0.00    +0.160 C 
ATOM     33  C   UNL     1     -16.563  -7.707  18.856  0.00  0.00    +0.091 C 
ENDBRANCH  29  32
ENDBRANCH  10  21
ENDBRANCH   3  18
ENDBRANCH  14   3
TORSDOF 6
ENDMDL
MODEL 8
REMARK VINA RESULT:      -7.8     27.570     30.944
REMARK  Name = 11913048
REMARK  7 active torsions:
REMARK  status: ('A' for Active; 'I' for Inactive)
REMARK    1  A    between atoms: O_3  and  C_14
REMARK    2  A    between atoms: O_3  and  C_18
REMARK    3  A    between atoms: N_7  and  C_13
REMARK    4  A    between atoms: N_10  and  C_21
REMARK    5  A    between atoms: C_19  and  C_23
REMARK    6  A    between atoms: C_29  and  C_32
REMARK    7  A    between atoms: C_32  and  C_33
REMARK                            x       y       z     vdW  Elec       q    Type
REMARK                         _______ _______ _______ _____ _____    ______ ____
ROOT
ATOM      1  O   UNL     1      -5.486  -9.145  10.358  0.00  0.00    -0.368 OA
ATOM      2  O   UNL     1      -6.689 -11.902  10.965  0.00  0.00    -0.368 OA
ATOM     11  C   UNL     1      -5.327 -11.426  10.988  0.00  0.00    +0.173 C 
ATOM     12  C   UNL     1      -5.185 -10.450   9.836  0.00  0.00    +0.192 C 
ATOM     13  C   UNL     1      -5.094 -10.579  12.216  0.00  0.00    +0.130 C 
ATOM     14  C   UNL     1      -6.244 -10.924   8.871  0.00  0.00    +0.235 C 
ATOM     15  C   UNL     1      -5.633  -9.226  11.784  0.00  0.00    +0.185 C 
ATOM     16  C   UNL     1      -7.347 -11.374   9.803  0.00  0.00    +0.207 C 
ENDROOT
BRANCH  13   7
ATOM      7  N   UNL     1      -3.679 -10.488  12.503  0.00  0.00    -0.306 N 
ATOM      8  N   UNL     1      -4.022 -10.668  14.817  0.00  0.00    -0.211 NA
ATOM      9  N   UNL     1      -1.802 -10.438  13.909  0.00  0.00    -0.223 NA
ATOM     17  C   UNL     1      -3.153 -10.532  13.781  0.00  0.00    +0.216 A 
ATOM     19  C   UNL     1      -3.474 -10.709  16.049  0.00  0.00    +0.111 A 
ATOM     20  C   UNL     1      -1.322 -10.486  15.169  0.00  0.00    +0.116 A 
ATOM     22  C   UNL     1      -2.118 -10.622  16.289  0.00  0.00    +0.051 A 
ATOM     34  H   UNL     1      -3.018 -10.438  11.736  0.00  0.00    +0.149 HD
BRANCH  19  23
ATOM      5  O   UNL     1      -5.630 -10.278  16.912  0.00  0.00    -0.461 OA
ATOM     23  C   UNL     1      -4.420 -10.853  17.125  0.00  0.00    +0.153 A 
ATOM     26  C   UNL     1      -4.377 -11.458  18.356  0.00  0.00    +0.051 A 
ATOM     30  C   UNL     1      -5.646 -11.241  18.942  0.00  0.00    +0.042 A 
ATOM     31  C   UNL     1      -6.372 -10.518  18.025  0.00  0.00    +0.196 A 
ENDBRANCH  19  23
ENDBRANCH  13   7
BRANCH  14   3
ATOM      3  O   UNL     1      -6.678  -9.925   7.977  0.00  0.00    -0.442 OA
BRANCH   3  18
ATOM      4  O   UNL     1      -6.372  -9.117   5.860  0.00  0.00    -0.226 OA
ATOM     10  N   UNL     1      -5.692 -11.274   6.463  0.00  0.00    -0.251 N 
ATOM     18  C   UNL     1      -6.250 -10.028   6.670  0.00  0.00    +0.405 C 
ATOM     35  H   UNL     1      -5.680 -11.900   7.265  0.00  0.00    +0.158 HD
BRANCH  10  21
ATOM     21  C   UNL     1      -5.132 -11.791   5.272  0.00  0.00    +0.036 A 
ATOM     24  C   UNL     1      -5.952 -12.010   4.176  0.00  0.00    +0.024 A 
ATOM     25  C   UNL     1      -3.776 -12.069   5.223  0.00  0.00    +0.024 A 
ATOM     27  C   UNL     1      -5.400 -12.519   3.001  0.00  0.00    +0.013 A 
ATOM     28  C   UNL     1      -3.224 -12.579   4.049  0.00  0.00    +0.013 A 
ATOM     29  C   UNL     1      -4.037 -12.805   2.938  0.00  0.00    +0.017 A 
BRANCH  29  32
ATOM      6  O   UNL     1      -2.488 -12.785   1.158  0.00  0.00    -0.292 OA
ATOM     32  C   UNL     1      -3.460 -13.336   1.712  0.00  0.00    +0.160 C 
ATOM     33  C   UNL     1      -4.041 -14.592   1.071  0.00  0.00    +0.091 C 
ENDBRANCH  29  32
ENDBRANCH  10  21
ENDBRANCH   3  18
ENDBRANCH  14   3
TORSDOF 6
ENDMDL
MODEL 9
REMARK VINA RESULT:      -7.8      4.366     12.403
REMARK  Name = 11913048
REMARK  7 active torsions:
REMARK  status: ('A' for Active; 'I' for Inactive)
REMARK    1  A    between atoms: O_3  and  C_14
REMARK    2  A    between atoms: O_3  and  C_18
REMARK    3  A    between atoms: N_7  and  C_13
REMARK    4  A    between atoms: N_10  and  C_21
REMARK    5  A    between atoms: C_19  and  C_23
REMARK    6  A    between atoms: C_29  and  C_32
REMARK    7  A    between atoms: C_32  and  C_33
REMARK                            x       y       z     vdW  Elec       q    Type
REMARK                         _______ _______ _______ _____ _____    ______ ____
ROOT
ATOM      1  O   UNL     1      22.144   8.205  21.952  0.00  0.00    -0.368 OA
ATOM      2  O   UNL     1      21.155   6.289  24.135  0.00  0.00    -0.368 OA
ATOM     11  C   UNL     1      21.620   6.049  22.791  0.00  0.00    +0.173 C 
ATOM     12  C   UNL     1      21.117   7.200  21.941  0.00  0.00    +0.192 C 
ATOM     13  C   UNL     1      23.123   6.181  22.731  0.00  0.00    +0.130 C 
ATOM     14  C   UNL     1      19.887   7.648  22.693  0.00  0.00    +0.235 C 
ATOM     15  C   UNL     1      23.312   7.683  22.603  0.00  0.00    +0.185 C 
ATOM     16  C   UNL     1      20.300   7.441  24.133  0.00  0.00    +0.207 C 
ENDROOT
BRANCH  13   7
ATOM      7  N   UNL     1      23.641   5.509  21.560  0.00  0.00    -0.306 N 
ATOM      8  N   UNL     1      23.641   3.417  22.623  0.00  0.00    -0.211 NA
ATOM      9  N   UNL     1      24.379   3.645  20.340  0.00  0.00    -0.223 NA
ATOM     17  C   UNL     1      23.895   4.150  21.507  0.00  0.00    +0.216 A 
ATOM     19  C   UNL     1      23.899   2.096  22.536  0.00  0.00    +0.111 A 
ATOM     20  C   UNL     1      24.614   2.317  20.323  0.00  0.00    +0.116 A 
ATOM     22  C   UNL     1      24.390   1.484  21.401  0.00  0.00    +0.051 A 
ATOM     34  H   UNL     1      23.785   6.036  20.705  0.00  0.00    +0.149 HD
BRANCH  19  23
ATOM      5  O   UNL     1      22.499   1.718  24.400  0.00  0.00    -0.461 OA
ATOM     23  C   UNL     1      23.621   1.347  23.733  0.00  0.00    +0.153 A 
ATOM     26  C   UNL     1      24.250   0.310  24.376  0.00  0.00    +0.051 A 
ATOM     30  C   UNL     1      23.464   0.022  25.516  0.00  0.00    +0.042 A 
ATOM     31  C   UNL     1      22.411   0.906  25.487  0.00  0.00    +0.196 A 
ENDBRANCH  19  23
ENDBRANCH  13   7
BRANCH  14   3
ATOM      3  O   UNL     1      19.524   8.984  22.431  0.00  0.00    -0.442 OA
BRANCH   3  18
ATOM      4  O   UNL     1      18.166  10.169  21.023  0.00  0.00    -0.226 OA
ATOM     10  N   UNL     1      17.485   8.139  21.969  0.00  0.00    -0.251 N 
ATOM     18  C   UNL     1      18.352   9.188  21.733  0.00  0.00    +0.405 C 
ATOM     35  H   UNL     1      17.822   7.410  22.593  0.00  0.00    +0.158 HD
BRANCH  10  21
ATOM     21  C   UNL     1      16.182   7.953  21.452  0.00  0.00    +0.036 A 
ATOM     24  C   UNL     1      15.984   7.051  20.419  0.00  0.00    +0.024 A 
ATOM     25  C   UNL     1      15.128   8.676  21.989  0.00  0.00    +0.024 A 
ATOM     27  C   UNL     1      14.699   6.867  19.909  0.00  0.00    +0.013 A 
ATOM     28  C   UNL     1      13.844   8.492  21.479  0.00  0.00    +0.013 A 
ATOM     29  C   UNL     1      13.629   7.588  20.439  0.00  0.00    +0.017 A 
BRANCH  29  32
ATOM      6  O   UNL     1      12.005   6.413  19.196  0.00  0.00    -0.292 OA
ATOM     32  C   UNL     1      12.288   7.396  19.908  0.00  0.00    +0.160 C 
ATOM     33  C   UNL     1      11.188   8.406  20.216  0.00  0.00    +0.091 C 
ENDBRANCH  29  32
ENDBRANCH  10  21
ENDBRANCH   3  18
ENDBRANCH  14   3
TORSDOF 6
ENDMDL
MODEL 10
REMARK VINA RESULT:      -7.7     19.826     21.875
REMARK  Name = 11913048
REMARK  7 active torsions:
REMARK  status: ('A' for Active; 'I' for Inactive)
REMARK    1  A    between atoms: O_3  and  C_14
REMARK    2  A    between atoms: O_3  and  C_18
REMARK    3  A    between atoms: N_7  and  C_13
REMARK    4  A    between atoms: N_10  and  C_21
REMARK    5  A    between atoms: C_19  and  C_23
REMARK    6  A    between atoms: C_29  and  C_32
REMARK    7  A    between atoms: C_32  and  C_33
REMARK                            x       y       z     vdW  Elec       q    Type
REMARK                         _______ _______ _______ _____ _____    ______ ____
ROOT
ATOM      1  O   UNL     1       4.605  11.645   2.914  0.00  0.00    -0.368 OA
ATOM      2  O   UNL     1       5.145   9.751   0.561  0.00  0.00    -0.368 OA
ATOM     11  C   UNL     1       4.145   9.724   1.600  0.00  0.00    +0.173 C 
ATOM     12  C   UNL     1       4.815  10.224   2.866  0.00  0.00    +0.192 C 
ATOM     13  C   UNL     1       3.078  10.756   1.320  0.00  0.00    +0.130 C 
ATOM     14  C   UNL     1       6.266   9.881   2.626  0.00  0.00    +0.235 C 
ATOM     15  C   UNL     1       3.707  12.028   1.861  0.00  0.00    +0.185 C 
ATOM     16  C   UNL     1       6.407  10.115   1.139  0.00  0.00    +0.207 C 
ENDROOT
BRANCH  13   7
ATOM      7  N   UNL     1       1.871  10.442   2.053  0.00  0.00    -0.306 N 
ATOM      8  N   UNL     1       0.543  10.525   0.120  0.00  0.00    -0.211 NA
ATOM      9  N   UNL     1      -0.428  10.026   2.268  0.00  0.00    -0.223 NA
ATOM     17  C   UNL     1       0.625  10.328   1.462  0.00  0.00    +0.216 A 
ATOM     19  C   UNL     1      -0.686  10.405  -0.423  0.00  0.00    +0.111 A 
ATOM     20  C   UNL     1      -1.628   9.921   1.660  0.00  0.00    +0.116 A 
ATOM     22  C   UNL     1      -1.819  10.101   0.305  0.00  0.00    +0.051 A 
ATOM     34  H   UNL     1       1.928  10.242   3.045  0.00  0.00    +0.149 HD
BRANCH  19  23
ATOM      5  O   UNL     1       0.397  11.105  -2.401  0.00  0.00    -0.461 OA
ATOM     23  C   UNL     1      -0.741  10.620  -1.845  0.00  0.00    +0.153 A 
ATOM     26  C   UNL     1      -1.712  10.440  -2.799  0.00  0.00    +0.051 A 
ATOM     30  C   UNL     1      -1.134  10.843  -4.025  0.00  0.00    +0.042 A 
ATOM     31  C   UNL     1       0.149  11.239  -3.731  0.00  0.00    +0.196 A 
ENDBRANCH  19  23
ENDBRANCH  13   7
BRANCH  14   3
ATOM      3  O   UNL     1       7.161  10.669   3.376  0.00  0.00    -0.442 OA
BRANCH   3  18
ATOM      4  O   UNL     1       9.334  10.267   3.964  0.00  0.00    -0.226 OA
ATOM     10  N   UNL     1       7.564   9.039   4.882  0.00  0.00    -0.251 N 
ATOM     18  C   UNL     1       8.143  10.001   4.077  0.00  0.00    +0.405 C 
ATOM     35  H   UNL     1       6.550   8.969   4.839  0.00  0.00    +0.158 HD
BRANCH  10  21
ATOM     21  C   UNL     1       8.207   8.136   5.760  0.00  0.00    +0.036 A 
ATOM     24  C   UNL     1       8.685   8.597   6.977  0.00  0.00    +0.024 A 
ATOM     25  C   UNL     1       8.345   6.809   5.388  0.00  0.00    +0.024 A 
ATOM     27  C   UNL     1       9.319   7.706   7.842  0.00  0.00    +0.013 A 
ATOM     28  C   UNL     1       8.978   5.918   6.253  0.00  0.00    +0.013 A 
ATOM     29  C   UNL     1       9.466   6.367   7.480  0.00  0.00    +0.017 A 
BRANCH  29  32
ATOM      6  O   UNL     1      11.354   5.492   8.592  0.00  0.00    -0.292 OA
ATOM     32  C   UNL     1      10.126   5.437   8.384  0.00  0.00    +0.160 C 
ATOM     33  C   UNL     1       9.319   4.363   9.106  0.00  0.00    +0.091 C 
ENDBRANCH  29  32
ENDBRANCH  10  21
ENDBRANCH   3  18
ENDBRANCH  14   3
TORSDOF 6
ENDMDL
