MODEL 1
REMARK VINA RESULT:      -7.1      0.000      0.000
REMARK  Name = 11942816
REMARK  4 active torsions:
REMARK  status: ('A' for Active; 'I' for Inactive)
REMARK    1  A    between atoms: C_15  and  C_18
REMARK    2  A    between atoms: C_16  and  C_19
REMARK    3  A    between atoms: C_20  and  C_27
REMARK    4  A    between atoms: C_29  and  C_31
REMARK                            x       y       z     vdW  Elec       q    Type
REMARK                         _______ _______ _______ _____ _____    ______ ____
ROOT
ATOM      1  O   UNL     1     -12.663  10.173  20.504  0.00  0.00    -0.267 OA
ATOM      2  O   UNL     1     -14.311  12.299  16.230  0.00  0.00    -0.270 OA
ATOM      3  N   UNL     1     -12.034  11.987  15.927  0.00  0.00    -0.297 N 
ATOM      4  N   UNL     1     -11.321  10.528  18.631  0.00  0.00    -0.311 N 
ATOM      6  C   UNL     1     -10.682  12.873  17.818  0.00  0.00    +0.027 C 
ATOM      7  C   UNL     1      -9.903  10.892  16.581  0.00  0.00    +0.054 C 
ATOM      8  C   UNL     1      -9.444  12.186  17.251  0.00  0.00    +0.018 C 
ATOM      9  C   UNL     1     -11.685  13.186  16.692  0.00  0.00    +0.113 C 
ATOM     10  C   UNL     1     -11.291  11.973  18.901  0.00  0.00    +0.130 C 
ATOM     11  C   UNL     1     -10.877  11.221  15.430  0.00  0.00    +0.117 C 
ATOM     12  C   UNL     1     -10.589   9.975  17.577  0.00  0.00    +0.027 A 
ATOM     13  C   UNL     1     -10.531   8.643  17.422  0.00  0.00    +0.022 A 
ATOM     14  C   UNL     1     -12.034   9.727  19.544  0.00  0.00    +0.259 A 
ATOM     15  C   UNL     1     -13.385  11.615  15.792  0.00  0.00    +0.247 C 
ATOM     16  C   UNL     1     -11.989   8.240  19.316  0.00  0.00    +0.047 A 
ATOM     17  C   UNL     1     -11.247   7.766  18.304  0.00  0.00    +0.015 A 
ENDROOT
BRANCH  16  19
ATOM     19  C   UNL     1     -12.751   7.314  20.169  0.00  0.00    -0.010 A 
ATOM     20  C   UNL     1     -14.139   7.202  20.064  0.00  0.00    -0.043 A 
ATOM     23  C   UNL     1     -12.062   6.536  21.101  0.00  0.00    +0.009 A 
ATOM     24  C   UNL     1     -14.834   6.316  20.887  0.00  0.00    +0.004 A 
ATOM     27  C   UNL     1     -14.913   8.019  19.080  0.00  0.00    +0.044 C 
ATOM     28  C   UNL     1     -12.756   5.649  21.924  0.00  0.00    +0.001 A 
ATOM     30  C   UNL     1     -14.143   5.540  21.816  0.00  0.00    +0.000 A 
ENDBRANCH  16  19
BRANCH  15  18
ATOM     18  C   UNL     1     -13.661  10.349  15.126  0.00  0.00    +0.037 A 
ATOM     21  C   UNL     1     -13.801  10.312  13.742  0.00  0.00    +0.014 A 
ATOM     22  C   UNL     1     -13.781   9.184  15.878  0.00  0.00    +0.014 A 
ATOM     25  C   UNL     1     -14.064   9.098  13.104  0.00  0.00    +0.019 A 
ATOM     26  C   UNL     1     -14.043   7.970  15.240  0.00  0.00    +0.019 A 
ATOM     29  C   UNL     1     -14.185   7.929  13.853  0.00  0.00    +0.052 A 
BRANCH  29  31
ATOM      5  N   UNL     1     -14.677   5.677  12.668  0.00  0.00    -0.191 NA
ATOM     31  C   UNL     1     -14.456   6.687  13.200  0.00  0.00    +0.099 C 
ENDBRANCH  29  31
ENDBRANCH  15  18
TORSDOF 3
ENDMDL
MODEL 2
REMARK VINA RESULT:      -6.7     24.972     27.848
REMARK  Name = 11942816
REMARK  4 active torsions:
REMARK  status: ('A' for Active; 'I' for Inactive)
REMARK    1  A    between atoms: C_15  and  C_18
REMARK    2  A    between atoms: C_16  and  C_19
REMARK    3  A    between atoms: C_20  and  C_27
REMARK    4  A    between atoms: C_29  and  C_31
REMARK                            x       y       z     vdW  Elec       q    Type
REMARK                         _______ _______ _______ _____ _____    ______ ____
ROOT
ATOM      1  O   UNL     1      12.437   7.324   3.365  0.00  0.00    -0.267 OA
ATOM      2  O   UNL     1       8.547   9.565   5.679  0.00  0.00    -0.270 OA
ATOM      3  N   UNL     1       8.967   7.639   6.900  0.00  0.00    -0.297 N 
ATOM      4  N   UNL     1      11.492   6.554   5.352  0.00  0.00    -0.311 N 
ATOM      6  C   UNL     1       9.114   5.608   5.471  0.00  0.00    +0.027 C 
ATOM      7  C   UNL     1      10.475   5.764   7.517  0.00  0.00    +0.054 C 
ATOM      8  C   UNL     1       9.641   4.813   6.662  0.00  0.00    +0.018 C 
ATOM      9  C   UNL     1       8.246   6.784   5.955  0.00  0.00    +0.113 C 
ATOM     10  C   UNL     1      10.306   6.077   4.626  0.00  0.00    +0.130 C 
ATOM     11  C   UNL     1       9.585   6.918   8.027  0.00  0.00    +0.117 C 
ATOM     12  C   UNL     1      11.637   6.335   6.725  0.00  0.00    +0.027 A 
ATOM     13  C   UNL     1      12.780   6.667   7.345  0.00  0.00    +0.022 A 
ATOM     14  C   UNL     1      12.512   7.144   4.581  0.00  0.00    +0.259 A 
ATOM     15  C   UNL     1       9.089   9.017   6.641  0.00  0.00    +0.247 C 
ATOM     16  C   UNL     1      13.763   7.550   5.313  0.00  0.00    +0.047 A 
ATOM     17  C   UNL     1      13.855   7.289   6.625  0.00  0.00    +0.015 A 
ENDROOT
BRANCH  16  19
ATOM     19  C   UNL     1      14.865   8.236   4.617  0.00  0.00    -0.010 A 
ATOM     20  C   UNL     1      14.813   9.603   4.342  0.00  0.00    -0.043 A 
ATOM     23  C   UNL     1      15.981   7.492   4.230  0.00  0.00    +0.009 A 
ATOM     24  C   UNL     1      15.872  10.225   3.681  0.00  0.00    +0.004 A 
ATOM     27  C   UNL     1      13.634  10.433   4.739  0.00  0.00    +0.044 C 
ATOM     28  C   UNL     1      17.042   8.113   3.570  0.00  0.00    +0.001 A 
ATOM     30  C   UNL     1      16.987   9.480   3.295  0.00  0.00    +0.000 A 
ENDBRANCH  16  19
BRANCH  15  18
ATOM     18  C   UNL     1       9.921   9.792   7.551  0.00  0.00    +0.037 A 
ATOM     21  C   UNL     1      11.275   9.965   7.275  0.00  0.00    +0.014 A 
ATOM     22  C   UNL     1       9.358  10.357   8.692  0.00  0.00    +0.014 A 
ATOM     25  C   UNL     1      12.071  10.710   8.146  0.00  0.00    +0.019 A 
ATOM     26  C   UNL     1      10.154  11.102   9.563  0.00  0.00    +0.019 A 
ATOM     29  C   UNL     1      11.510  11.277   9.290  0.00  0.00    +0.052 A 
BRANCH  29  31
ATOM      5  N   UNL     1      12.992  12.656  10.909  0.00  0.00    -0.191 NA
ATOM     31  C   UNL     1      12.327  12.037  10.183  0.00  0.00    +0.099 C 
ENDBRANCH  29  31
ENDBRANCH  15  18
TORSDOF 3
ENDMDL
MODEL 3
REMARK VINA RESULT:      -6.4     21.729     23.884
REMARK  Name = 11942816
REMARK  4 active torsions:
REMARK  status: ('A' for Active; 'I' for Inactive)
REMARK    1  A    between atoms: C_15  and  C_18
REMARK    2  A    between atoms: C_16  and  C_19
REMARK    3  A    between atoms: C_20  and  C_27
REMARK    4  A    between atoms: C_29  and  C_31
REMARK                            x       y       z     vdW  Elec       q    Type
REMARK                         _______ _______ _______ _____ _____    ______ ____
ROOT
ATOM      1  O   UNL     1      -6.723 -10.538  14.693  0.00  0.00    -0.267 OA
ATOM      2  O   UNL     1      -5.579 -13.920  11.121  0.00  0.00    -0.270 OA
ATOM      3  N   UNL     1      -3.920 -12.305  10.997  0.00  0.00    -0.297 N 
ATOM      4  N   UNL     1      -4.786 -10.451  13.398  0.00  0.00    -0.311 N 
ATOM      6  C   UNL     1      -4.834  -9.995  10.876  0.00  0.00    +0.027 C 
ATOM      7  C   UNL     1      -2.686 -10.402  12.008  0.00  0.00    +0.054 C 
ATOM      8  C   UNL     1      -3.433  -9.433  11.094  0.00  0.00    +0.018 C 
ATOM      9  C   UNL     1      -4.757 -11.387  10.223  0.00  0.00    +0.113 C 
ATOM     10  C   UNL     1      -5.566 -10.029  12.225  0.00  0.00    +0.130 C 
ATOM     11  C   UNL     1      -2.582 -11.782  11.325  0.00  0.00    +0.117 C 
ATOM     12  C   UNL     1      -3.394 -10.550  13.342  0.00  0.00    +0.027 A 
ATOM     13  C   UNL     1      -2.691 -10.817  14.454  0.00  0.00    +0.022 A 
ATOM     14  C   UNL     1      -5.500 -10.648  14.595  0.00  0.00    +0.259 A 
ATOM     15  C   UNL     1      -4.450 -13.535  11.429  0.00  0.00    +0.247 C 
ATOM     16  C   UNL     1      -4.689 -10.994  15.816  0.00  0.00    +0.047 A 
ATOM     17  C   UNL     1      -3.353 -11.046  15.707  0.00  0.00    +0.015 A 
ENDROOT
BRANCH  16  19
ATOM     19  C   UNL     1      -5.337 -11.286  17.104  0.00  0.00    -0.010 A 
ATOM     20  C   UNL     1      -5.931 -12.523  17.357  0.00  0.00    -0.043 A 
ATOM     23  C   UNL     1      -5.352 -10.296  18.089  0.00  0.00    +0.009 A 
ATOM     24  C   UNL     1      -6.538 -12.770  18.589  0.00  0.00    +0.004 A 
ATOM     27  C   UNL     1      -5.937 -13.608  16.328  0.00  0.00    +0.044 C 
ATOM     28  C   UNL     1      -5.958 -10.542  19.321  0.00  0.00    +0.001 A 
ATOM     30  C   UNL     1      -6.552 -11.780  19.570  0.00  0.00    +0.000 A 
ENDBRANCH  16  19
BRANCH  15  18
ATOM     18  C   UNL     1      -3.611 -14.350  12.299  0.00  0.00    +0.037 A 
ATOM     21  C   UNL     1      -2.694 -15.238  11.742  0.00  0.00    +0.014 A 
ATOM     22  C   UNL     1      -3.730 -14.236  13.681  0.00  0.00    +0.014 A 
ATOM     25  C   UNL     1      -1.889 -16.016  12.575  0.00  0.00    +0.019 A 
ATOM     26  C   UNL     1      -2.926 -15.014  14.514  0.00  0.00    +0.019 A 
ATOM     29  C   UNL     1      -2.006 -15.905  13.960  0.00  0.00    +0.052 A 
BRANCH  29  31
ATOM      5  N   UNL     1      -0.514 -17.355  15.505  0.00  0.00    -0.191 NA
ATOM     31  C   UNL     1      -1.183 -16.704  14.812  0.00  0.00    +0.099 C 
ENDBRANCH  29  31
ENDBRANCH  15  18
TORSDOF 3
ENDMDL
MODEL 4
REMARK VINA RESULT:      -6.4     27.667     29.717
REMARK  Name = 11942816
REMARK  4 active torsions:
REMARK  status: ('A' for Active; 'I' for Inactive)
REMARK    1  A    between atoms: C_15  and  C_18
REMARK    2  A    between atoms: C_16  and  C_19
REMARK    3  A    between atoms: C_20  and  C_27
REMARK    4  A    between atoms: C_29  and  C_31
REMARK                            x       y       z     vdW  Elec       q    Type
REMARK                         _______ _______ _______ _____ _____    ______ ____
ROOT
ATOM      1  O   UNL     1      12.268   7.442   3.197  0.00  0.00    -0.267 OA
ATOM      2  O   UNL     1      14.102   7.240  -1.504  0.00  0.00    -0.270 OA
ATOM      3  N   UNL     1      14.087   5.047  -0.751  0.00  0.00    -0.297 N 
ATOM      4  N   UNL     1      12.771   5.455   2.086  0.00  0.00    -0.311 N 
ATOM      6  C   UNL     1      15.168   4.787   1.474  0.00  0.00    +0.027 C 
ATOM      7  C   UNL     1      13.290   3.323   0.848  0.00  0.00    +0.054 C 
ATOM      8  C   UNL     1      14.642   3.358   1.559  0.00  0.00    +0.018 C 
ATOM      9  C   UNL     1      15.332   5.211   0.002  0.00  0.00    +0.113 C 
ATOM     10  C   UNL     1      14.211   5.710   2.239  0.00  0.00    +0.130 C 
ATOM     11  C   UNL     1      13.474   3.713  -0.634  0.00  0.00    +0.117 C 
ATOM     12  C   UNL     1      12.305   4.273   1.503  0.00  0.00    +0.027 A 
ATOM     13  C   UNL     1      10.990   4.003   1.483  0.00  0.00    +0.022 A 
ATOM     14  C   UNL     1      11.896   6.405   2.645  0.00  0.00    +0.259 A 
ATOM     15  C   UNL     1      13.540   6.145  -1.440  0.00  0.00    +0.247 C 
ATOM     16  C   UNL     1      10.425   6.097   2.566  0.00  0.00    +0.047 A 
ATOM     17  C   UNL     1      10.039   4.934   2.020  0.00  0.00    +0.015 A 
ENDROOT
BRANCH  16  19
ATOM     19  C   UNL     1       9.418   7.051   3.060  0.00  0.00    -0.010 A 
ATOM     20  C   UNL     1       8.912   6.969   4.358  0.00  0.00    -0.043 A 
ATOM     23  C   UNL     1       8.968   8.057   2.202  0.00  0.00    +0.009 A 
ATOM     24  C   UNL     1       7.958   7.887   4.797  0.00  0.00    +0.004 A 
ATOM     27  C   UNL     1       9.368   5.906   5.305  0.00  0.00    +0.044 C 
ATOM     28  C   UNL     1       8.015   8.977   2.641  0.00  0.00    +0.001 A 
ATOM     30  C   UNL     1       7.510   8.891   3.938  0.00  0.00    +0.000 A 
ENDBRANCH  16  19
BRANCH  15  18
ATOM     18  C   UNL     1      12.240   5.953  -2.069  0.00  0.00    +0.037 A 
ATOM     21  C   UNL     1      11.078   6.268  -1.368  0.00  0.00    +0.014 A 
ATOM     22  C   UNL     1      12.165   5.456  -3.367  0.00  0.00    +0.014 A 
ATOM     25  C   UNL     1       9.833   6.086  -1.971  0.00  0.00    +0.019 A 
ATOM     26  C   UNL     1      10.920   5.274  -3.970  0.00  0.00    +0.019 A 
ATOM     29  C   UNL     1       9.754   5.588  -3.271  0.00  0.00    +0.052 A 
BRANCH  29  31
ATOM      5  N   UNL     1       7.441   5.246  -4.388  0.00  0.00    -0.191 NA
ATOM     31  C   UNL     1       8.479   5.399  -3.887  0.00  0.00    +0.099 C 
ENDBRANCH  29  31
ENDBRANCH  15  18
TORSDOF 3
ENDMDL
MODEL 5
REMARK VINA RESULT:      -6.3     30.053     31.873
REMARK  Name = 11942816
REMARK  4 active torsions:
REMARK  status: ('A' for Active; 'I' for Inactive)
REMARK    1  A    between atoms: C_15  and  C_18
REMARK    2  A    between atoms: C_16  and  C_19
REMARK    3  A    between atoms: C_20  and  C_27
REMARK    4  A    between atoms: C_29  and  C_31
REMARK                            x       y       z     vdW  Elec       q    Type
REMARK                         _______ _______ _______ _____ _____    ______ ____
ROOT
ATOM      1  O   UNL     1       9.594  -9.781  32.360  0.00  0.00    -0.267 OA
ATOM      2  O   UNL     1       8.671  -8.829  37.233  0.00  0.00    -0.270 OA
ATOM      3  N   UNL     1       8.197  -6.854  36.116  0.00  0.00    -0.297 N 
ATOM      4  N   UNL     1       8.697  -7.776  33.142  0.00  0.00    -0.311 N 
ATOM      6  C   UNL     1      10.033  -6.143  34.596  0.00  0.00    +0.027 C 
ATOM      7  C   UNL     1       7.696  -5.634  34.012  0.00  0.00    +0.054 C 
ATOM      8  C   UNL     1       9.120  -5.080  33.995  0.00  0.00    +0.018 C 
ATOM      9  C   UNL     1       9.606  -6.462  36.041  0.00  0.00    +0.113 C 
ATOM     10  C   UNL     1      10.002  -7.386  33.696  0.00  0.00    +0.130 C 
ATOM     11  C   UNL     1       7.266  -5.913  35.467  0.00  0.00    +0.117 C 
ATOM     12  C   UNL     1       7.599  -6.914  33.201  0.00  0.00    +0.027 A 
ATOM     13  C   UNL     1       6.452  -7.237  32.583  0.00  0.00    +0.022 A 
ATOM     14  C   UNL     1       8.640  -9.009  32.463  0.00  0.00    +0.259 A 
ATOM     15  C   UNL     1       7.846  -8.083  36.703  0.00  0.00    +0.247 C 
ATOM     16  C   UNL     1       7.327  -9.366  31.820  0.00  0.00    +0.047 A 
ATOM     17  C   UNL     1       6.317  -8.485  31.887  0.00  0.00    +0.015 A 
ENDROOT
BRANCH  16  19
ATOM     19  C   UNL     1       7.136 -10.658  31.142  0.00  0.00    -0.010 A 
ATOM     20  C   UNL     1       6.624 -11.767  31.819  0.00  0.00    -0.043 A 
ATOM     23  C   UNL     1       7.478 -10.767  29.793  0.00  0.00    +0.009 A 
ATOM     24  C   UNL     1       6.455 -12.979  31.149  0.00  0.00    +0.004 A 
ATOM     27  C   UNL     1       6.248 -11.691  33.264  0.00  0.00    +0.044 C 
ATOM     28  C   UNL     1       7.308 -11.978  29.122  0.00  0.00    +0.001 A 
ATOM     30  C   UNL     1       6.797 -13.084  29.801  0.00  0.00    +0.000 A 
ENDBRANCH  16  19
BRANCH  15  18
ATOM     18  C   UNL     1       6.444  -8.473  36.639  0.00  0.00    +0.037 A 
ATOM     21  C   UNL     1       5.962  -9.145  35.518  0.00  0.00    +0.014 A 
ATOM     22  C   UNL     1       5.592  -8.173  37.699  0.00  0.00    +0.014 A 
ATOM     25  C   UNL     1       4.620  -9.520  35.458  0.00  0.00    +0.019 A 
ATOM     26  C   UNL     1       4.249  -8.548  37.638  0.00  0.00    +0.019 A 
ATOM     29  C   UNL     1       3.764  -9.221  36.517  0.00  0.00    +0.052 A 
BRANCH  29  31
ATOM      5  N   UNL     1       1.270  -9.914  36.401  0.00  0.00    -0.191 NA
ATOM     31  C   UNL     1       2.388  -9.603  36.453  0.00  0.00    +0.099 C 
ENDBRANCH  29  31
ENDBRANCH  15  18
TORSDOF 3
ENDMDL
MODEL 6
REMARK VINA RESULT:      -6.3     32.647     35.347
REMARK  Name = 11942816
REMARK  4 active torsions:
REMARK  status: ('A' for Active; 'I' for Inactive)
REMARK    1  A    between atoms: C_15  and  C_18
REMARK    2  A    between atoms: C_16  and  C_19
REMARK    3  A    between atoms: C_20  and  C_27
REMARK    4  A    between atoms: C_29  and  C_31
REMARK                            x       y       z     vdW  Elec       q    Type
REMARK                         _______ _______ _______ _____ _____    ______ ____
ROOT
ATOM      1  O   UNL     1      16.543  -5.620  25.638  0.00  0.00    -0.267 OA
ATOM      2  O   UNL     1      14.326  -5.557  30.175  0.00  0.00    -0.270 OA
ATOM      3  N   UNL     1      16.467  -6.367  30.544  0.00  0.00    -0.297 N 
ATOM      4  N   UNL     1      17.642  -6.147  27.625  0.00  0.00    -0.311 N 
ATOM      6  C   UNL     1      17.069  -8.228  29.007  0.00  0.00    +0.027 C 
ATOM      7  C   UNL     1      18.813  -6.677  29.791  0.00  0.00    +0.054 C 
ATOM      8  C   UNL     1      18.517  -8.142  29.476  0.00  0.00    +0.018 C 
ATOM      9  C   UNL     1      16.118  -7.720  30.107  0.00  0.00    +0.113 C 
ATOM     10  C   UNL     1      16.925  -7.429  27.705  0.00  0.00    +0.130 C 
ATOM     11  C   UNL     1      17.880  -6.192  30.921  0.00  0.00    +0.117 C 
ATOM     12  C   UNL     1      18.617  -5.805  28.565  0.00  0.00    +0.027 A 
ATOM     13  C   UNL     1      19.346  -4.688  28.406  0.00  0.00    +0.022 A 
ATOM     14  C   UNL     1      17.370  -5.338  26.505  0.00  0.00    +0.259 A 
ATOM     15  C   UNL     1      15.496  -5.349  30.499  0.00  0.00    +0.247 C 
ATOM     16  C   UNL     1      18.169  -4.069  26.379  0.00  0.00    +0.047 A 
ATOM     17  C   UNL     1      19.112  -3.808  27.297  0.00  0.00    +0.015 A 
ENDROOT
BRANCH  16  19
ATOM     19  C   UNL     1      17.921  -3.117  25.284  0.00  0.00    -0.010 A 
ATOM     20  C   UNL     1      18.476  -3.304  24.017  0.00  0.00    -0.043 A 
ATOM     23  C   UNL     1      17.111  -2.006  25.529  0.00  0.00    +0.009 A 
ATOM     24  C   UNL     1      18.223  -2.384  22.999  0.00  0.00    +0.004 A 
ATOM     27  C   UNL     1      19.349  -4.479  23.716  0.00  0.00    +0.044 C 
ATOM     28  C   UNL     1      16.857  -1.086  24.512  0.00  0.00    +0.001 A 
ATOM     30  C   UNL     1      17.414  -1.275  23.247  0.00  0.00    +0.000 A 
ENDBRANCH  16  19
BRANCH  15  18
ATOM     18  C   UNL     1      15.935  -3.999  30.829  0.00  0.00    +0.037 A 
ATOM     21  C   UNL     1      16.471  -3.183  29.836  0.00  0.00    +0.014 A 
ATOM     22  C   UNL     1      15.815  -3.532  32.135  0.00  0.00    +0.014 A 
ATOM     25  C   UNL     1      16.889  -1.890  30.151  0.00  0.00    +0.019 A 
ATOM     26  C   UNL     1      16.233  -2.238  32.450  0.00  0.00    +0.019 A 
ATOM     29  C   UNL     1      16.770  -1.418  31.458  0.00  0.00    +0.052 A 
BRANCH  29  31
ATOM      5  N   UNL     1      17.551   0.982  32.044  0.00  0.00    -0.191 NA
ATOM     31  C   UNL     1      17.201  -0.095  31.781  0.00  0.00    +0.099 C 
ENDBRANCH  29  31
ENDBRANCH  15  18
TORSDOF 3
ENDMDL
MODEL 7
REMARK VINA RESULT:      -6.3     24.562     26.659
REMARK  Name = 11942816
REMARK  4 active torsions:
REMARK  status: ('A' for Active; 'I' for Inactive)
REMARK    1  A    between atoms: C_15  and  C_18
REMARK    2  A    between atoms: C_16  and  C_19
REMARK    3  A    between atoms: C_20  and  C_27
REMARK    4  A    between atoms: C_29  and  C_31
REMARK                            x       y       z     vdW  Elec       q    Type
REMARK                         _______ _______ _______ _____ _____    ______ ____
ROOT
ATOM      1  O   UNL     1      12.631   6.783   6.684  0.00  0.00    -0.267 OA
ATOM      2  O   UNL     1      12.121  11.085   4.087  0.00  0.00    -0.270 OA
ATOM      3  N   UNL     1      12.272   9.412   2.489  0.00  0.00    -0.297 N 
ATOM      4  N   UNL     1      12.416   6.880   4.365  0.00  0.00    -0.311 N 
ATOM      6  C   UNL     1      14.216   7.904   2.856  0.00  0.00    +0.027 C 
ATOM      7  C   UNL     1      12.147   7.012   1.864  0.00  0.00    +0.054 C 
ATOM      8  C   UNL     1      13.672   6.950   1.797  0.00  0.00    +0.018 C 
ATOM      9  C   UNL     1      13.731   9.340   2.583  0.00  0.00    +0.113 C 
ATOM     10  C   UNL     1      13.785   7.401   4.240  0.00  0.00    +0.130 C 
ATOM     11  C   UNL     1      11.672   8.446   1.551  0.00  0.00    +0.117 C 
ATOM     12  C   UNL     1      11.643   6.600   3.235  0.00  0.00    +0.027 A 
ATOM     13  C   UNL     1      10.445   6.010   3.366  0.00  0.00    +0.022 A 
ATOM     14  C   UNL     1      11.967   6.583   5.666  0.00  0.00    +0.259 A 
ATOM     15  C   UNL     1      11.562  10.298   3.321  0.00  0.00    +0.247 C 
ATOM     16  C   UNL     1      10.600   5.966   5.785  0.00  0.00    +0.047 A 
ATOM     17  C   UNL     1       9.917   5.695   4.663  0.00  0.00    +0.015 A 
ENDROOT
BRANCH  16  19
ATOM     19  C   UNL     1      10.005   5.677   7.100  0.00  0.00    -0.010 A 
ATOM     20  C   UNL     1       9.393   6.676   7.858  0.00  0.00    -0.043 A 
ATOM     23  C   UNL     1      10.060   4.370   7.589  0.00  0.00    +0.009 A 
ATOM     24  C   UNL     1       8.838   6.371   9.102  0.00  0.00    +0.004 A 
ATOM     27  C   UNL     1       9.315   8.086   7.369  0.00  0.00    +0.044 C 
ATOM     28  C   UNL     1       9.505   4.064   8.832  0.00  0.00    +0.001 A 
ATOM     30  C   UNL     1       8.895   5.065   9.588  0.00  0.00    +0.000 A 
ENDBRANCH  16  19
BRANCH  15  18
ATOM     18  C   UNL     1      10.108  10.236   3.269  0.00  0.00    +0.037 A 
ATOM     21  C   UNL     1       9.413  11.025   2.356  0.00  0.00    +0.014 A 
ATOM     22  C   UNL     1       9.420   9.386   4.132  0.00  0.00    +0.014 A 
ATOM     25  C   UNL     1       8.020  10.963   2.305  0.00  0.00    +0.019 A 
ATOM     26  C   UNL     1       8.027   9.325   4.081  0.00  0.00    +0.019 A 
ATOM     29  C   UNL     1       7.328  10.114   3.167  0.00  0.00    +0.052 A 
BRANCH  29  31
ATOM      5  N   UNL     1       4.740  10.005   3.075  0.00  0.00    -0.191 NA
ATOM     31  C   UNL     1       5.901  10.054   3.116  0.00  0.00    +0.099 C 
ENDBRANCH  29  31
ENDBRANCH  15  18
TORSDOF 3
ENDMDL
MODEL 8
REMARK VINA RESULT:      -6.2     18.189     21.268
REMARK  Name = 11942816
REMARK  4 active torsions:
REMARK  status: ('A' for Active; 'I' for Inactive)
REMARK    1  A    between atoms: C_15  and  C_18
REMARK    2  A    between atoms: C_16  and  C_19
REMARK    3  A    between atoms: C_20  and  C_27
REMARK    4  A    between atoms: C_29  and  C_31
REMARK                            x       y       z     vdW  Elec       q    Type
REMARK                         _______ _______ _______ _____ _____    ______ ____
ROOT
ATOM      1  O   UNL     1     -11.271  -9.415  19.035  0.00  0.00    -0.267 OA
ATOM      2  O   UNL     1      -6.667 -11.153  20.172  0.00  0.00    -0.270 OA
ATOM      3  N   UNL     1      -7.795 -12.952  19.241  0.00  0.00    -0.297 N 
ATOM      4  N   UNL     1     -10.524 -11.557  18.496  0.00  0.00    -0.311 N 
ATOM      6  C   UNL     1     -10.024 -13.330  20.277  0.00  0.00    +0.027 C 
ATOM      7  C   UNL     1      -9.678 -13.852  17.895  0.00  0.00    +0.054 C 
ATOM      8  C   UNL     1     -10.363 -14.330  19.175  0.00  0.00    +0.018 C 
ATOM      9  C   UNL     1      -8.500 -13.260  20.486  0.00  0.00    +0.113 C 
ATOM     10  C   UNL     1     -10.621 -11.967  19.905  0.00  0.00    +0.130 C 
ATOM     11  C   UNL     1      -8.150 -13.823  18.106  0.00  0.00    +0.117 C 
ATOM     12  C   UNL     1     -10.161 -12.469  17.501  0.00  0.00    +0.027 A 
ATOM     13  C   UNL     1     -10.198 -12.108  16.209  0.00  0.00    +0.022 A 
ATOM     14  C   UNL     1     -10.913 -10.238  18.191  0.00  0.00    +0.259 A 
ATOM     15  C   UNL     1      -6.927 -11.845  19.187  0.00  0.00    +0.247 C 
ATOM     16  C   UNL     1     -10.898  -9.848  16.738  0.00  0.00    +0.047 A 
ATOM     17  C   UNL     1     -10.568 -10.775  15.826  0.00  0.00    +0.015 A 
ENDROOT
BRANCH  16  19
ATOM     19  C   UNL     1     -11.222  -8.477  16.312  0.00  0.00    -0.010 A 
ATOM     20  C   UNL     1     -12.543  -8.062  16.139  0.00  0.00    -0.043 A 
ATOM     23  C   UNL     1     -10.177  -7.580  16.081  0.00  0.00    +0.009 A 
ATOM     24  C   UNL     1     -12.819  -6.755  15.734  0.00  0.00    +0.004 A 
ATOM     27  C   UNL     1     -13.689  -8.992  16.375  0.00  0.00    +0.044 C 
ATOM     28  C   UNL     1     -10.452  -6.273  15.678  0.00  0.00    +0.001 A 
ATOM     30  C   UNL     1     -11.773  -5.861  15.504  0.00  0.00    +0.000 A 
ENDBRANCH  16  19
BRANCH  15  18
ATOM     18  C   UNL     1      -6.350 -11.517  17.890  0.00  0.00    +0.037 A 
ATOM     21  C   UNL     1      -6.975 -10.580  17.071  0.00  0.00    +0.014 A 
ATOM     22  C   UNL     1      -5.176 -12.141  17.476  0.00  0.00    +0.014 A 
ATOM     25  C   UNL     1      -6.421 -10.264  15.830  0.00  0.00    +0.019 A 
ATOM     26  C   UNL     1      -4.622 -11.825  16.235  0.00  0.00    +0.019 A 
ATOM     29  C   UNL     1      -5.246 -10.887  15.412  0.00  0.00    +0.052 A 
BRANCH  29  31
ATOM      5  N   UNL     1      -4.221 -10.303  13.104  0.00  0.00    -0.191 NA
ATOM     31  C   UNL     1      -4.681 -10.565  14.140  0.00  0.00    +0.099 C 
ENDBRANCH  29  31
ENDBRANCH  15  18
TORSDOF 3
ENDMDL
MODEL 9
REMARK VINA RESULT:      -6.1     21.397     23.609
REMARK  Name = 11942816
REMARK  4 active torsions:
REMARK  status: ('A' for Active; 'I' for Inactive)
REMARK    1  A    between atoms: C_15  and  C_18
REMARK    2  A    between atoms: C_16  and  C_19
REMARK    3  A    between atoms: C_20  and  C_27
REMARK    4  A    between atoms: C_29  and  C_31
REMARK                            x       y       z     vdW  Elec       q    Type
REMARK                         _______ _______ _______ _____ _____    ______ ____
ROOT
ATOM      1  O   UNL     1      -4.418 -15.027  15.520  0.00  0.00    -0.267 OA
ATOM      2  O   UNL     1      -8.183 -11.842  14.427  0.00  0.00    -0.270 OA
ATOM      3  N   UNL     1      -6.727 -10.641  15.773  0.00  0.00    -0.297 N 
ATOM      4  N   UNL     1      -4.445 -12.784  16.156  0.00  0.00    -0.311 N 
ATOM      6  C   UNL     1      -6.121 -11.854  17.858  0.00  0.00    +0.027 C 
ATOM      7  C   UNL     1      -4.485 -10.349  16.799  0.00  0.00    +0.054 C 
ATOM      8  C   UNL     1      -5.040 -10.817  18.144  0.00  0.00    +0.018 C 
ATOM      9  C   UNL     1      -7.245 -11.236  17.006  0.00  0.00    +0.113 C 
ATOM     10  C   UNL     1      -5.472 -13.064  17.170  0.00  0.00    +0.130 C 
ATOM     11  C   UNL     1      -5.612  -9.698  15.972  0.00  0.00    +0.117 C 
ATOM     12  C   UNL     1      -3.891 -11.508  16.021  0.00  0.00    +0.027 A 
ATOM     13  C   UNL     1      -2.870 -11.302  15.175  0.00  0.00    +0.022 A 
ATOM     14  C   UNL     1      -3.980 -13.881  15.406  0.00  0.00    +0.259 A 
ATOM     15  C   UNL     1      -7.246 -11.049  14.530  0.00  0.00    +0.247 C 
ATOM     16  C   UNL     1      -2.866 -13.610  14.431  0.00  0.00    +0.047 A 
ATOM     17  C   UNL     1      -2.355 -12.371  14.366  0.00  0.00    +0.015 A 
ENDROOT
BRANCH  16  19
ATOM     19  C   UNL     1      -2.348 -14.669  13.550  0.00  0.00    -0.010 A 
ATOM     20  C   UNL     1      -2.952 -14.956  12.325  0.00  0.00    -0.043 A 
ATOM     23  C   UNL     1      -1.228 -15.396  13.958  0.00  0.00    +0.009 A 
ATOM     24  C   UNL     1      -2.439 -15.967  11.511  0.00  0.00    +0.004 A 
ATOM     27  C   UNL     1      -4.153 -14.201  11.853  0.00  0.00    +0.044 C 
ATOM     28  C   UNL     1      -0.714 -16.406  13.145  0.00  0.00    +0.001 A 
ATOM     30  C   UNL     1      -1.320 -16.691  11.921  0.00  0.00    +0.000 A 
ENDBRANCH  16  19
BRANCH  15  18
ATOM     18  C   UNL     1      -6.608 -10.512  13.336  0.00  0.00    +0.037 A 
ATOM     21  C   UNL     1      -5.482 -11.141  12.811  0.00  0.00    +0.014 A 
ATOM     22  C   UNL     1      -7.127  -9.374  12.725  0.00  0.00    +0.014 A 
ATOM     25  C   UNL     1      -4.872 -10.628  11.666  0.00  0.00    +0.019 A 
ATOM     26  C   UNL     1      -6.517  -8.861  11.580  0.00  0.00    +0.019 A 
ATOM     29  C   UNL     1      -5.389  -9.488  11.051  0.00  0.00    +0.052 A 
BRANCH  29  31
ATOM      5  N   UNL     1      -4.252  -8.534   8.927  0.00  0.00    -0.191 NA
ATOM     31  C   UNL     1      -4.762  -8.962   9.880  0.00  0.00    +0.099 C 
ENDBRANCH  29  31
ENDBRANCH  15  18
TORSDOF 3
ENDMDL
MODEL 10
REMARK VINA RESULT:      -6.1     18.888     21.744
REMARK  Name = 11942816
REMARK  4 active torsions:
REMARK  status: ('A' for Active; 'I' for Inactive)
REMARK    1  A    between atoms: C_15  and  C_18
REMARK    2  A    between atoms: C_16  and  C_19
REMARK    3  A    between atoms: C_20  and  C_27
REMARK    4  A    between atoms: C_29  and  C_31
REMARK                            x       y       z     vdW  Elec       q    Type
REMARK                         _______ _______ _______ _____ _____    ______ ____
ROOT
ATOM      1  O   UNL     1      -5.853 -13.333  14.295  0.00  0.00    -0.267 OA
ATOM      2  O   UNL     1      -9.526 -12.654  17.695  0.00  0.00    -0.270 OA
ATOM      3  N   UNL     1      -7.684 -11.529  18.542  0.00  0.00    -0.297 N 
ATOM      4  N   UNL     1      -5.639 -11.980  16.183  0.00  0.00    -0.311 N 
ATOM      6  C   UNL     1      -5.628 -12.929  18.563  0.00  0.00    +0.027 C 
ATOM      7  C   UNL     1      -5.449 -10.499  18.211  0.00  0.00    +0.054 C 
ATOM      8  C   UNL     1      -4.796 -11.696  18.900  0.00  0.00    +0.018 C 
ATOM      9  C   UNL     1      -7.074 -12.753  19.065  0.00  0.00    +0.113 C 
ATOM     10  C   UNL     1      -5.566 -13.167  17.049  0.00  0.00    +0.130 C 
ATOM     11  C   UNL     1      -6.882 -10.310  18.749  0.00  0.00    +0.117 C 
ATOM     12  C   UNL     1      -5.495 -10.693  16.707  0.00  0.00    +0.027 A 
ATOM     13  C   UNL     1      -5.442  -9.632  15.886  0.00  0.00    +0.022 A 
ATOM     14  C   UNL     1      -5.757 -12.212  14.799  0.00  0.00    +0.259 A 
ATOM     15  C   UNL     1      -8.899 -11.602  17.836  0.00  0.00    +0.247 C 
ATOM     16  C   UNL     1      -5.743 -11.000  13.907  0.00  0.00    +0.047 A 
ATOM     17  C   UNL     1      -5.573  -9.793  14.465  0.00  0.00    +0.015 A 
ENDROOT
BRANCH  16  19
ATOM     19  C   UNL     1      -5.926 -11.122  12.452  0.00  0.00    -0.010 A 
ATOM     20  C   UNL     1      -4.838 -11.275  11.591  0.00  0.00    -0.043 A 
ATOM     23  C   UNL     1      -7.221 -11.082  11.931  0.00  0.00    +0.009 A 
ATOM     24  C   UNL     1      -5.043 -11.387  10.216  0.00  0.00    +0.004 A 
ATOM     27  C   UNL     1      -3.436 -11.320  12.110  0.00  0.00    +0.044 C 
ATOM     28  C   UNL     1      -7.427 -11.195  10.556  0.00  0.00    +0.001 A 
ATOM     30  C   UNL     1      -6.337 -11.347   9.699  0.00  0.00    +0.000 A 
ENDBRANCH  16  19
BRANCH  15  18
ATOM     18  C   UNL     1      -9.393 -10.371  17.235  0.00  0.00    +0.037 A 
ATOM     21  C   UNL     1     -10.179  -9.501  17.987  0.00  0.00    +0.014 A 
ATOM     22  C   UNL     1      -9.075 -10.068  15.914  0.00  0.00    +0.014 A 
ATOM     25  C   UNL     1     -10.650  -8.320  17.412  0.00  0.00    +0.019 A 
ATOM     26  C   UNL     1      -9.547  -8.887  15.339  0.00  0.00    +0.019 A 
ATOM     29  C   UNL     1     -10.334  -8.014  16.089  0.00  0.00    +0.052 A 
BRANCH  29  31
ATOM      5  N   UNL     1     -11.215  -5.823  15.021  0.00  0.00    -0.191 NA
ATOM     31  C   UNL     1     -10.820  -6.805  15.500  0.00  0.00    +0.099 C 
ENDBRANCH  29  31
ENDBRANCH  15  18
TORSDOF 3
ENDMDL
