MODEL 1
REMARK VINA RESULT:      -7.4      0.000      0.000
REMARK  Name = 11883120
REMARK  8 active torsions:
REMARK  status: ('A' for Active; 'I' for Inactive)
REMARK    1  A    between atoms: O_3  and  C_16
REMARK    2  A    between atoms: O_4  and  C_21
REMARK    3  A    between atoms: C_11  and  C_19
REMARK    4  A    between atoms: C_13  and  C_21
REMARK    5  A    between atoms: C_13  and  C_22
REMARK    6  A    between atoms: C_14  and  C_24
REMARK    7  A    between atoms: C_24  and  C_25
REMARK    8  A    between atoms: C_31  and  C_32
REMARK                            x       y       z     vdW  Elec       q    Type
REMARK                         _______ _______ _______ _____ _____    ______ ____
ROOT
ATOM      1  S   UNL     1      17.529   5.785  19.393  0.00  0.00    -0.057 S 
ATOM      7  O   UNL     1      21.165   7.777  21.509  0.00  0.00    -0.270 OA
ATOM      8  N   UNL     1      18.301   7.830  20.774  0.00  0.00    -0.229 NA
ATOM     10  N   UNL     1      19.972   6.170  20.264  0.00  0.00    -0.261 N 
ATOM     11  C   UNL     1      14.798   9.351  20.238  0.00  0.00    -0.019 C 
ATOM     12  C   UNL     1      14.099   7.921  20.185  0.00  0.00    +0.011 C 
ATOM     13  C   UNL     1      12.559   7.889  19.847  0.00  0.00    +0.021 C 
ATOM     14  C   UNL     1      16.189   9.191  21.006  0.00  0.00    +0.054 C 
ATOM     15  C   UNL     1      13.905  10.332  21.041  0.00  0.00    +0.010 C 
ATOM     16  C   UNL     1      11.823   8.959  20.701  0.00  0.00    +0.123 C 
ATOM     17  C   UNL     1      14.943   6.905  19.361  0.00  0.00    +0.049 C 
ATOM     18  C   UNL     1      12.450  10.346  20.595  0.00  0.00    +0.032 C 
ATOM     19  C   UNL     1      15.052   9.947  18.832  0.00  0.00    +0.012 C 
ATOM     20  C   UNL     1      16.955   7.997  20.499  0.00  0.00    +0.058 A 
ATOM     22  C   UNL     1      11.980   6.502  20.246  0.00  0.00    +0.016 C 
ATOM     23  C   UNL     1      16.374   6.974  19.778  0.00  0.00    +0.015 A 
ATOM     26  C   UNL     1      18.710   6.703  20.234  0.00  0.00    +0.165 A 
ATOM     31  C   UNL     1      21.103   6.722  20.886  0.00  0.00    +0.250 C 
ATOM     40  H   UNL     1      20.035   5.262  19.815  0.00  0.00    +0.157 HD
ENDROOT
BRANCH  31  32
ATOM      2  F   UNL     1      23.342   2.437  20.855  0.00  0.00    -0.205 F 
ATOM     32  C   UNL     1      22.344   5.909  20.787  0.00  0.00    +0.040 A 
ATOM     33  C   UNL     1      22.246   4.536  20.870  0.00  0.00    +0.051 A 
ATOM     34  C   UNL     1      23.550   6.554  20.614  0.00  0.00    +0.013 A 
ATOM     35  C   UNL     1      23.409   3.772  20.777  0.00  0.00    +0.124 A 
ATOM     36  C   UNL     1      24.713   5.790  20.521  0.00  0.00    +0.004 A 
ATOM     37  C   UNL     1      24.643   4.400  20.601  0.00  0.00    +0.038 A 
ENDBRANCH  31  32
BRANCH  16   3
ATOM      3  O   UNL     1      10.449   9.045  20.326  0.00  0.00    -0.391 OA
ATOM     38  H   UNL     1      10.194   8.200  19.922  0.00  0.00    +0.210 HD
ENDBRANCH  16   3
BRANCH  13  21
ATOM     21  C   UNL     1      12.228   8.060  18.347  0.00  0.00    +0.165 C 
BRANCH  21   4
ATOM      4  O   UNL     1      11.935   6.785  17.822  0.00  0.00    -0.394 OA
ATOM     39  H   UNL     1      11.046   6.532  18.124  0.00  0.00    +0.209 HD
ENDBRANCH  21   4
ENDBRANCH  13  21
BRANCH  14  24
ATOM     24  C   UNL     1      17.060  10.455  21.018  0.00  0.00    +0.106 C 
BRANCH  24  25
ATOM      5  O   UNL     1      16.033  11.211  23.016  0.00  0.00    -0.276 OA
ATOM      6  O   UNL     1      20.647  11.566  24.535  0.00  0.00    -0.377 OA
ATOM      9  N   UNL     1      18.348  11.358  22.919  0.00  0.00    -0.297 N 
ATOM     25  C   UNL     1      17.091  11.042  22.406  0.00  0.00    +0.216 C 
ATOM     27  C   UNL     1      19.617  10.759  22.492  0.00  0.00    +0.136 C 
ATOM     28  C   UNL     1      18.494  12.456  23.875  0.00  0.00    +0.136 C 
ATOM     29  C   UNL     1      20.471  10.415  23.705  0.00  0.00    +0.179 C 
ATOM     30  C   UNL     1      19.392  12.038  25.031  0.00  0.00    +0.179 C 
ENDBRANCH  24  25
ENDBRANCH  14  24
TORSDOF 6
ENDMDL
MODEL 2
REMARK VINA RESULT:      -7.2     30.264     32.995
REMARK  Name = 11883120
REMARK  8 active torsions:
REMARK  status: ('A' for Active; 'I' for Inactive)
REMARK    1  A    between atoms: O_3  and  C_16
REMARK    2  A    between atoms: O_4  and  C_21
REMARK    3  A    between atoms: C_11  and  C_19
REMARK    4  A    between atoms: C_13  and  C_21
REMARK    5  A    between atoms: C_13  and  C_22
REMARK    6  A    between atoms: C_14  and  C_24
REMARK    7  A    between atoms: C_24  and  C_25
REMARK    8  A    between atoms: C_31  and  C_32
REMARK                            x       y       z     vdW  Elec       q    Type
REMARK                         _______ _______ _______ _____ _____    ______ ____
ROOT
ATOM      1  S   UNL     1      -5.656 -10.940  12.557  0.00  0.00    -0.057 S 
ATOM      7  O   UNL     1      -8.870  -8.422  10.320  0.00  0.00    -0.270 OA
ATOM      8  N   UNL     1      -7.832  -9.571  12.841  0.00  0.00    -0.229 NA
ATOM     10  N   UNL     1      -6.938  -9.741  10.609  0.00  0.00    -0.261 N 
ATOM     11  C   UNL     1      -7.906 -10.697  16.528  0.00  0.00    -0.019 C 
ATOM     12  C   UNL     1      -6.318 -10.775  16.618  0.00  0.00    +0.011 C 
ATOM     13  C   UNL     1      -5.704 -11.333  17.959  0.00  0.00    +0.021 C 
ATOM     14  C   UNL     1      -8.284  -9.725  15.318  0.00  0.00    +0.054 C 
ATOM     15  C   UNL     1      -8.468 -10.087  17.839  0.00  0.00    +0.010 C 
ATOM     16  C   UNL     1      -6.408 -10.655  19.168  0.00  0.00    +0.123 C 
ATOM     17  C   UNL     1      -5.706 -11.410  15.335  0.00  0.00    +0.049 C 
ATOM     18  C   UNL     1      -7.929 -10.742  19.103  0.00  0.00    +0.032 C 
ATOM     19  C   UNL     1      -8.564 -12.080  16.301  0.00  0.00    +0.012 C 
ATOM     20  C   UNL     1      -7.475 -10.050  14.088  0.00  0.00    +0.058 A 
ATOM     22  C   UNL     1      -4.198 -10.950  18.025  0.00  0.00    +0.016 C 
ATOM     23  C   UNL     1      -6.313 -10.792  14.121  0.00  0.00    +0.015 A 
ATOM     26  C   UNL     1      -6.950  -9.984  11.957  0.00  0.00    +0.165 A 
ATOM     31  C   UNL     1      -7.876  -8.990   9.882  0.00  0.00    +0.250 C 
ATOM     40  H   UNL     1      -6.125 -10.126  10.138  0.00  0.00    +0.157 HD
ENDROOT
BRANCH  31  32
ATOM      2  F   UNL     1      -8.724  -6.922   5.594  0.00  0.00    -0.205 F 
ATOM     32  C   UNL     1      -7.598  -8.862   8.427  0.00  0.00    +0.040 A 
ATOM     33  C   UNL     1      -8.308  -7.935   7.694  0.00  0.00    +0.051 A 
ATOM     34  C   UNL     1      -6.640  -9.674   7.859  0.00  0.00    +0.013 A 
ATOM     35  C   UNL     1      -8.048  -7.814   6.329  0.00  0.00    +0.124 A 
ATOM     36  C   UNL     1      -6.379  -9.553   6.494  0.00  0.00    +0.004 A 
ATOM     37  C   UNL     1      -7.082  -8.624   5.729  0.00  0.00    +0.038 A 
ENDBRANCH  31  32
BRANCH  16   3
ATOM      3  O   UNL     1      -5.966 -11.231  20.396  0.00  0.00    -0.391 OA
ATOM     38  H   UNL     1      -6.675 -11.124  21.050  0.00  0.00    +0.210 HD
ENDBRANCH  16   3
BRANCH  13  21
ATOM     21  C   UNL     1      -5.746 -12.872  18.091  0.00  0.00    +0.165 C 
BRANCH  21   4
ATOM      4  O   UNL     1      -4.498 -13.297  18.589  0.00  0.00    -0.394 OA
ATOM     39  H   UNL     1      -3.805 -12.772  18.153  0.00  0.00    +0.209 HD
ENDBRANCH  21   4
ENDBRANCH  13  21
BRANCH  14  24
ATOM     24  C   UNL     1      -9.785  -9.653  15.002  0.00  0.00    +0.106 C 
BRANCH  24  25
ATOM      5  O   UNL     1      -9.676  -7.496  15.979  0.00  0.00    -0.276 OA
ATOM      6  O   UNL     1     -13.302  -6.567  12.862  0.00  0.00    -0.377 OA
ATOM      9  N   UNL     1     -11.431  -7.882  14.509  0.00  0.00    -0.297 N 
ATOM     25  C   UNL     1     -10.285  -8.247  15.214  0.00  0.00    +0.216 C 
ATOM     27  C   UNL     1     -11.900  -8.505  13.267  0.00  0.00    +0.136 C 
ATOM     28  C   UNL     1     -12.348  -6.888  15.065  0.00  0.00    +0.136 C 
ATOM     29  C   UNL     1     -12.332  -7.436  12.271  0.00  0.00    +0.179 C 
ATOM     30  C   UNL     1     -12.757  -5.885  13.995  0.00  0.00    +0.179 C 
ENDBRANCH  24  25
ENDBRANCH  14  24
TORSDOF 6
ENDMDL
MODEL 3
REMARK VINA RESULT:      -7.2     30.090     34.082
REMARK  Name = 11883120
REMARK  8 active torsions:
REMARK  status: ('A' for Active; 'I' for Inactive)
REMARK    1  A    between atoms: O_3  and  C_16
REMARK    2  A    between atoms: O_4  and  C_21
REMARK    3  A    between atoms: C_11  and  C_19
REMARK    4  A    between atoms: C_13  and  C_21
REMARK    5  A    between atoms: C_13  and  C_22
REMARK    6  A    between atoms: C_14  and  C_24
REMARK    7  A    between atoms: C_24  and  C_25
REMARK    8  A    between atoms: C_31  and  C_32
REMARK                            x       y       z     vdW  Elec       q    Type
REMARK                         _______ _______ _______ _____ _____    ______ ____
ROOT
ATOM      1  S   UNL     1     -11.000 -10.817  19.178  0.00  0.00    -0.057 S 
ATOM      7  O   UNL     1      -7.375  -9.171  16.764  0.00  0.00    -0.270 OA
ATOM      8  N   UNL     1     -10.279  -9.162  17.325  0.00  0.00    -0.229 NA
ATOM     10  N   UNL     1      -8.537 -10.480  18.343  0.00  0.00    -0.261 N 
ATOM     11  C   UNL     1     -14.014  -8.422  16.714  0.00  0.00    -0.019 C 
ATOM     12  C   UNL     1     -14.397  -8.689  18.236  0.00  0.00    +0.011 C 
ATOM     13  C   UNL     1     -15.929  -8.647  18.607  0.00  0.00    +0.021 C 
ATOM     14  C   UNL     1     -12.455  -8.078  16.650  0.00  0.00    +0.054 C 
ATOM     15  C   UNL     1     -14.807  -7.197  16.189  0.00  0.00    +0.010 C 
ATOM     16  C   UNL     1     -16.578  -7.387  17.967  0.00  0.00    +0.123 C 
ATOM     17  C   UNL     1     -13.648  -9.931  18.802  0.00  0.00    +0.049 C 
ATOM     18  C   UNL     1     -16.301  -7.263  16.472  0.00  0.00    +0.032 C 
ATOM     19  C   UNL     1     -14.311  -9.636  15.799  0.00  0.00    +0.012 C 
ATOM     20  C   UNL     1     -11.651  -9.054  17.469  0.00  0.00    +0.058 A 
ATOM     22  C   UNL     1     -16.075  -8.509  20.149  0.00  0.00    +0.016 C 
ATOM     23  C   UNL     1     -12.203  -9.863  18.441  0.00  0.00    +0.015 A 
ATOM     26  C   UNL     1      -9.831 -10.066  18.169  0.00  0.00    +0.165 A 
ATOM     31  C   UNL     1      -7.407 -10.021  17.647  0.00  0.00    +0.250 C 
ATOM     40  H   UNL     1      -8.429 -11.158  19.091  0.00  0.00    +0.157 HD
ENDROOT
BRANCH  31  32
ATOM      2  F   UNL     1      -2.761 -11.047  16.785  0.00  0.00    -0.205 F 
ATOM     32  C   UNL     1      -6.114 -10.627  18.064  0.00  0.00    +0.040 A 
ATOM     33  C   UNL     1      -5.036 -10.545  17.208  0.00  0.00    +0.051 A 
ATOM     34  C   UNL     1      -6.037 -11.249  19.291  0.00  0.00    +0.013 A 
ATOM     35  C   UNL     1      -3.823 -11.112  17.598  0.00  0.00    +0.124 A 
ATOM     36  C   UNL     1      -4.823 -11.817  19.681  0.00  0.00    +0.004 A 
ATOM     37  C   UNL     1      -3.717 -11.748  18.836  0.00  0.00    +0.038 A 
ENDBRANCH  31  32
BRANCH  16   3
ATOM      3  O   UNL     1     -17.989  -7.387  18.174  0.00  0.00    -0.391 OA
ATOM     38  H   UNL     1     -18.341  -8.234  17.854  0.00  0.00    +0.210 HD
ENDBRANCH  16   3
BRANCH  13  21
ATOM     21  C   UNL     1     -16.715  -9.922  18.229  0.00  0.00    +0.165 C 
BRANCH  21   4
ATOM      4  O   UNL     1     -17.700 -10.130  19.216  0.00  0.00    -0.394 OA
ATOM     39  H   UNL     1     -18.530 -10.365  18.769  0.00  0.00    +0.209 HD
ENDBRANCH  21   4
ENDBRANCH  13  21
BRANCH  14  24
ATOM     24  C   UNL     1     -11.891  -7.936  15.230  0.00  0.00    +0.106 C 
BRANCH  24  25
ATOM      5  O   UNL     1     -10.960  -5.797  15.650  0.00  0.00    -0.276 OA
ATOM      6  O   UNL     1     -12.875  -4.778  11.290  0.00  0.00    -0.377 OA
ATOM      9  N   UNL     1     -12.304  -5.992  13.768  0.00  0.00    -0.297 N 
ATOM     25  C   UNL     1     -11.672  -6.479  14.910  0.00  0.00    +0.216 C 
ATOM     27  C   UNL     1     -12.730  -6.801  12.620  0.00  0.00    +0.136 C 
ATOM     28  C   UNL     1     -12.715  -4.590  13.698  0.00  0.00    +0.136 C 
ATOM     29  C   UNL     1     -12.352  -6.108  11.317  0.00  0.00    +0.179 C 
ATOM     30  C   UNL     1     -12.332  -3.990  12.352  0.00  0.00    +0.179 C 
ENDBRANCH  24  25
ENDBRANCH  14  24
TORSDOF 6
ENDMDL
MODEL 4
REMARK VINA RESULT:      -7.1     18.720     22.592
REMARK  Name = 11883120
REMARK  8 active torsions:
REMARK  status: ('A' for Active; 'I' for Inactive)
REMARK    1  A    between atoms: O_3  and  C_16
REMARK    2  A    between atoms: O_4  and  C_21
REMARK    3  A    between atoms: C_11  and  C_19
REMARK    4  A    between atoms: C_13  and  C_21
REMARK    5  A    between atoms: C_13  and  C_22
REMARK    6  A    between atoms: C_14  and  C_24
REMARK    7  A    between atoms: C_24  and  C_25
REMARK    8  A    between atoms: C_31  and  C_32
REMARK                            x       y       z     vdW  Elec       q    Type
REMARK                         _______ _______ _______ _____ _____    ______ ____
ROOT
ATOM      1  S   UNL     1      11.235   3.939   2.143  0.00  0.00    -0.057 S 
ATOM      7  O   UNL     1       8.888   7.358   4.258  0.00  0.00    -0.270 OA
ATOM      8  N   UNL     1       9.896   6.119   1.768  0.00  0.00    -0.229 NA
ATOM     10  N   UNL     1      10.154   5.381   4.047  0.00  0.00    -0.261 N 
ATOM     11  C   UNL     1      10.845   5.907  -1.964  0.00  0.00    -0.019 C 
ATOM     12  C   UNL     1      10.889   4.316  -1.943  0.00  0.00    +0.011 C 
ATOM     13  C   UNL     1      11.371   3.596  -3.261  0.00  0.00    +0.021 C 
ATOM     14  C   UNL     1       9.940   6.392  -0.740  0.00  0.00    +0.054 C 
ATOM     15  C   UNL     1      10.185   6.388  -3.282  0.00  0.00    +0.010 C 
ATOM     16  C   UNL     1      10.649   4.227  -4.484  0.00  0.00    +0.123 C 
ATOM     17  C   UNL     1      11.573   3.782  -0.650  0.00  0.00    +0.049 C 
ATOM     18  C   UNL     1      10.768   5.747  -4.533  0.00  0.00    +0.032 C 
ATOM     19  C   UNL     1      12.250   6.548  -1.849  0.00  0.00    +0.012 C 
ATOM     20  C   UNL     1      10.307   5.665   0.528  0.00  0.00    +0.058 A 
ATOM     22  C   UNL     1      10.956   2.098  -3.202  0.00  0.00    +0.016 C 
ATOM     23  C   UNL     1      11.025   4.487   0.544  0.00  0.00    +0.015 A 
ATOM     26  C   UNL     1      10.334   5.293   2.692  0.00  0.00    +0.165 A 
ATOM     31  C   UNL     1       9.457   6.385   4.739  0.00  0.00    +0.250 C 
ATOM     40  H   UNL     1      10.547   4.596   4.557  0.00  0.00    +0.157 HD
ENDROOT
BRANCH  31  32
ATOM      2  F   UNL     1       9.978   3.646   8.690  0.00  0.00    -0.205 F 
ATOM     32  C   UNL     1       9.394   6.213   6.215  0.00  0.00    +0.040 A 
ATOM     33  C   UNL     1       9.723   4.987   6.756  0.00  0.00    +0.051 A 
ATOM     34  C   UNL     1       9.009   7.284   6.993  0.00  0.00    +0.013 A 
ATOM     35  C   UNL     1       9.665   4.826   8.139  0.00  0.00    +0.124 A 
ATOM     36  C   UNL     1       8.951   7.121   8.378  0.00  0.00    +0.004 A 
ATOM     37  C   UNL     1       9.279   5.893   8.951  0.00  0.00    +0.038 A 
ENDBRANCH  31  32
BRANCH  16   3
ATOM      3  O   UNL     1      11.158   3.687  -5.703  0.00  0.00    -0.391 OA
ATOM     38  H   UNL     1      11.807   4.313  -6.062  0.00  0.00    +0.210 HD
ENDBRANCH  16   3
BRANCH  13  21
ATOM     21  C   UNL     1      12.902   3.594  -3.467  0.00  0.00    +0.165 C 
BRANCH  21   4
ATOM      4  O   UNL     1      13.241   2.422  -4.173  0.00  0.00    -0.394 OA
ATOM     39  H   UNL     1      14.189   2.254  -4.041  0.00  0.00    +0.209 HD
ENDBRANCH  21   4
ENDBRANCH  13  21
BRANCH  14  24
ATOM     24  C   UNL     1       9.912   7.912  -0.529  0.00  0.00    +0.106 C 
BRANCH  24  25
ATOM      5  O   UNL     1       7.959   8.066  -1.865  0.00  0.00    -0.276 OA
ATOM      6  O   UNL     1       6.333  10.704   1.892  0.00  0.00    -0.377 OA
ATOM      9  N   UNL     1       8.001   9.356   0.065  0.00  0.00    -0.297 N 
ATOM     25  C   UNL     1       8.538   8.447  -0.845  0.00  0.00    +0.216 C 
ATOM     27  C   UNL     1       8.380   9.472   1.477  0.00  0.00    +0.136 C 
ATOM     28  C   UNL     1       7.069  10.387  -0.393  0.00  0.00    +0.136 C 
ATOM     29  C   UNL     1       7.138   9.614   2.346  0.00  0.00    +0.179 C 
ATOM     30  C   UNL     1       5.881  10.486   0.553  0.00  0.00    +0.179 C 
ENDBRANCH  24  25
ENDBRANCH  14  24
TORSDOF 6
ENDMDL
MODEL 5
REMARK VINA RESULT:      -7.0      3.555      9.646
REMARK  Name = 11883120
REMARK  8 active torsions:
REMARK  status: ('A' for Active; 'I' for Inactive)
REMARK    1  A    between atoms: O_3  and  C_16
REMARK    2  A    between atoms: O_4  and  C_21
REMARK    3  A    between atoms: C_11  and  C_19
REMARK    4  A    between atoms: C_13  and  C_21
REMARK    5  A    between atoms: C_13  and  C_22
REMARK    6  A    between atoms: C_14  and  C_24
REMARK    7  A    between atoms: C_24  and  C_25
REMARK    8  A    between atoms: C_31  and  C_32
REMARK                            x       y       z     vdW  Elec       q    Type
REMARK                         _______ _______ _______ _____ _____    ______ ____
ROOT
ATOM      1  S   UNL     1      18.466   9.485  21.966  0.00  0.00    -0.057 S 
ATOM      7  O   UNL     1      17.012   5.932  19.332  0.00  0.00    -0.270 OA
ATOM      8  N   UNL     1      19.140   7.207  20.943  0.00  0.00    -0.229 NA
ATOM     10  N   UNL     1      16.913   7.995  20.468  0.00  0.00    -0.261 N 
ATOM     11  C   UNL     1      22.708   7.811  22.277  0.00  0.00    -0.019 C 
ATOM     12  C   UNL     1      22.184   8.648  23.526  0.00  0.00    +0.011 C 
ATOM     13  C   UNL     1      23.275   9.310  24.452  0.00  0.00    +0.021 C 
ATOM     14  C   UNL     1      21.507   6.893  21.759  0.00  0.00    +0.054 C 
ATOM     15  C   UNL     1      23.870   6.888  22.725  0.00  0.00    +0.010 C 
ATOM     16  C   UNL     1      24.384   8.267  24.766  0.00  0.00    +0.123 C 
ATOM     17  C   UNL     1      21.033   9.615  23.121  0.00  0.00    +0.049 C 
ATOM     18  C   UNL     1      24.955   7.604  23.517  0.00  0.00    +0.032 C 
ATOM     19  C   UNL     1      23.204   8.709  21.118  0.00  0.00    +0.012 C 
ATOM     20  C   UNL     1      20.227   7.683  21.654  0.00  0.00    +0.058 A 
ATOM     22  C   UNL     1      22.618   9.709  25.804  0.00  0.00    +0.016 C 
ATOM     23  C   UNL     1      20.030   8.892  22.286  0.00  0.00    +0.015 A 
ATOM     26  C   UNL     1      18.158   8.077  21.032  0.00  0.00    +0.165 A 
ATOM     31  C   UNL     1      16.419   6.951  19.669  0.00  0.00    +0.250 C 
ATOM     40  H   UNL     1      16.306   8.770  20.717  0.00  0.00    +0.157 HD
ENDROOT
BRANCH  31  32
ATOM      2  F   UNL     1      11.664   6.664  20.496  0.00  0.00    -0.205 F 
ATOM     32  C   UNL     1      15.012   7.109  19.213  0.00  0.00    +0.040 A 
ATOM     33  C   UNL     1      13.992   6.805  20.091  0.00  0.00    +0.051 A 
ATOM     34  C   UNL     1      14.775   7.555  17.931  0.00  0.00    +0.013 A 
ATOM     35  C   UNL     1      12.673   6.953  19.665  0.00  0.00    +0.124 A 
ATOM     36  C   UNL     1      13.454   7.703  17.505  0.00  0.00    +0.004 A 
ATOM     37  C   UNL     1      12.404   7.403  18.372  0.00  0.00    +0.038 A 
ENDBRANCH  31  32
BRANCH  16   3
ATOM      3  O   UNL     1      25.451   8.871  25.495  0.00  0.00    -0.391 OA
ATOM     38  H   UNL     1      25.064   9.450  26.172  0.00  0.00    +0.210 HD
ENDBRANCH  16   3
BRANCH  13  21
ATOM     21  C   UNL     1      23.888  10.612  23.889  0.00  0.00    +0.165 C 
BRANCH  21   4
ATOM      4  O   UNL     1      24.159  11.466  24.977  0.00  0.00    -0.394 OA
ATOM     39  H   UNL     1      24.122  10.939  25.792  0.00  0.00    +0.209 HD
ENDBRANCH  21   4
ENDBRANCH  13  21
BRANCH  14  24
ATOM     24  C   UNL     1      21.803   6.125  20.464  0.00  0.00    +0.106 C 
BRANCH  24  25
ATOM      5  O   UNL     1      20.668   4.080  20.848  0.00  0.00    -0.276 OA
ATOM      6  O   UNL     1      25.153   2.220  20.464  0.00  0.00    -0.377 OA
ATOM      9  N   UNL     1      22.987   3.989  20.814  0.00  0.00    -0.297 N 
ATOM     25  C   UNL     1      21.759   4.641  20.727  0.00  0.00    +0.216 C 
ATOM     27  C   UNL     1      24.243   4.455  20.216  0.00  0.00    +0.136 C 
ATOM     28  C   UNL     1      23.129   2.803  21.659  0.00  0.00    +0.136 C 
ATOM     29  C   UNL     1      24.968   3.297  19.542  0.00  0.00    +0.179 C 
ATOM     30  C   UNL     1      23.896   1.714  20.921  0.00  0.00    +0.179 C 
ENDBRANCH  24  25
ENDBRANCH  14  24
TORSDOF 6
ENDMDL
MODEL 6
REMARK VINA RESULT:      -7.0     29.085     33.271
REMARK  Name = 11883120
REMARK  8 active torsions:
REMARK  status: ('A' for Active; 'I' for Inactive)
REMARK    1  A    between atoms: O_3  and  C_16
REMARK    2  A    between atoms: O_4  and  C_21
REMARK    3  A    between atoms: C_11  and  C_19
REMARK    4  A    between atoms: C_13  and  C_21
REMARK    5  A    between atoms: C_13  and  C_22
REMARK    6  A    between atoms: C_14  and  C_24
REMARK    7  A    between atoms: C_24  and  C_25
REMARK    8  A    between atoms: C_31  and  C_32
REMARK                            x       y       z     vdW  Elec       q    Type
REMARK                         _______ _______ _______ _____ _____    ______ ____
ROOT
ATOM      1  S   UNL     1     -12.869   5.102  22.415  0.00  0.00    -0.057 S 
ATOM      7  O   UNL     1     -16.872   5.287  24.784  0.00  0.00    -0.270 OA
ATOM      8  N   UNL     1     -14.992   6.511  22.857  0.00  0.00    -0.229 NA
ATOM     10  N   UNL     1     -14.808   4.421  24.044  0.00  0.00    -0.261 N 
ATOM     11  C   UNL     1     -13.435   9.297  20.693  0.00  0.00    -0.019 C 
ATOM     12  C   UNL     1     -12.650   8.257  19.778  0.00  0.00    +0.011 C 
ATOM     13  C   UNL     1     -11.669   8.852  18.696  0.00  0.00    +0.021 C 
ATOM     14  C   UNL     1     -14.655   8.528  21.379  0.00  0.00    +0.054 C 
ATOM     15  C   UNL     1     -14.009  10.433  19.807  0.00  0.00    +0.010 C 
ATOM     16  C   UNL     1     -12.384  10.004  17.934  0.00  0.00    +0.123 C 
ATOM     17  C   UNL     1     -12.027   7.110  20.627  0.00  0.00    +0.049 C 
ATOM     18  C   UNL     1     -12.989  11.052  18.862  0.00  0.00    +0.032 C 
ATOM     19  C   UNL     1     -12.541   9.926  21.790  0.00  0.00    +0.012 C 
ATOM     20  C   UNL     1     -14.210   7.207  21.953  0.00  0.00    +0.058 A 
ATOM     22  C   UNL     1     -11.332   7.748  17.655  0.00  0.00    +0.016 C 
ATOM     23  C   UNL     1     -13.037   6.581  21.588  0.00  0.00    +0.015 A 
ATOM     26  C   UNL     1     -14.381   5.391  23.176  0.00  0.00    +0.165 A 
ATOM     31  C   UNL     1     -16.003   4.422  24.782  0.00  0.00    +0.250 C 
ATOM     40  H   UNL     1     -14.185   3.621  24.091  0.00  0.00    +0.157 HD
ENDROOT
BRANCH  31  32
ATOM      2  F   UNL     1     -16.183   2.294  29.121  0.00  0.00    -0.205 F 
ATOM     32  C   UNL     1     -16.228   3.220  25.628  0.00  0.00    +0.040 A 
ATOM     33  C   UNL     1     -16.095   3.336  26.996  0.00  0.00    +0.051 A 
ATOM     34  C   UNL     1     -16.561   2.030  25.017  0.00  0.00    +0.013 A 
ATOM     35  C   UNL     1     -16.306   2.209  27.790  0.00  0.00    +0.124 A 
ATOM     36  C   UNL     1     -16.773   0.903  25.812  0.00  0.00    +0.004 A 
ATOM     37  C   UNL     1     -16.646   0.992  27.197  0.00  0.00    +0.038 A 
ENDBRANCH  31  32
BRANCH  16   3
ATOM      3  O   UNL     1     -11.481  10.649  17.037  0.00  0.00    -0.391 OA
ATOM     38  H   UNL     1     -10.996   9.962  16.552  0.00  0.00    +0.210 HD
ENDBRANCH  16   3
BRANCH  13  21
ATOM     21  C   UNL     1     -10.308   9.324  19.255  0.00  0.00    +0.165 C 
BRANCH  21   4
ATOM      4  O   UNL     1      -9.379   9.310  18.196  0.00  0.00    -0.394 OA
ATOM     39  H   UNL     1      -8.508   9.546  18.556  0.00  0.00    +0.209 HD
ENDBRANCH  21   4
ENDBRANCH  13  21
BRANCH  14  24
ATOM     24  C   UNL     1     -15.432   9.357  22.412  0.00  0.00    +0.106 C 
BRANCH  24  25
ATOM      5  O   UNL     1     -17.618   8.582  21.919  0.00  0.00    -0.276 OA
ATOM      6  O   UNL     1     -18.512  13.333  21.328  0.00  0.00    -0.377 OA
ATOM      9  N   UNL     1     -17.217  10.843  21.578  0.00  0.00    -0.297 N 
ATOM     25  C   UNL     1     -16.854   9.550  21.948  0.00  0.00    +0.216 C 
ATOM     27  C   UNL     1     -16.562  12.074  22.033  0.00  0.00    +0.136 C 
ATOM     28  C   UNL     1     -18.246  11.052  20.559  0.00  0.00    +0.136 C 
ATOM     29  C   UNL     1     -17.606  13.117  22.412  0.00  0.00    +0.179 C 
ATOM     30  C   UNL     1     -19.221  12.134  21.004  0.00  0.00    +0.179 C 
ENDBRANCH  24  25
ENDBRANCH  14  24
TORSDOF 6
ENDMDL
MODEL 7
REMARK VINA RESULT:      -6.9     15.821     18.703
REMARK  Name = 11883120
REMARK  8 active torsions:
REMARK  status: ('A' for Active; 'I' for Inactive)
REMARK    1  A    between atoms: O_3  and  C_16
REMARK    2  A    between atoms: O_4  and  C_21
REMARK    3  A    between atoms: C_11  and  C_19
REMARK    4  A    between atoms: C_13  and  C_21
REMARK    5  A    between atoms: C_13  and  C_22
REMARK    6  A    between atoms: C_14  and  C_24
REMARK    7  A    between atoms: C_24  and  C_25
REMARK    8  A    between atoms: C_31  and  C_32
REMARK                            x       y       z     vdW  Elec       q    Type
REMARK                         _______ _______ _______ _____ _____    ______ ____
ROOT
ATOM      1  S   UNL     1      16.170   7.420   1.868  0.00  0.00    -0.057 S 
ATOM      7  O   UNL     1      15.569   8.688   6.307  0.00  0.00    -0.270 OA
ATOM      8  N   UNL     1      14.471   7.535   3.815  0.00  0.00    -0.229 NA
ATOM     10  N   UNL     1      16.689   8.364   4.259  0.00  0.00    -0.261 N 
ATOM     11  C   UNL     1      11.761   6.333   1.348  0.00  0.00    -0.019 C 
ATOM     12  C   UNL     1      12.804   5.488   0.491  0.00  0.00    +0.011 C 
ATOM     13  C   UNL     1      12.265   4.806  -0.825  0.00  0.00    +0.021 C 
ATOM     14  C   UNL     1      12.380   6.548   2.805  0.00  0.00    +0.054 C 
ATOM     15  C   UNL     1      10.441   5.531   1.490  0.00  0.00    +0.010 C 
ATOM     16  C   UNL     1      10.920   4.090  -0.517  0.00  0.00    +0.123 C 
ATOM     17  C   UNL     1      14.139   6.265   0.293  0.00  0.00    +0.049 C 
ATOM     18  C   UNL     1       9.902   4.993   0.172  0.00  0.00    +0.032 C 
ATOM     19  C   UNL     1      11.441   7.710   0.716  0.00  0.00    +0.012 C 
ATOM     20  C   UNL     1      13.819   6.988   2.724  0.00  0.00    +0.058 A 
ATOM     22  C   UNL     1      13.275   3.716  -1.282  0.00  0.00    +0.016 C 
ATOM     23  C   UNL     1      14.595   6.835   1.593  0.00  0.00    +0.015 A 
ATOM     26  C   UNL     1      15.712   7.807   3.477  0.00  0.00    +0.165 A 
ATOM     31  C   UNL     1      16.567   8.764   5.599  0.00  0.00    +0.250 C 
ATOM     40  H   UNL     1      17.587   8.435   3.790  0.00  0.00    +0.157 HD
ENDROOT
BRANCH  31  32
ATOM      2  F   UNL     1      21.041   8.154   7.330  0.00  0.00    -0.205 F 
ATOM     32  C   UNL     1      17.805   9.313   6.215  0.00  0.00    +0.040 A 
ATOM     33  C   UNL     1      18.850   8.453   6.483  0.00  0.00    +0.051 A 
ATOM     34  C   UNL     1      17.867  10.660   6.496  0.00  0.00    +0.013 A 
ATOM     35  C   UNL     1      20.011   8.967   7.059  0.00  0.00    +0.124 A 
ATOM     36  C   UNL     1      19.029  11.174   7.073  0.00  0.00    +0.004 A 
ATOM     37  C   UNL     1      20.101  10.328   7.354  0.00  0.00    +0.038 A 
ENDBRANCH  31  32
BRANCH  16   3
ATOM      3  O   UNL     1      10.340   3.572  -1.713  0.00  0.00    -0.391 OA
ATOM     38  H   UNL     1       9.847   2.768  -1.485  0.00  0.00    +0.210 HD
ENDBRANCH  16   3
BRANCH  13  21
ATOM     21  C   UNL     1      12.115   5.764  -2.028  0.00  0.00    +0.165 C 
BRANCH  21   4
ATOM      4  O   UNL     1      12.389   5.031  -3.199  0.00  0.00    -0.394 OA
ATOM     39  H   UNL     1      12.405   5.651  -3.947  0.00  0.00    +0.209 HD
ENDBRANCH  21   4
ENDBRANCH  13  21
BRANCH  14  24
ATOM     24  C   UNL     1      11.559   7.471   3.716  0.00  0.00    +0.106 C 
BRANCH  24  25
ATOM      5  O   UNL     1      11.142   5.454   4.890  0.00  0.00    -0.276 OA
ATOM      6  O   UNL     1       9.042   8.464   8.092  0.00  0.00    -0.377 OA
ATOM      9  N   UNL     1      10.157   7.375   5.744  0.00  0.00    -0.297 N 
ATOM     25  C   UNL     1      10.937   6.669   4.831  0.00  0.00    +0.216 C 
ATOM     27  C   UNL     1      10.267   8.810   6.027  0.00  0.00    +0.136 C 
ATOM     28  C   UNL     1       9.039   6.715   6.418  0.00  0.00    +0.136 C 
ATOM     29  C   UNL     1      10.215   9.057   7.529  0.00  0.00    +0.179 C 
ATOM     30  C   UNL     1       9.043   7.046   7.903  0.00  0.00    +0.179 C 
ENDBRANCH  24  25
ENDBRANCH  14  24
TORSDOF 6
ENDMDL
MODEL 8
REMARK VINA RESULT:      -6.9     17.537     20.775
REMARK  Name = 11883120
REMARK  8 active torsions:
REMARK  status: ('A' for Active; 'I' for Inactive)
REMARK    1  A    between atoms: O_3  and  C_16
REMARK    2  A    between atoms: O_4  and  C_21
REMARK    3  A    between atoms: C_11  and  C_19
REMARK    4  A    between atoms: C_13  and  C_21
REMARK    5  A    between atoms: C_13  and  C_22
REMARK    6  A    between atoms: C_14  and  C_24
REMARK    7  A    between atoms: C_24  and  C_25
REMARK    8  A    between atoms: C_31  and  C_32
REMARK                            x       y       z     vdW  Elec       q    Type
REMARK                         _______ _______ _______ _____ _____    ______ ____
ROOT
ATOM      1  S   UNL     1      10.437   4.354   1.881  0.00  0.00    -0.057 S 
ATOM      7  O   UNL     1      12.228   6.813   5.404  0.00  0.00    -0.270 OA
ATOM      8  N   UNL     1      12.371   5.918   2.589  0.00  0.00    -0.229 NA
ATOM     10  N   UNL     1      10.728   5.391   4.272  0.00  0.00    -0.261 N 
ATOM     11  C   UNL     1      13.972   5.286  -0.862  0.00  0.00    -0.019 C 
ATOM     12  C   UNL     1      12.558   5.092  -1.570  0.00  0.00    +0.011 C 
ATOM     13  C   UNL     1      12.570   4.664  -3.088  0.00  0.00    +0.021 C 
ATOM     14  C   UNL     1      13.741   6.122   0.480  0.00  0.00    +0.054 C 
ATOM     15  C   UNL     1      14.907   6.103  -1.792  0.00  0.00    +0.010 C 
ATOM     16  C   UNL     1      13.589   5.547  -3.862  0.00  0.00    +0.123 C 
ATOM     17  C   UNL     1      11.591   4.250  -0.688  0.00  0.00    +0.049 C 
ATOM     18  C   UNL     1      14.971   5.575  -3.218  0.00  0.00    +0.032 C 
ATOM     19  C   UNL     1      14.661   3.943  -0.519  0.00  0.00    +0.012 C 
ATOM     20  C   UNL     1      12.574   5.577   1.264  0.00  0.00    +0.058 A 
ATOM     22  C   UNL     1      11.167   4.930  -3.701  0.00  0.00    +0.016 C 
ATOM     23  C   UNL     1      11.612   4.754   0.716  0.00  0.00    +0.015 A 
ATOM     26  C   UNL     1      11.279   5.325   3.019  0.00  0.00    +0.165 A 
ATOM     31  C   UNL     1      11.221   6.115   5.369  0.00  0.00    +0.250 C 
ATOM     40  H   UNL     1       9.852   4.884   4.353  0.00  0.00    +0.157 HD
ENDROOT
BRANCH  31  32
ATOM      2  F   UNL     1       9.385   3.566   9.044  0.00  0.00    -0.205 F 
ATOM     32  C   UNL     1      10.400   6.032   6.606  0.00  0.00    +0.040 A 
ATOM     33  C   UNL     1      10.283   4.815   7.245  0.00  0.00    +0.051 A 
ATOM     34  C   UNL     1       9.783   7.172   7.074  0.00  0.00    +0.013 A 
ATOM     35  C   UNL     1       9.515   4.735   8.405  0.00  0.00    +0.124 A 
ATOM     36  C   UNL     1       9.014   7.092   8.235  0.00  0.00    +0.004 A 
ATOM     37  C   UNL     1       8.879   5.875   8.900  0.00  0.00    +0.038 A 
ENDBRANCH  31  32
BRANCH  16   3
ATOM      3  O   UNL     1      13.719   5.100  -5.211  0.00  0.00    -0.391 OA
ATOM     38  H   UNL     1      13.025   5.528  -5.738  0.00  0.00    +0.210 HD
ENDBRANCH  16   3
BRANCH  13  21
ATOM     21  C   UNL     1      12.850   3.163  -3.327  0.00  0.00    +0.165 C 
BRANCH  21   4
ATOM      4  O   UNL     1      12.277   2.810  -4.565  0.00  0.00    -0.394 OA
ATOM     39  H   UNL     1      12.872   2.181  -5.005  0.00  0.00    +0.209 HD
ENDBRANCH  21   4
ENDBRANCH  13  21
BRANCH  14  24
ATOM     24  C   UNL     1      14.989   6.273   1.360  0.00  0.00    +0.106 C 
BRANCH  24  25
ATOM      5  O   UNL     1      14.928   8.576   0.802  0.00  0.00    -0.276 OA
ATOM      6  O   UNL     1      16.396   9.110   5.415  0.00  0.00    -0.377 OA
ATOM      9  N   UNL     1      15.822   8.034   2.874  0.00  0.00    -0.297 N 
ATOM     25  C   UNL     1      15.241   7.732   1.645  0.00  0.00    +0.216 C 
ATOM     27  C   UNL     1      15.765   7.190   4.073  0.00  0.00    +0.136 C 
ATOM     28  C   UNL     1      16.675   9.214   3.012  0.00  0.00    +0.136 C 
ATOM     29  C   UNL     1      15.457   8.038   5.300  0.00  0.00    +0.179 C 
ATOM     30  C   UNL     1      16.325   9.978   4.281  0.00  0.00    +0.179 C 
ENDBRANCH  24  25
ENDBRANCH  14  24
TORSDOF 6
ENDMDL
MODEL 9
REMARK VINA RESULT:      -6.9     22.918     26.594
REMARK  Name = 11883120
REMARK  8 active torsions:
REMARK  status: ('A' for Active; 'I' for Inactive)
REMARK    1  A    between atoms: O_3  and  C_16
REMARK    2  A    between atoms: O_4  and  C_21
REMARK    3  A    between atoms: C_11  and  C_19
REMARK    4  A    between atoms: C_13  and  C_21
REMARK    5  A    between atoms: C_13  and  C_22
REMARK    6  A    between atoms: C_14  and  C_24
REMARK    7  A    between atoms: C_24  and  C_25
REMARK    8  A    between atoms: C_31  and  C_32
REMARK                            x       y       z     vdW  Elec       q    Type
REMARK                         _______ _______ _______ _____ _____    ______ ____
ROOT
ATOM      1  S   UNL     1      -4.506  13.141  33.650  0.00  0.00    -0.057 S 
ATOM      7  O   UNL     1      -0.113  12.223  34.889  0.00  0.00    -0.270 OA
ATOM      8  N   UNL     1      -3.008  11.696  35.187  0.00  0.00    -0.229 NA
ATOM     10  N   UNL     1      -1.888  13.261  33.735  0.00  0.00    -0.261 N 
ATOM     11  C   UNL     1      -6.223  10.346  36.833  0.00  0.00    -0.019 C 
ATOM     12  C   UNL     1      -7.067  10.493  35.491  0.00  0.00    +0.011 C 
ATOM     13  C   UNL     1      -8.609  10.176  35.576  0.00  0.00    +0.021 C 
ATOM     14  C   UNL     1      -4.677  10.278  36.439  0.00  0.00    +0.054 C 
ATOM     15  C   UNL     1      -6.607   9.021  37.542  0.00  0.00    +0.010 C 
ATOM     16  C   UNL     1      -8.818   8.845  36.352  0.00  0.00    +0.123 C 
ATOM     17  C   UNL     1      -6.740  11.826  34.756  0.00  0.00    +0.049 C 
ATOM     18  C   UNL     1      -8.107   8.820  37.701  0.00  0.00    +0.032 C 
ATOM     19  C   UNL     1      -6.452  11.520  37.817  0.00  0.00    +0.012 C 
ATOM     20  C   UNL     1      -4.323  11.350  35.441  0.00  0.00    +0.058 A 
ATOM     22  C   UNL     1      -9.164   9.964  34.138  0.00  0.00    +0.016 C 
ATOM     23  C   UNL     1      -5.262  12.019  34.684  0.00  0.00    +0.015 A 
ATOM     26  C   UNL     1      -2.985  12.636  34.266  0.00  0.00    +0.165 A 
ATOM     31  C   UNL     1      -0.544  13.025  34.067  0.00  0.00    +0.250 C 
ATOM     40  H   UNL     1      -2.118  13.922  33.000  0.00  0.00    +0.157 HD
ENDROOT
BRANCH  31  32
ATOM      2  F   UNL     1       1.762  14.081  29.951  0.00  0.00    -0.205 F 
ATOM     32  C   UNL     1       0.449  13.830  33.307  0.00  0.00    +0.040 A 
ATOM     33  C   UNL     1       0.633  13.564  31.967  0.00  0.00    +0.051 A 
ATOM     34  C   UNL     1       1.152  14.815  33.968  0.00  0.00    +0.013 A 
ATOM     35  C   UNL     1       1.564  14.319  31.253  0.00  0.00    +0.124 A 
ATOM     36  C   UNL     1       2.083  15.570  33.254  0.00  0.00    +0.004 A 
ATOM     37  C   UNL     1       2.289  15.323  31.897  0.00  0.00    +0.038 A 
ENDBRANCH  31  32
BRANCH  16   3
ATOM      3  O   UNL     1     -10.207   8.596  36.559  0.00  0.00    -0.391 OA
ATOM     38  H   UNL     1     -10.551   8.137  35.775  0.00  0.00    +0.210 HD
ENDBRANCH  16   3
BRANCH  13  21
ATOM     21  C   UNL     1      -9.464  11.309  36.186  0.00  0.00    +0.165 C 
BRANCH  21   4
ATOM      4  O   UNL     1     -10.711  11.310  35.531  0.00  0.00    -0.394 OA
ATOM     39  H   UNL     1     -11.398  11.508  36.190  0.00  0.00    +0.209 HD
ENDBRANCH  21   4
ENDBRANCH  13  21
BRANCH  14  24
ATOM     24  C   UNL     1      -3.713  10.281  37.634  0.00  0.00    +0.106 C 
BRANCH  24  25
ATOM      5  O   UNL     1      -2.704   8.421  36.566  0.00  0.00    -0.276 OA
ATOM      6  O   UNL     1      -0.669   7.783  40.945  0.00  0.00    -0.377 OA
ATOM      9  N   UNL     1      -2.369   8.611  38.855  0.00  0.00    -0.297 N 
ATOM     25  C   UNL     1      -2.887   9.020  37.628  0.00  0.00    +0.216 C 
ATOM     27  C   UNL     1      -2.125   9.483  40.010  0.00  0.00    +0.136 C 
ATOM     28  C   UNL     1      -2.145   7.190  39.119  0.00  0.00    +0.136 C 
ATOM     29  C   UNL     1      -0.767   9.173  40.627  0.00  0.00    +0.179 C 
ATOM     30  C   UNL     1      -0.784   6.978  39.768  0.00  0.00    +0.179 C 
ENDBRANCH  24  25
ENDBRANCH  14  24
TORSDOF 6
ENDMDL
MODEL 10
REMARK VINA RESULT:      -6.7     17.587     21.835
REMARK  Name = 11883120
REMARK  8 active torsions:
REMARK  status: ('A' for Active; 'I' for Inactive)
REMARK    1  A    between atoms: O_3  and  C_16
REMARK    2  A    between atoms: O_4  and  C_21
REMARK    3  A    between atoms: C_11  and  C_19
REMARK    4  A    between atoms: C_13  and  C_21
REMARK    5  A    between atoms: C_13  and  C_22
REMARK    6  A    between atoms: C_14  and  C_24
REMARK    7  A    between atoms: C_24  and  C_25
REMARK    8  A    between atoms: C_31  and  C_32
REMARK                            x       y       z     vdW  Elec       q    Type
REMARK                         _______ _______ _______ _____ _____    ______ ____
ROOT
ATOM      1  S   UNL     1       9.481   7.880  -0.315  0.00  0.00    -0.057 S 
ATOM      7  O   UNL     1       7.894   8.825   3.958  0.00  0.00    -0.270 OA
ATOM      8  N   UNL     1       9.872   7.488   2.211  0.00  0.00    -0.229 NA
ATOM     10  N   UNL     1       7.986   8.861   1.603  0.00  0.00    -0.261 N 
ATOM     11  C   UNL     1      12.685   5.028   1.262  0.00  0.00    -0.019 C 
ATOM     12  C   UNL     1      13.041   5.825  -0.070  0.00  0.00    +0.011 C 
ATOM     13  C   UNL     1      14.127   5.187  -1.018  0.00  0.00    +0.021 C 
ATOM     14  C   UNL     1      11.931   6.030   2.251  0.00  0.00    +0.054 C 
ATOM     15  C   UNL     1      13.994   4.558   1.947  0.00  0.00    +0.010 C 
ATOM     16  C   UNL     1      15.346   4.731  -0.168  0.00  0.00    +0.123 C 
ATOM     17  C   UNL     1      11.755   6.293  -0.813  0.00  0.00    +0.049 C 
ATOM     18  C   UNL     1      14.958   3.844   1.011  0.00  0.00    +0.032 C 
ATOM     19  C   UNL     1      11.789   3.792   1.001  0.00  0.00    +0.012 C 
ATOM     20  C   UNL     1      10.858   6.802   1.526  0.00  0.00    +0.058 A 
ATOM     22  C   UNL     1      14.635   6.271  -2.010  0.00  0.00    +0.016 C 
ATOM     23  C   UNL     1      10.808   6.922   0.152  0.00  0.00    +0.015 A 
ATOM     26  C   UNL     1       9.086   8.087   1.343  0.00  0.00    +0.165 A 
ATOM     31  C   UNL     1       7.463   9.180   2.867  0.00  0.00    +0.250 C 
ATOM     40  H   UNL     1       7.566   9.256   0.768  0.00  0.00    +0.157 HD
ENDROOT
BRANCH  31  32
ATOM      2  F   UNL     1       4.224  11.916   5.190  0.00  0.00    -0.205 F 
ATOM     32  C   UNL     1       6.271  10.070   2.855  0.00  0.00    +0.040 A 
ATOM     33  C   UNL     1       5.810  10.577   4.052  0.00  0.00    +0.051 A 
ATOM     34  C   UNL     1       5.669  10.358   1.650  0.00  0.00    +0.013 A 
ATOM     35  C   UNL     1       4.693  11.411   4.042  0.00  0.00    +0.124 A 
ATOM     36  C   UNL     1       4.551  11.194   1.640  0.00  0.00    +0.004 A 
ATOM     37  C   UNL     1       4.064  11.720   2.835  0.00  0.00    +0.038 A 
ENDBRANCH  31  32
BRANCH  16   3
ATOM      3  O   UNL     1      16.291   4.032  -0.978  0.00  0.00    -0.391 OA
ATOM     38  H   UNL     1      16.912   3.575  -0.388  0.00  0.00    +0.210 HD
ENDBRANCH  16   3
BRANCH  13  21
ATOM     21  C   UNL     1      13.607   4.029  -1.900  0.00  0.00    +0.165 C 
BRANCH  21   4
ATOM      4  O   UNL     1      14.313   4.064  -3.118  0.00  0.00    -0.394 OA
ATOM     39  H   UNL     1      14.002   4.833  -3.625  0.00  0.00    +0.209 HD
ENDBRANCH  21   4
ENDBRANCH  13  21
BRANCH  14  24
ATOM     24  C   UNL     1      11.387   5.377   3.529  0.00  0.00    +0.106 C 
BRANCH  24  25
ATOM      5  O   UNL     1      12.670   6.991   4.700  0.00  0.00    -0.276 OA
ATOM      6  O   UNL     1       8.936   6.802   7.823  0.00  0.00    -0.377 OA
ATOM      9  N   UNL     1      10.776   6.190   5.777  0.00  0.00    -0.297 N 
ATOM     25  C   UNL     1      11.676   6.260   4.717  0.00  0.00    +0.216 C 
ATOM     27  C   UNL     1       9.378   5.754   5.680  0.00  0.00    +0.136 C 
ATOM     28  C   UNL     1      11.232   6.439   7.145  0.00  0.00    +0.136 C 
ATOM     29  C   UNL     1       8.477   6.692   6.473  0.00  0.00    +0.179 C 
ATOM     30  C   UNL     1      10.256   7.352   7.873  0.00  0.00    +0.179 C 
ENDBRANCH  24  25
ENDBRANCH  14  24
TORSDOF 6
ENDMDL
