MODEL 1
REMARK VINA RESULT:      -5.9      0.000      0.000
REMARK  Name = 38026726
REMARK  13 active torsions:
REMARK  status: ('A' for Active; 'I' for Inactive)
REMARK    1  A    between atoms: S_1  and  N_9
REMARK    2  A    between atoms: S_1  and  C_19
REMARK    3  A    between atoms: O_3  and  C_12
REMARK    4  A    between atoms: O_4  and  C_15
REMARK    5  A    between atoms: O_7  and  C_29
REMARK    6  A    between atoms: O_7  and  C_30
REMARK    7  A    between atoms: N_8  and  C_10
REMARK    8  A    between atoms: N_8  and  C_16
REMARK    9  A    between atoms: N_8  and  C_17
REMARK   10  A    between atoms: N_9  and  C_14
REMARK   11  A    between atoms: C_11  and  C_14
REMARK   12  A    between atoms: C_13  and  C_15
REMARK   13  A    between atoms: C_16  and  C_18
REMARK                            x       y       z     vdW  Elec       q    Type
REMARK                         _______ _______ _______ _____ _____    ______ ____
ROOT
ATOM      2  O   UNL     1      -5.531 -10.285  18.441  0.00  0.00    -0.366 OA
ATOM     10  C   UNL     1      -4.367 -11.573  16.811  0.00  0.00    +0.118 C 
ATOM     11  C   UNL     1      -4.878 -10.168  17.157  0.00  0.00    +0.154 C 
ATOM     12  C   UNL     1      -5.312 -12.481  17.582  0.00  0.00    +0.165 C 
ATOM     13  C   UNL     1      -5.510 -11.665  18.855  0.00  0.00    +0.174 C 
ENDROOT
BRANCH  12   3
ATOM      3  O   UNL     1      -6.550 -12.644  16.901  0.00  0.00    -0.388 OA
ATOM     31  H   UNL     1      -7.001 -13.411  17.291  0.00  0.00    +0.210 HD
ENDBRANCH  12   3
BRANCH  10   8
ATOM      8  N   UNL     1      -4.232 -11.876  15.397  0.00  0.00    -0.293 NA
ATOM     17  C   UNL     1      -4.095 -13.320  15.184  0.00  0.00    +0.105 C 
BRANCH   8  16
ATOM     16  C   UNL     1      -3.082 -11.173  14.820  0.00  0.00    +0.119 C 
BRANCH  16  18
ATOM     18  C   UNL     1      -3.356 -10.713  13.412  0.00  0.00    -0.033 A 
ATOM     20  C   UNL     1      -4.660 -10.415  13.017  0.00  0.00    +0.005 A 
ATOM     21  C   UNL     1      -2.306 -10.585  12.503  0.00  0.00    +0.005 A 
ATOM     22  C   UNL     1      -4.914  -9.989  11.714  0.00  0.00    +0.000 A 
ATOM     23  C   UNL     1      -2.560 -10.158  11.200  0.00  0.00    +0.000 A 
ATOM     26  C   UNL     1      -3.864  -9.860  10.804  0.00  0.00    +0.000 A 
ENDBRANCH  16  18
ENDBRANCH   8  16
ENDBRANCH  10   8
BRANCH  11  14
ATOM     14  C   UNL     1      -5.885  -9.551  16.193  0.00  0.00    +0.139 C 
BRANCH  14   9
ATOM      9  N   UNL     1      -7.178  -9.378  16.880  0.00  0.00    -0.187 NA
ATOM     32  H   UNL     1      -7.321  -8.469  17.339  0.00  0.00    +0.148 HD
BRANCH   9   1
ATOM      1  S   UNL     1      -8.552 -10.227  16.342  0.00  0.00    +0.058 S 
ATOM      5  O   UNL     1      -9.086 -11.017  17.435  0.00  0.00    -0.153 OA
ATOM      6  O   UNL     1      -8.253 -10.851  15.067  0.00  0.00    -0.153 OA
BRANCH   1  19
ATOM     19  C   UNL     1      -9.686  -8.909  16.019  0.00  0.00    +0.105 A 
ATOM     24  C   UNL     1      -9.925  -7.941  16.993  0.00  0.00    +0.032 A 
ATOM     25  C   UNL     1     -10.341  -8.839  14.789  0.00  0.00    +0.032 A 
ATOM     27  C   UNL     1     -10.820  -6.901  16.737  0.00  0.00    +0.047 A 
ATOM     28  C   UNL     1     -11.235  -7.799  14.534  0.00  0.00    +0.047 A 
ATOM     29  C   UNL     1     -11.475  -6.831  15.508  0.00  0.00    +0.120 A 
BRANCH  29   7
ATOM      7  O   UNL     1     -12.349  -5.817  15.260  0.00  0.00    -0.495 OA
ATOM     30  C   UNL     1     -12.365  -5.283  13.937  0.00  0.00    +0.277 C 
ENDBRANCH  29   7
ENDBRANCH   1  19
ENDBRANCH   9   1
ENDBRANCH  14   9
ENDBRANCH  11  14
BRANCH  13  15
ATOM     15  C   UNL     1      -6.774 -11.973  19.638  0.00  0.00    +0.190 C 
BRANCH  15   4
ATOM      4  O   UNL     1      -7.473 -10.761  19.874  0.00  0.00    -0.392 OA
ATOM     33  H   UNL     1      -7.712 -10.750  20.817  0.00  0.00    +0.210 HD
ENDBRANCH  15   4
ENDBRANCH  13  15
TORSDOF 11
ENDMDL
MODEL 2
REMARK VINA RESULT:      -5.5     25.170     28.434
REMARK  Name = 38026726
REMARK  13 active torsions:
REMARK  status: ('A' for Active; 'I' for Inactive)
REMARK    1  A    between atoms: S_1  and  N_9
REMARK    2  A    between atoms: S_1  and  C_19
REMARK    3  A    between atoms: O_3  and  C_12
REMARK    4  A    between atoms: O_4  and  C_15
REMARK    5  A    between atoms: O_7  and  C_29
REMARK    6  A    between atoms: O_7  and  C_30
REMARK    7  A    between atoms: N_8  and  C_10
REMARK    8  A    between atoms: N_8  and  C_16
REMARK    9  A    between atoms: N_8  and  C_17
REMARK   10  A    between atoms: N_9  and  C_14
REMARK   11  A    between atoms: C_11  and  C_14
REMARK   12  A    between atoms: C_13  and  C_15
REMARK   13  A    between atoms: C_16  and  C_18
REMARK                            x       y       z     vdW  Elec       q    Type
REMARK                         _______ _______ _______ _____ _____    ______ ____
ROOT
ATOM      2  O   UNL     1       9.294   5.414   6.375  0.00  0.00    -0.366 OA
ATOM     10  C   UNL     1      10.795   7.252   6.181  0.00  0.00    +0.118 C 
ATOM     11  C   UNL     1      10.073   6.144   5.402  0.00  0.00    +0.154 C 
ATOM     12  C   UNL     1      10.889   6.677   7.585  0.00  0.00    +0.165 C 
ATOM     13  C   UNL     1       9.550   5.956   7.686  0.00  0.00    +0.174 C 
ENDROOT
BRANCH  12   3
ATOM      3  O   UNL     1      11.961   5.748   7.697  0.00  0.00    -0.388 OA
ATOM     31  H   UNL     1      12.683   6.189   8.174  0.00  0.00    +0.210 HD
ENDBRANCH  12   3
BRANCH  10   8
ATOM      8  N   UNL     1      12.048   7.720   5.617  0.00  0.00    -0.293 NA
ATOM     17  C   UNL     1      12.707   8.665   6.524  0.00  0.00    +0.105 C 
BRANCH   8  16
ATOM     16  C   UNL     1      11.831   8.348   4.310  0.00  0.00    +0.119 C 
BRANCH  16  18
ATOM     18  C   UNL     1      13.080   8.337   3.468  0.00  0.00    -0.033 A 
ATOM     20  C   UNL     1      13.263   9.305   2.481  0.00  0.00    +0.005 A 
ATOM     21  C   UNL     1      14.052   7.359   3.675  0.00  0.00    +0.005 A 
ATOM     22  C   UNL     1      14.419   9.296   1.702  0.00  0.00    +0.000 A 
ATOM     23  C   UNL     1      15.209   7.350   2.896  0.00  0.00    +0.000 A 
ATOM     26  C   UNL     1      15.393   8.318   1.909  0.00  0.00    +0.000 A 
ENDBRANCH  16  18
ENDBRANCH   8  16
ENDBRANCH  10   8
BRANCH  11  14
ATOM     14  C   UNL     1      10.954   5.133   4.678  0.00  0.00    +0.139 C 
BRANCH  14   9
ATOM      9  N   UNL     1      10.886   5.377   3.226  0.00  0.00    -0.187 NA
ATOM     32  H   UNL     1      11.188   6.309   2.916  0.00  0.00    +0.148 HD
BRANCH   9   1
ATOM      1  S   UNL     1      11.046   4.081   2.133  0.00  0.00    +0.058 S 
ATOM      5  O   UNL     1      10.011   4.178   1.120  0.00  0.00    -0.153 OA
ATOM      6  O   UNL     1      11.222   2.851   2.880  0.00  0.00    -0.153 OA
BRANCH   1  19
ATOM     19  C   UNL     1      12.595   4.446   1.364  0.00  0.00    +0.105 A 
ATOM     24  C   UNL     1      12.689   5.490   0.445  0.00  0.00    +0.032 A 
ATOM     25  C   UNL     1      13.724   3.689   1.678  0.00  0.00    +0.032 A 
ATOM     27  C   UNL     1      13.912   5.777  -0.161  0.00  0.00    +0.047 A 
ATOM     28  C   UNL     1      14.947   3.977   1.072  0.00  0.00    +0.047 A 
ATOM     29  C   UNL     1      15.041   5.021   0.152  0.00  0.00    +0.120 A 
BRANCH  29   7
ATOM      7  O   UNL     1      16.234   5.301  -0.441  0.00  0.00    -0.495 OA
ATOM     30  C   UNL     1      16.826   4.270  -1.228  0.00  0.00    +0.277 C 
ENDBRANCH  29   7
ENDBRANCH   1  19
ENDBRANCH   9   1
ENDBRANCH  14   9
ENDBRANCH  11  14
BRANCH  13  15
ATOM     15  C   UNL     1       9.484   4.839   8.712  0.00  0.00    +0.190 C 
BRANCH  15   4
ATOM      4  O   UNL     1      10.251   3.741   8.244  0.00  0.00    -0.392 OA
ATOM     33  H   UNL     1      11.104   4.098   7.943  0.00  0.00    +0.210 HD
ENDBRANCH  15   4
ENDBRANCH  13  15
TORSDOF 11
ENDMDL
MODEL 3
REMARK VINA RESULT:      -5.5     16.912     20.333
REMARK  Name = 38026726
REMARK  13 active torsions:
REMARK  status: ('A' for Active; 'I' for Inactive)
REMARK    1  A    between atoms: S_1  and  N_9
REMARK    2  A    between atoms: S_1  and  C_19
REMARK    3  A    between atoms: O_3  and  C_12
REMARK    4  A    between atoms: O_4  and  C_15
REMARK    5  A    between atoms: O_7  and  C_29
REMARK    6  A    between atoms: O_7  and  C_30
REMARK    7  A    between atoms: N_8  and  C_10
REMARK    8  A    between atoms: N_8  and  C_16
REMARK    9  A    between atoms: N_8  and  C_17
REMARK   10  A    between atoms: N_9  and  C_14
REMARK   11  A    between atoms: C_11  and  C_14
REMARK   12  A    between atoms: C_13  and  C_15
REMARK   13  A    between atoms: C_16  and  C_18
REMARK                            x       y       z     vdW  Elec       q    Type
REMARK                         _______ _______ _______ _____ _____    ______ ____
ROOT
ATOM      2  O   UNL     1      -1.499 -13.803  -3.685  0.00  0.00    -0.366 OA
ATOM     10  C   UNL     1       0.735 -14.349  -4.302  0.00  0.00    +0.118 C 
ATOM     11  C   UNL     1      -0.284 -14.378  -3.155  0.00  0.00    +0.154 C 
ATOM     12  C   UNL     1       0.247 -13.197  -5.165  0.00  0.00    +0.165 C 
ATOM     13  C   UNL     1      -1.263 -13.370  -5.039  0.00  0.00    +0.174 C 
ENDROOT
BRANCH  12   3
ATOM      3  O   UNL     1       0.647 -11.940  -4.632  0.00  0.00    -0.388 OA
ATOM     31  H   UNL     1       1.391 -12.101  -4.028  0.00  0.00    +0.210 HD
ENDBRANCH  12   3
BRANCH  10   8
ATOM      8  N   UNL     1       2.134 -14.286  -3.916  0.00  0.00    -0.293 NA
ATOM     17  C   UNL     1       2.985 -14.028  -5.082  0.00  0.00    +0.105 C 
BRANCH   8  16
ATOM     16  C   UNL     1       2.550 -15.526  -3.255  0.00  0.00    +0.119 C 
BRANCH  16  18
ATOM     18  C   UNL     1       3.493 -15.263  -2.111  0.00  0.00    -0.033 A 
ATOM     20  C   UNL     1       4.394 -16.249  -1.709  0.00  0.00    +0.005 A 
ATOM     21  C   UNL     1       3.466 -14.033  -1.454  0.00  0.00    +0.005 A 
ATOM     22  C   UNL     1       5.268 -16.005  -0.650  0.00  0.00    +0.000 A 
ATOM     23  C   UNL     1       4.341 -13.789  -0.395  0.00  0.00    +0.000 A 
ATOM     26  C   UNL     1       5.242 -14.775   0.008  0.00  0.00    +0.000 A 
ENDBRANCH  16  18
ENDBRANCH   8  16
ENDBRANCH  10   8
BRANCH  11  14
ATOM     14  C   UNL     1       0.078 -13.591  -1.900  0.00  0.00    +0.139 C 
BRANCH  14   9
ATOM      9  N   UNL     1      -1.157 -13.177  -1.209  0.00  0.00    -0.187 NA
ATOM     32  H   UNL     1      -1.844 -12.676  -1.787  0.00  0.00    +0.148 HD
BRANCH   9   1
ATOM      1  S   UNL     1      -1.730 -14.068   0.123  0.00  0.00    +0.058 S 
ATOM      5  O   UNL     1      -2.613 -15.119  -0.347  0.00  0.00    -0.153 OA
ATOM      6  O   UNL     1      -2.175 -13.147   1.152  0.00  0.00    -0.153 OA
BRANCH   1  19
ATOM     19  C   UNL     1      -0.248 -14.828   0.715  0.00  0.00    +0.105 A 
ATOM     24  C   UNL     1       0.094 -16.112   0.293  0.00  0.00    +0.032 A 
ATOM     25  C   UNL     1       0.580 -14.142   1.604  0.00  0.00    +0.032 A 
ATOM     27  C   UNL     1       1.264 -16.710   0.760  0.00  0.00    +0.047 A 
ATOM     28  C   UNL     1       1.750 -14.741   2.071  0.00  0.00    +0.047 A 
ATOM     29  C   UNL     1       2.092 -16.025   1.649  0.00  0.00    +0.120 A 
BRANCH  29   7
ATOM      7  O   UNL     1       3.233 -16.610   2.105  0.00  0.00    -0.495 OA
ATOM     30  C   UNL     1       3.124 -17.422   3.273  0.00  0.00    +0.277 C 
ENDBRANCH  29   7
ENDBRANCH   1  19
ENDBRANCH   9   1
ENDBRANCH  14   9
ENDBRANCH  11  14
BRANCH  13  15
ATOM     15  C   UNL     1      -2.089 -12.128  -5.319  0.00  0.00    +0.190 C 
BRANCH  15   4
ATOM      4  O   UNL     1      -3.324 -12.233  -4.628  0.00  0.00    -0.392 OA
ATOM     33  H   UNL     1      -3.122 -12.552  -3.732  0.00  0.00    +0.210 HD
ENDBRANCH  15   4
ENDBRANCH  13  15
TORSDOF 11
ENDMDL
MODEL 4
REMARK VINA RESULT:      -5.4     18.160     19.234
REMARK  Name = 38026726
REMARK  13 active torsions:
REMARK  status: ('A' for Active; 'I' for Inactive)
REMARK    1  A    between atoms: S_1  and  N_9
REMARK    2  A    between atoms: S_1  and  C_19
REMARK    3  A    between atoms: O_3  and  C_12
REMARK    4  A    between atoms: O_4  and  C_15
REMARK    5  A    between atoms: O_7  and  C_29
REMARK    6  A    between atoms: O_7  and  C_30
REMARK    7  A    between atoms: N_8  and  C_10
REMARK    8  A    between atoms: N_8  and  C_16
REMARK    9  A    between atoms: N_8  and  C_17
REMARK   10  A    between atoms: N_9  and  C_14
REMARK   11  A    between atoms: C_11  and  C_14
REMARK   12  A    between atoms: C_13  and  C_15
REMARK   13  A    between atoms: C_16  and  C_18
REMARK                            x       y       z     vdW  Elec       q    Type
REMARK                         _______ _______ _______ _____ _____    ______ ____
ROOT
ATOM      2  O   UNL     1     -16.315   5.638  22.649  0.00  0.00    -0.366 OA
ATOM     10  C   UNL     1     -14.226   6.567  21.984  0.00  0.00    +0.118 C 
ATOM     11  C   UNL     1     -15.716   6.472  21.632  0.00  0.00    +0.154 C 
ATOM     12  C   UNL     1     -13.976   5.288  22.767  0.00  0.00    +0.165 C 
ATOM     13  C   UNL     1     -15.284   5.172  23.541  0.00  0.00    +0.174 C 
ENDROOT
BRANCH  12   3
ATOM      3  O   UNL     1     -13.813   4.171  21.901  0.00  0.00    -0.388 OA
ATOM     31  H   UNL     1     -12.884   4.156  21.613  0.00  0.00    +0.210 HD
ENDBRANCH  12   3
BRANCH  10   8
ATOM      8  N   UNL     1     -13.318   6.803  20.875  0.00  0.00    -0.293 NA
ATOM     17  C   UNL     1     -11.971   6.319  21.193  0.00  0.00    +0.105 C 
BRANCH   8  16
ATOM     16  C   UNL     1     -13.272   8.228  20.532  0.00  0.00    +0.119 C 
BRANCH  16  18
ATOM     18  C   UNL     1     -12.168   8.533  19.554  0.00  0.00    -0.033 A 
ATOM     20  C   UNL     1     -11.209   9.498  19.864  0.00  0.00    +0.005 A 
ATOM     21  C   UNL     1     -12.104   7.852  18.339  0.00  0.00    +0.005 A 
ATOM     22  C   UNL     1     -10.187   9.781  18.959  0.00  0.00    +0.000 A 
ATOM     23  C   UNL     1     -11.080   8.135  17.435  0.00  0.00    +0.000 A 
ATOM     26  C   UNL     1     -10.121   9.099  17.744  0.00  0.00    +0.000 A 
ENDBRANCH  16  18
ENDBRANCH   8  16
ENDBRANCH  10   8
BRANCH  11  14
ATOM     14  C   UNL     1     -16.060   5.854  20.281  0.00  0.00    +0.139 C 
BRANCH  14   9
ATOM      9  N   UNL     1     -16.307   6.927  19.301  0.00  0.00    -0.187 NA
ATOM     32  H   UNL     1     -15.514   7.555  19.119  0.00  0.00    +0.148 HD
BRANCH   9   1
ATOM      1  S   UNL     1     -17.452   6.705  18.060  0.00  0.00    +0.058 S 
ATOM      5  O   UNL     1     -18.424   7.781  18.107  0.00  0.00    -0.153 OA
ATOM      6  O   UNL     1     -17.892   5.323  18.065  0.00  0.00    -0.153 OA
BRANCH   1  19
ATOM     19  C   UNL     1     -16.462   6.927  16.612  0.00  0.00    +0.105 A 
ATOM     24  C   UNL     1     -16.772   6.235  15.443  0.00  0.00    +0.032 A 
ATOM     25  C   UNL     1     -15.371   7.796  16.640  0.00  0.00    +0.032 A 
ATOM     27  C   UNL     1     -15.991   6.411  14.300  0.00  0.00    +0.047 A 
ATOM     28  C   UNL     1     -14.590   7.971  15.498  0.00  0.00    +0.047 A 
ATOM     29  C   UNL     1     -14.900   7.279  14.328  0.00  0.00    +0.120 A 
BRANCH  29   7
ATOM      7  O   UNL     1     -14.137   7.449  13.214  0.00  0.00    -0.495 OA
ATOM     30  C   UNL     1     -12.852   8.042  13.391  0.00  0.00    +0.277 C 
ENDBRANCH  29   7
ENDBRANCH   1  19
ENDBRANCH   9   1
ENDBRANCH  14   9
ENDBRANCH  11  14
BRANCH  13  15
ATOM     15  C   UNL     1     -15.635   3.777  24.026  0.00  0.00    +0.190 C 
BRANCH  15   4
ATOM      4  O   UNL     1     -16.019   2.988  22.912  0.00  0.00    -0.392 OA
ATOM     33  H   UNL     1     -16.419   3.590  22.261  0.00  0.00    +0.210 HD
ENDBRANCH  15   4
ENDBRANCH  13  15
TORSDOF 11
ENDMDL
MODEL 5
REMARK VINA RESULT:      -5.4      1.892      2.920
REMARK  Name = 38026726
REMARK  13 active torsions:
REMARK  status: ('A' for Active; 'I' for Inactive)
REMARK    1  A    between atoms: S_1  and  N_9
REMARK    2  A    between atoms: S_1  and  C_19
REMARK    3  A    between atoms: O_3  and  C_12
REMARK    4  A    between atoms: O_4  and  C_15
REMARK    5  A    between atoms: O_7  and  C_29
REMARK    6  A    between atoms: O_7  and  C_30
REMARK    7  A    between atoms: N_8  and  C_10
REMARK    8  A    between atoms: N_8  and  C_16
REMARK    9  A    between atoms: N_8  and  C_17
REMARK   10  A    between atoms: N_9  and  C_14
REMARK   11  A    between atoms: C_11  and  C_14
REMARK   12  A    between atoms: C_13  and  C_15
REMARK   13  A    between atoms: C_16  and  C_18
REMARK                            x       y       z     vdW  Elec       q    Type
REMARK                         _______ _______ _______ _____ _____    ______ ____
ROOT
ATOM      2  O   UNL     1      -5.372 -10.220  18.383  0.00  0.00    -0.366 OA
ATOM     10  C   UNL     1      -4.276 -11.625  16.804  0.00  0.00    +0.118 C 
ATOM     11  C   UNL     1      -4.762 -10.196  17.073  0.00  0.00    +0.154 C 
ATOM     12  C   UNL     1      -5.202 -12.470  17.665  0.00  0.00    +0.165 C 
ATOM     13  C   UNL     1      -5.349 -11.570  18.887  0.00  0.00    +0.174 C 
ENDROOT
BRANCH  12   3
ATOM      3  O   UNL     1      -6.464 -12.664  17.038  0.00  0.00    -0.388 OA
ATOM     31  H   UNL     1      -6.297 -12.985  16.136  0.00  0.00    +0.210 HD
ENDBRANCH  12   3
BRANCH  10   8
ATOM      8  N   UNL     1      -4.192 -12.023  15.410  0.00  0.00    -0.293 NA
ATOM     17  C   UNL     1      -4.183 -13.484  15.283  0.00  0.00    +0.105 C 
BRANCH   8  16
ATOM     16  C   UNL     1      -2.996 -11.458  14.777  0.00  0.00    +0.119 C 
BRANCH  16  18
ATOM     18  C   UNL     1      -3.299 -10.884  13.417  0.00  0.00    -0.033 A 
ATOM     20  C   UNL     1      -2.266 -10.677  12.503  0.00  0.00    +0.005 A 
ATOM     21  C   UNL     1      -4.611 -10.562  13.073  0.00  0.00    +0.005 A 
ATOM     22  C   UNL     1      -2.547 -10.147  11.244  0.00  0.00    +0.000 A 
ATOM     23  C   UNL     1      -4.891 -10.032  11.813  0.00  0.00    +0.000 A 
ATOM     26  C   UNL     1      -3.859  -9.824  10.898  0.00  0.00    +0.000 A 
ENDBRANCH  16  18
ENDBRANCH   8  16
ENDBRANCH  10   8
BRANCH  11  14
ATOM     14  C   UNL     1      -5.796  -9.632  16.104  0.00  0.00    +0.139 C 
BRANCH  14   9
ATOM      9  N   UNL     1      -7.117  -9.606  16.759  0.00  0.00    -0.187 NA
ATOM     32  H   UNL     1      -7.223  -8.922  17.519  0.00  0.00    +0.148 HD
BRANCH   9   1
ATOM      1  S   UNL     1      -8.510 -10.062  15.893  0.00  0.00    +0.058 S 
ATOM      5  O   UNL     1      -8.271 -11.333  15.236  0.00  0.00    -0.153 OA
ATOM      6  O   UNL     1      -8.985  -8.924  15.129  0.00  0.00    -0.153 OA
BRANCH   1  19
ATOM     19  C   UNL     1      -9.672 -10.332  17.196  0.00  0.00    +0.105 A 
ATOM     24  C   UNL     1      -9.759 -11.584  17.805  0.00  0.00    +0.032 A 
ATOM     25  C   UNL     1     -10.503  -9.293  17.616  0.00  0.00    +0.032 A 
ATOM     27  C   UNL     1     -10.677 -11.797  18.833  0.00  0.00    +0.047 A 
ATOM     28  C   UNL     1     -11.421  -9.506  18.645  0.00  0.00    +0.047 A 
ATOM     29  C   UNL     1     -11.508 -10.758  19.253  0.00  0.00    +0.120 A 
BRANCH  29   7
ATOM      7  O   UNL     1     -12.404 -10.967  20.256  0.00  0.00    -0.495 OA
ATOM     30  C   UNL     1     -13.172  -9.844  20.685  0.00  0.00    +0.277 C 
ENDBRANCH  29   7
ENDBRANCH   1  19
ENDBRANCH   9   1
ENDBRANCH  14   9
ENDBRANCH  11  14
BRANCH  13  15
ATOM     15  C   UNL     1      -6.588 -11.811  19.730  0.00  0.00    +0.190 C 
BRANCH  15   4
ATOM      4  O   UNL     1      -7.273 -10.581  19.900  0.00  0.00    -0.392 OA
ATOM     33  H   UNL     1      -6.660  -9.874  19.635  0.00  0.00    +0.210 HD
ENDBRANCH  15   4
ENDBRANCH  13  15
TORSDOF 11
ENDMDL
MODEL 6
REMARK VINA RESULT:      -5.3      3.390      6.484
REMARK  Name = 38026726
REMARK  13 active torsions:
REMARK  status: ('A' for Active; 'I' for Inactive)
REMARK    1  A    between atoms: S_1  and  N_9
REMARK    2  A    between atoms: S_1  and  C_19
REMARK    3  A    between atoms: O_3  and  C_12
REMARK    4  A    between atoms: O_4  and  C_15
REMARK    5  A    between atoms: O_7  and  C_29
REMARK    6  A    between atoms: O_7  and  C_30
REMARK    7  A    between atoms: N_8  and  C_10
REMARK    8  A    between atoms: N_8  and  C_16
REMARK    9  A    between atoms: N_8  and  C_17
REMARK   10  A    between atoms: N_9  and  C_14
REMARK   11  A    between atoms: C_11  and  C_14
REMARK   12  A    between atoms: C_13  and  C_15
REMARK   13  A    between atoms: C_16  and  C_18
REMARK                            x       y       z     vdW  Elec       q    Type
REMARK                         _______ _______ _______ _____ _____    ______ ____
ROOT
ATOM      2  O   UNL     1      -4.792 -13.236  16.994  0.00  0.00    -0.366 OA
ATOM     10  C   UNL     1      -6.577 -11.847  16.249  0.00  0.00    +0.118 C 
ATOM     11  C   UNL     1      -5.494 -12.836  15.797  0.00  0.00    +0.154 C 
ATOM     12  C   UNL     1      -6.001 -11.273  17.533  0.00  0.00    +0.165 C 
ATOM     13  C   UNL     1      -5.327 -12.510  18.118  0.00  0.00    +0.174 C 
ENDROOT
BRANCH  12   3
ATOM      3  O   UNL     1      -5.035 -10.263  17.265  0.00  0.00    -0.388 OA
ATOM     31  H   UNL     1      -5.173  -9.547  17.908  0.00  0.00    +0.210 HD
ENDBRANCH  12   3
BRANCH  10   8
ATOM      8  N   UNL     1      -7.001 -10.866  15.266  0.00  0.00    -0.293 NA
ATOM     17  C   UNL     1      -8.097 -10.045  15.789  0.00  0.00    +0.105 C 
BRANCH   8  16
ATOM     16  C   UNL     1      -7.413 -11.519  14.020  0.00  0.00    +0.119 C 
BRANCH  16  18
ATOM     18  C   UNL     1      -7.213 -10.624  12.825  0.00  0.00    -0.033 A 
ATOM     20  C   UNL     1      -6.252  -9.614  12.865  0.00  0.00    +0.005 A 
ATOM     21  C   UNL     1      -7.987 -10.805  11.680  0.00  0.00    +0.005 A 
ATOM     22  C   UNL     1      -6.065  -8.785  11.759  0.00  0.00    +0.000 A 
ATOM     23  C   UNL     1      -7.800  -9.977  10.574  0.00  0.00    +0.000 A 
ATOM     26  C   UNL     1      -6.839  -8.966  10.613  0.00  0.00    +0.000 A 
ENDBRANCH  16  18
ENDBRANCH   8  16
ENDBRANCH  10   8
BRANCH  11  14
ATOM     14  C   UNL     1      -4.452 -12.307  14.818  0.00  0.00    +0.139 C 
BRANCH  14   9
ATOM      9  N   UNL     1      -3.258 -13.171  14.859  0.00  0.00    -0.187 NA
ATOM     32  H   UNL     1      -3.440 -14.177  14.966  0.00  0.00    +0.148 HD
BRANCH   9   1
ATOM      1  S   UNL     1      -1.831 -12.697  14.061  0.00  0.00    +0.058 S 
ATOM      5  O   UNL     1      -1.081 -13.878  13.678  0.00  0.00    -0.153 OA
ATOM      6  O   UNL     1      -1.192 -11.641  14.822  0.00  0.00    -0.153 OA
BRANCH   1  19
ATOM     19  C   UNL     1      -2.471 -11.957  12.588  0.00  0.00    +0.105 A 
ATOM     24  C   UNL     1      -3.196 -12.727  11.679  0.00  0.00    +0.032 A 
ATOM     25  C   UNL     1      -2.250 -10.603  12.335  0.00  0.00    +0.032 A 
ATOM     27  C   UNL     1      -3.700 -12.143  10.517  0.00  0.00    +0.047 A 
ATOM     28  C   UNL     1      -2.754 -10.019  11.173  0.00  0.00    +0.047 A 
ATOM     29  C   UNL     1      -3.479 -10.789  10.264  0.00  0.00    +0.120 A 
BRANCH  29   7
ATOM      7  O   UNL     1      -3.971 -10.221   9.129  0.00  0.00    -0.495 OA
ATOM     30  C   UNL     1      -4.697 -11.068   8.241  0.00  0.00    +0.277 C 
ENDBRANCH  29   7
ENDBRANCH   1  19
ENDBRANCH   9   1
ENDBRANCH  14   9
ENDBRANCH  11  14
BRANCH  13  15
ATOM     15  C   UNL     1      -4.214 -12.238  19.114  0.00  0.00    +0.190 C 
BRANCH  15   4
ATOM      4  O   UNL     1      -3.042 -11.870  18.404  0.00  0.00    -0.392 OA
ATOM     33  H   UNL     1      -2.775 -12.641  17.876  0.00  0.00    +0.210 HD
ENDBRANCH  15   4
ENDBRANCH  13  15
TORSDOF 11
ENDMDL
MODEL 7
REMARK VINA RESULT:      -5.3     18.427     20.329
REMARK  Name = 38026726
REMARK  13 active torsions:
REMARK  status: ('A' for Active; 'I' for Inactive)
REMARK    1  A    between atoms: S_1  and  N_9
REMARK    2  A    between atoms: S_1  and  C_19
REMARK    3  A    between atoms: O_3  and  C_12
REMARK    4  A    between atoms: O_4  and  C_15
REMARK    5  A    between atoms: O_7  and  C_29
REMARK    6  A    between atoms: O_7  and  C_30
REMARK    7  A    between atoms: N_8  and  C_10
REMARK    8  A    between atoms: N_8  and  C_16
REMARK    9  A    between atoms: N_8  and  C_17
REMARK   10  A    between atoms: N_9  and  C_14
REMARK   11  A    between atoms: C_11  and  C_14
REMARK   12  A    between atoms: C_13  and  C_15
REMARK   13  A    between atoms: C_16  and  C_18
REMARK                            x       y       z     vdW  Elec       q    Type
REMARK                         _______ _______ _______ _____ _____    ______ ____
ROOT
ATOM      2  O   UNL     1     -10.026   9.745  17.321  0.00  0.00    -0.366 OA
ATOM     10  C   UNL     1     -11.014   9.645  19.486  0.00  0.00    +0.118 C 
ATOM     11  C   UNL     1     -10.640   8.821  18.247  0.00  0.00    +0.154 C 
ATOM     12  C   UNL     1     -11.181  11.048  18.925  0.00  0.00    +0.165 C 
ATOM     13  C   UNL     1     -10.068  11.071  17.884  0.00  0.00    +0.174 C 
ENDROOT
BRANCH  12   3
ATOM      3  O   UNL     1     -12.448  11.212  18.299  0.00  0.00    -0.388 OA
ATOM     31  H   UNL     1     -13.009  10.467  18.573  0.00  0.00    +0.210 HD
ENDBRANCH  12   3
BRANCH  10   8
ATOM      8  N   UNL     1     -12.132   9.154  20.271  0.00  0.00    -0.293 NA
ATOM     17  C   UNL     1     -12.424  10.059  21.386  0.00  0.00    +0.105 C 
BRANCH   8  16
ATOM     16  C   UNL     1     -11.861   7.805  20.777  0.00  0.00    +0.119 C 
BRANCH  16  18
ATOM     18  C   UNL     1     -13.126   7.002  20.936  0.00  0.00    -0.033 A 
ATOM     20  C   UNL     1     -13.147   5.899  21.790  0.00  0.00    +0.005 A 
ATOM     21  C   UNL     1     -14.273   7.360  20.230  0.00  0.00    +0.005 A 
ATOM     22  C   UNL     1     -14.318   5.155  21.938  0.00  0.00    +0.000 A 
ATOM     23  C   UNL     1     -15.444   6.617  20.379  0.00  0.00    +0.000 A 
ATOM     26  C   UNL     1     -15.467   5.513  21.233  0.00  0.00    +0.000 A 
ENDBRANCH  16  18
ENDBRANCH   8  16
ENDBRANCH  10   8
BRANCH  11  14
ATOM     14  C   UNL     1     -11.787   8.138  17.510  0.00  0.00    +0.139 C 
BRANCH  14   9
ATOM      9  N   UNL     1     -11.479   8.085  16.069  0.00  0.00    -0.187 NA
ATOM     32  H   UNL     1     -11.099   7.193  15.727  0.00  0.00    +0.148 HD
BRANCH   9   1
ATOM      1  S   UNL     1     -12.348   9.056  14.973  0.00  0.00    +0.058 S 
ATOM      5  O   UNL     1     -11.511   9.351  13.826  0.00  0.00    -0.153 OA
ATOM      6  O   UNL     1     -12.991  10.132  15.703  0.00  0.00    -0.153 OA
BRANCH   1  19
ATOM     19  C   UNL     1     -13.625   7.953  14.447  0.00  0.00    +0.105 A 
ATOM     24  C   UNL     1     -13.500   7.268  13.239  0.00  0.00    +0.032 A 
ATOM     25  C   UNL     1     -14.757   7.767  15.240  0.00  0.00    +0.032 A 
ATOM     27  C   UNL     1     -14.508   6.397  12.824  0.00  0.00    +0.047 A 
ATOM     28  C   UNL     1     -15.765   6.897  14.825  0.00  0.00    +0.047 A 
ATOM     29  C   UNL     1     -15.640   6.212  13.617  0.00  0.00    +0.120 A 
BRANCH  29   7
ATOM      7  O   UNL     1     -16.624   5.363  13.210  0.00  0.00    -0.495 OA
ATOM     30  C   UNL     1     -17.703   5.140  14.115  0.00  0.00    +0.277 C 
ENDBRANCH  29   7
ENDBRANCH   1  19
ENDBRANCH   9   1
ENDBRANCH  14   9
ENDBRANCH  11  14
BRANCH  13  15
ATOM     15  C   UNL     1     -10.239  12.084  16.766  0.00  0.00    +0.190 C 
BRANCH  15   4
ATOM      4  O   UNL     1     -10.041  11.431  15.522  0.00  0.00    -0.392 OA
ATOM     33  H   UNL     1      -9.246  11.820  15.120  0.00  0.00    +0.210 HD
ENDBRANCH  15   4
ENDBRANCH  13  15
TORSDOF 11
ENDMDL
MODEL 8
REMARK VINA RESULT:      -5.2     30.863     32.900
REMARK  Name = 38026726
REMARK  13 active torsions:
REMARK  status: ('A' for Active; 'I' for Inactive)
REMARK    1  A    between atoms: S_1  and  N_9
REMARK    2  A    between atoms: S_1  and  C_19
REMARK    3  A    between atoms: O_3  and  C_12
REMARK    4  A    between atoms: O_4  and  C_15
REMARK    5  A    between atoms: O_7  and  C_29
REMARK    6  A    between atoms: O_7  and  C_30
REMARK    7  A    between atoms: N_8  and  C_10
REMARK    8  A    between atoms: N_8  and  C_16
REMARK    9  A    between atoms: N_8  and  C_17
REMARK   10  A    between atoms: N_9  and  C_14
REMARK   11  A    between atoms: C_11  and  C_14
REMARK   12  A    between atoms: C_13  and  C_15
REMARK   13  A    between atoms: C_16  and  C_18
REMARK                            x       y       z     vdW  Elec       q    Type
REMARK                         _______ _______ _______ _____ _____    ______ ____
ROOT
ATOM      2  O   UNL     1      21.742   7.009  24.653  0.00  0.00    -0.366 OA
ATOM     10  C   UNL     1      23.527   5.516  25.160  0.00  0.00    +0.118 C 
ATOM     11  C   UNL     1      22.657   6.080  24.029  0.00  0.00    +0.154 C 
ATOM     12  C   UNL     1      22.635   5.662  26.383  0.00  0.00    +0.165 C 
ATOM     13  C   UNL     1      21.953   6.991  26.078  0.00  0.00    +0.174 C 
ENDROOT
BRANCH  12   3
ATOM      3  O   UNL     1      21.672   4.617  26.453  0.00  0.00    -0.388 OA
ATOM     31  H   UNL     1      22.086   3.812  26.098  0.00  0.00    +0.210 HD
ENDBRANCH  12   3
BRANCH  10   8
ATOM      8  N   UNL     1      24.075   4.189  24.948  0.00  0.00    -0.293 NA
ATOM     17  C   UNL     1      24.720   3.689  26.166  0.00  0.00    +0.105 C 
BRANCH   8  16
ATOM     16  C   UNL     1      25.034   4.191  23.838  0.00  0.00    +0.119 C 
BRANCH  16  18
ATOM     18  C   UNL     1      24.820   3.025  22.910  0.00  0.00    -0.033 A 
ATOM     20  C   UNL     1      25.210   1.744  23.300  0.00  0.00    +0.005 A 
ATOM     21  C   UNL     1      24.231   3.225  21.662  0.00  0.00    +0.005 A 
ATOM     22  C   UNL     1      25.012   0.663  22.441  0.00  0.00    +0.000 A 
ATOM     23  C   UNL     1      24.032   2.144  20.804  0.00  0.00    +0.000 A 
ATOM     26  C   UNL     1      24.423   0.862  21.192  0.00  0.00    +0.000 A 
ENDBRANCH  16  18
ENDBRANCH   8  16
ENDBRANCH  10   8
BRANCH  11  14
ATOM     14  C   UNL     1      21.817   5.076  23.248  0.00  0.00    +0.139 C 
BRANCH  14   9
ATOM      9  N   UNL     1      20.736   5.786  22.542  0.00  0.00    -0.187 NA
ATOM     32  H   UNL     1      20.361   6.615  23.020  0.00  0.00    +0.148 HD
BRANCH   9   1
ATOM      1  S   UNL     1      20.646   5.735  20.842  0.00  0.00    +0.058 S 
ATOM      5  O   UNL     1      20.752   4.357  20.398  0.00  0.00    -0.153 OA
ATOM      6  O   UNL     1      21.525   6.748  20.291  0.00  0.00    -0.153 OA
BRANCH   1  19
ATOM     19  C   UNL     1      18.988   6.274  20.552  0.00  0.00    +0.105 A 
ATOM     24  C   UNL     1      18.425   7.262  21.359  0.00  0.00    +0.032 A 
ATOM     25  C   UNL     1      18.243   5.711  19.516  0.00  0.00    +0.032 A 
ATOM     27  C   UNL     1      17.117   7.688  21.130  0.00  0.00    +0.047 A 
ATOM     28  C   UNL     1      16.935   6.137  19.287  0.00  0.00    +0.047 A 
ATOM     29  C   UNL     1      16.372   7.125  20.094  0.00  0.00    +0.120 A 
BRANCH  29   7
ATOM      7  O   UNL     1      15.094   7.540  19.872  0.00  0.00    -0.495 OA
ATOM     30  C   UNL     1      14.633   7.525  18.522  0.00  0.00    +0.277 C 
ENDBRANCH  29   7
ENDBRANCH   1  19
ENDBRANCH   9   1
ENDBRANCH  14   9
ENDBRANCH  11  14
BRANCH  13  15
ATOM     15  C   UNL     1      20.629   7.223  26.783  0.00  0.00    +0.190 C 
BRANCH  15   4
ATOM      4  O   UNL     1      19.617   6.489  26.111  0.00  0.00    -0.392 OA
ATOM     33  H   UNL     1      19.919   6.362  25.195  0.00  0.00    +0.210 HD
ENDBRANCH  15   4
ENDBRANCH  13  15
TORSDOF 11
ENDMDL
MODEL 9
REMARK VINA RESULT:      -5.2     27.968     29.842
REMARK  Name = 38026726
REMARK  13 active torsions:
REMARK  status: ('A' for Active; 'I' for Inactive)
REMARK    1  A    between atoms: S_1  and  N_9
REMARK    2  A    between atoms: S_1  and  C_19
REMARK    3  A    between atoms: O_3  and  C_12
REMARK    4  A    between atoms: O_4  and  C_15
REMARK    5  A    between atoms: O_7  and  C_29
REMARK    6  A    between atoms: O_7  and  C_30
REMARK    7  A    between atoms: N_8  and  C_10
REMARK    8  A    between atoms: N_8  and  C_16
REMARK    9  A    between atoms: N_8  and  C_17
REMARK   10  A    between atoms: N_9  and  C_14
REMARK   11  A    between atoms: C_11  and  C_14
REMARK   12  A    between atoms: C_13  and  C_15
REMARK   13  A    between atoms: C_16  and  C_18
REMARK                            x       y       z     vdW  Elec       q    Type
REMARK                         _______ _______ _______ _____ _____    ______ ____
ROOT
ATOM      2  O   UNL     1      -4.628  13.892  33.405  0.00  0.00    -0.366 OA
ATOM     10  C   UNL     1      -6.821  12.967  33.486  0.00  0.00    +0.118 C 
ATOM     11  C   UNL     1      -5.505  13.125  34.260  0.00  0.00    +0.154 C 
ATOM     12  C   UNL     1      -6.380  13.080  32.035  0.00  0.00    +0.165 C 
ATOM     13  C   UNL     1      -5.294  14.144  32.152  0.00  0.00    +0.174 C 
ENDROOT
BRANCH  12   3
ATOM      3  O   UNL     1      -5.827  11.858  31.562  0.00  0.00    -0.388 OA
ATOM     31  H   UNL     1      -6.552  11.336  31.179  0.00  0.00    +0.210 HD
ENDBRANCH  12   3
BRANCH  10   8
ATOM      8  N   UNL     1      -7.615  11.793  33.803  0.00  0.00    -0.293 NA
ATOM     17  C   UNL     1      -8.632  11.558  32.774  0.00  0.00    +0.105 C 
BRANCH   8  16
ATOM     16  C   UNL     1      -8.252  11.933  35.116  0.00  0.00    +0.119 C 
BRANCH  16  18
ATOM     18  C   UNL     1      -8.474  10.598  35.777  0.00  0.00    -0.033 A 
ATOM     20  C   UNL     1      -7.383   9.841  36.204  0.00  0.00    +0.005 A 
ATOM     21  C   UNL     1      -9.770  10.118  35.961  0.00  0.00    +0.005 A 
ATOM     22  C   UNL     1      -7.588   8.605  36.816  0.00  0.00    +0.000 A 
ATOM     23  C   UNL     1      -9.975   8.882  36.574  0.00  0.00    +0.000 A 
ATOM     26  C   UNL     1      -8.884   8.125  37.001  0.00  0.00    +0.000 A 
ENDBRANCH  16  18
ENDBRANCH   8  16
ENDBRANCH  10   8
BRANCH  11  14
ATOM     14  C   UNL     1      -4.770  11.841  34.626  0.00  0.00    +0.139 C 
BRANCH  14   9
ATOM      9  N   UNL     1      -4.118  12.008  35.938  0.00  0.00    -0.187 NA
ATOM     32  H   UNL     1      -4.617  11.600  36.739  0.00  0.00    +0.148 HD
BRANCH   9   1
ATOM      1  S   UNL     1      -2.424  12.150  36.040  0.00  0.00    +0.058 S 
ATOM      5  O   UNL     1      -2.085  13.116  37.067  0.00  0.00    -0.153 OA
ATOM      6  O   UNL     1      -1.880  12.285  34.702  0.00  0.00    -0.153 OA
BRANCH   1  19
ATOM     19  C   UNL     1      -1.963  10.547  36.626  0.00  0.00    +0.105 A 
ATOM     24  C   UNL     1      -0.616  10.223  36.782  0.00  0.00    +0.032 A 
ATOM     25  C   UNL     1      -2.947   9.607  36.932  0.00  0.00    +0.032 A 
ATOM     27  C   UNL     1      -0.253   8.958  37.244  0.00  0.00    +0.047 A 
ATOM     28  C   UNL     1      -2.584   8.342  37.394  0.00  0.00    +0.047 A 
ATOM     29  C   UNL     1      -1.237   8.018  37.550  0.00  0.00    +0.120 A 
BRANCH  29   7
ATOM      7  O   UNL     1      -0.881   6.783  38.000  0.00  0.00    -0.495 OA
ATOM     30  C   UNL     1      -1.545   6.302  39.168  0.00  0.00    +0.277 C 
ENDBRANCH  29   7
ENDBRANCH   1  19
ENDBRANCH   9   1
ENDBRANCH  14   9
ENDBRANCH  11  14
BRANCH  13  15
ATOM     15  C   UNL     1      -4.269  14.156  31.033  0.00  0.00    +0.190 C 
BRANCH  15   4
ATOM      4  O   UNL     1      -3.238  13.233  31.346  0.00  0.00    -0.392 OA
ATOM     33  H   UNL     1      -2.418  13.746  31.451  0.00  0.00    +0.210 HD
ENDBRANCH  15   4
ENDBRANCH  13  15
TORSDOF 11
ENDMDL
MODEL 10
REMARK VINA RESULT:      -5.2     18.067     19.123
REMARK  Name = 38026726
REMARK  13 active torsions:
REMARK  status: ('A' for Active; 'I' for Inactive)
REMARK    1  A    between atoms: S_1  and  N_9
REMARK    2  A    between atoms: S_1  and  C_19
REMARK    3  A    between atoms: O_3  and  C_12
REMARK    4  A    between atoms: O_4  and  C_15
REMARK    5  A    between atoms: O_7  and  C_29
REMARK    6  A    between atoms: O_7  and  C_30
REMARK    7  A    between atoms: N_8  and  C_10
REMARK    8  A    between atoms: N_8  and  C_16
REMARK    9  A    between atoms: N_8  and  C_17
REMARK   10  A    between atoms: N_9  and  C_14
REMARK   11  A    between atoms: C_11  and  C_14
REMARK   12  A    between atoms: C_13  and  C_15
REMARK   13  A    between atoms: C_16  and  C_18
REMARK                            x       y       z     vdW  Elec       q    Type
REMARK                         _______ _______ _______ _____ _____    ______ ____
ROOT
ATOM      2  O   UNL     1     -16.231   5.664  22.824  0.00  0.00    -0.366 OA
ATOM     10  C   UNL     1     -14.129   6.529  22.115  0.00  0.00    +0.118 C 
ATOM     11  C   UNL     1     -15.635   6.517  21.822  0.00  0.00    +0.154 C 
ATOM     12  C   UNL     1     -13.908   5.204  22.827  0.00  0.00    +0.165 C 
ATOM     13  C   UNL     1     -15.189   5.110  23.650  0.00  0.00    +0.174 C 
ENDROOT
BRANCH  12   3
ATOM      3  O   UNL     1     -13.832   4.124  21.905  0.00  0.00    -0.388 OA
ATOM     31  H   UNL     1     -13.428   3.371  22.368  0.00  0.00    +0.210 HD
ENDBRANCH  12   3
BRANCH  10   8
ATOM      8  N   UNL     1     -13.257   6.777  20.982  0.00  0.00    -0.293 NA
ATOM     17  C   UNL     1     -11.906   6.269  21.242  0.00  0.00    +0.105 C 
BRANCH   8  16
ATOM     16  C   UNL     1     -13.203   8.208  20.667  0.00  0.00    +0.119 C 
BRANCH  16  18
ATOM     18  C   UNL     1     -12.163   8.513  19.621  0.00  0.00    -0.033 A 
ATOM     20  C   UNL     1     -12.225   7.890  18.374  0.00  0.00    +0.005 A 
ATOM     21  C   UNL     1     -11.139   9.418  19.899  0.00  0.00    +0.005 A 
ATOM     22  C   UNL     1     -11.263   8.173  17.405  0.00  0.00    +0.000 A 
ATOM     23  C   UNL     1     -10.177   9.701  18.929  0.00  0.00    +0.000 A 
ATOM     26  C   UNL     1     -10.238   9.079  17.682  0.00  0.00    +0.000 A 
ENDBRANCH  16  18
ENDBRANCH   8  16
ENDBRANCH  10   8
BRANCH  11  14
ATOM     14  C   UNL     1     -16.062   5.981  20.460  0.00  0.00    +0.139 C 
BRANCH  14   9
ATOM      9  N   UNL     1     -16.729   4.678  20.634  0.00  0.00    -0.187 NA
ATOM     32  H   UNL     1     -16.361   4.087  21.390  0.00  0.00    +0.148 HD
BRANCH   9   1
ATOM      1  S   UNL     1     -18.362   4.488  20.194  0.00  0.00    +0.058 S 
ATOM      5  O   UNL     1     -19.202   5.166  21.163  0.00  0.00    -0.153 OA
ATOM      6  O   UNL     1     -18.605   3.096  19.866  0.00  0.00    -0.153 OA
BRANCH   1  19
ATOM     19  C   UNL     1     -18.436   5.396  18.679  0.00  0.00    +0.105 A 
ATOM     24  C   UNL     1     -19.216   6.549  18.594  0.00  0.00    +0.032 A 
ATOM     25  C   UNL     1     -17.712   4.961  17.569  0.00  0.00    +0.032 A 
ATOM     27  C   UNL     1     -19.274   7.265  17.399  0.00  0.00    +0.047 A 
ATOM     28  C   UNL     1     -17.770   5.677  16.374  0.00  0.00    +0.047 A 
ATOM     29  C   UNL     1     -18.551   6.830  16.289  0.00  0.00    +0.120 A 
BRANCH  29   7
ATOM      7  O   UNL     1     -18.609   7.529  15.122  0.00  0.00    -0.495 OA
ATOM     30  C   UNL     1     -17.760   7.093  14.062  0.00  0.00    +0.277 C 
ENDBRANCH  29   7
ENDBRANCH   1  19
ENDBRANCH   9   1
ENDBRANCH  14   9
ENDBRANCH  11  14
BRANCH  13  15
ATOM     15  C   UNL     1     -15.584   3.710  24.084  0.00  0.00    +0.190 C 
BRANCH  15   4
ATOM      4  O   UNL     1     -16.044   2.991  22.951  0.00  0.00    -0.392 OA
ATOM     33  H   UNL     1     -16.950   2.698  23.148  0.00  0.00    +0.210 HD
ENDBRANCH  15   4
ENDBRANCH  13  15
TORSDOF 11
ENDMDL
