MODEL 1
REMARK VINA RESULT:      -7.0      0.000      0.000
REMARK  Name = 11885333
REMARK  7 active torsions:
REMARK  status: ('A' for Active; 'I' for Inactive)
REMARK    1  A    between atoms: S_1  and  C_29
REMARK    2  A    between atoms: S_1  and  C_30
REMARK    3  A    between atoms: O_4  and  C_26
REMARK    4  A    between atoms: N_5  and  C_14
REMARK    5  A    between atoms: C_14  and  C_19
REMARK    6  A    between atoms: C_17  and  C_20
REMARK    7  A    between atoms: C_22  and  C_26
REMARK                            x       y       z     vdW  Elec       q    Type
REMARK                         _______ _______ _______ _____ _____    ______ ____
ROOT
ATOM      2  O   UNL     1      -6.064 -11.730  10.730  0.00  0.00    -0.267 OA
ATOM      5  N   UNL     1      -3.269 -11.066  14.838  0.00  0.00    -0.294 NA
ATOM      6  N   UNL     1      -3.986 -11.619  11.781  0.00  0.00    -0.311 N 
ATOM      7  C   UNL     1      -3.277 -13.257  13.621  0.00  0.00    +0.024 C 
ATOM      8  C   UNL     1      -1.740 -11.490  12.909  0.00  0.00    +0.050 C 
ATOM      9  C   UNL     1      -1.869 -12.998  13.104  0.00  0.00    +0.017 C 
ATOM     10  C   UNL     1      -3.497 -12.512  14.954  0.00  0.00    +0.090 C 
ATOM     11  C   UNL     1      -1.946 -10.775  14.263  0.00  0.00    +0.094 C 
ATOM     12  C   UNL     1      -4.285 -12.842  12.540  0.00  0.00    +0.130 C 
ATOM     13  C   UNL     1      -2.743 -10.991  11.886  0.00  0.00    +0.026 A 
ATOM     15  C   UNL     1      -2.450  -9.942  11.101  0.00  0.00    +0.022 A 
ATOM     16  C   UNL     1      -4.971 -11.181  10.875  0.00  0.00    +0.259 A 
ATOM     17  C   UNL     1      -4.627  -9.982  10.032  0.00  0.00    +0.047 A 
ATOM     18  C   UNL     1      -3.412  -9.429  10.165  0.00  0.00    +0.015 A 
ENDROOT
BRANCH  17  20
ATOM     20  C   UNL     1      -5.599  -9.411   9.083  0.00  0.00    -0.013 A 
ATOM     24  C   UNL     1      -6.472  -8.405   9.498  0.00  0.00    +0.010 A 
ATOM     25  C   UNL     1      -5.649  -9.877   7.769  0.00  0.00    +0.010 A 
ATOM     27  C   UNL     1      -7.393  -7.865   8.600  0.00  0.00    +0.015 A 
ATOM     28  C   UNL     1      -6.569  -9.337   6.871  0.00  0.00    +0.015 A 
ATOM     29  C   UNL     1      -7.442  -8.332   7.287  0.00  0.00    +0.008 A 
BRANCH  29   1
ATOM      1  S   UNL     1      -8.618  -7.643   6.139  0.00  0.00    -0.129 S 
ATOM     30  C   UNL     1      -9.640  -6.614   7.230  0.00  0.00    +0.090 C 
ENDBRANCH  29   1
ENDBRANCH  17  20
BRANCH   5  14
ATOM     14  C   UNL     1      -3.434 -10.405  16.131  0.00  0.00    +0.158 C 
BRANCH  14  19
ATOM      3  O   UNL     1      -5.245 -10.672  17.687  0.00  0.00    -0.461 OA
ATOM     19  C   UNL     1      -4.886 -10.206  16.478  0.00  0.00    +0.119 A 
ATOM     21  C   UNL     1      -5.910  -9.644  15.802  0.00  0.00    +0.046 A 
ATOM     22  C   UNL     1      -6.571 -10.395  17.796  0.00  0.00    +0.131 A 
ATOM     23  C   UNL     1      -7.027  -9.763  16.662  0.00  0.00    +0.047 A 
BRANCH  22  26
ATOM     26  C   UNL     1      -7.221 -10.808  19.047  0.00  0.00    +0.230 C 
BRANCH  26   4
ATOM      4  O   UNL     1      -6.628 -10.072  20.119  0.00  0.00    -0.387 OA
ATOM     31  H   UNL     1      -6.438  -9.181  19.780  0.00  0.00    +0.210 HD
ENDBRANCH  26   4
ENDBRANCH  22  26
ENDBRANCH  14  19
ENDBRANCH   5  14
TORSDOF 6
ENDMDL
MODEL 2
REMARK VINA RESULT:      -6.8     27.827     30.064
REMARK  Name = 11885333
REMARK  7 active torsions:
REMARK  status: ('A' for Active; 'I' for Inactive)
REMARK    1  A    between atoms: S_1  and  C_29
REMARK    2  A    between atoms: S_1  and  C_30
REMARK    3  A    between atoms: O_4  and  C_26
REMARK    4  A    between atoms: N_5  and  C_14
REMARK    5  A    between atoms: C_14  and  C_19
REMARK    6  A    between atoms: C_17  and  C_20
REMARK    7  A    between atoms: C_22  and  C_26
REMARK                            x       y       z     vdW  Elec       q    Type
REMARK                         _______ _______ _______ _____ _____    ______ ____
ROOT
ATOM      2  O   UNL     1      17.127   9.659  20.619  0.00  0.00    -0.267 OA
ATOM      5  N   UNL     1      12.143   9.656  21.165  0.00  0.00    -0.294 NA
ATOM      6  N   UNL     1      14.992   9.190  19.809  0.00  0.00    -0.311 N 
ATOM      7  C   UNL     1      13.247  11.015  19.370  0.00  0.00    +0.024 C 
ATOM      8  C   UNL     1      12.690   8.671  18.935  0.00  0.00    +0.050 C 
ATOM      9  C   UNL     1      12.732  10.060  18.302  0.00  0.00    +0.017 C 
ATOM     10  C   UNL     1      12.305  10.999  20.593  0.00  0.00    +0.090 C 
ATOM     11  C   UNL     1      11.726   8.684  20.142  0.00  0.00    +0.094 C 
ATOM     12  C   UNL     1      14.687  10.626  19.730  0.00  0.00    +0.130 C 
ATOM     13  C   UNL     1      14.076   8.233  19.366  0.00  0.00    +0.026 A 
ATOM     15  C   UNL     1      14.418   6.935  19.342  0.00  0.00    +0.022 A 
ATOM     16  C   UNL     1      16.282   8.841  20.254  0.00  0.00    +0.259 A 
ATOM     17  C   UNL     1      16.625   7.375  20.247  0.00  0.00    +0.047 A 
ATOM     18  C   UNL     1      15.710   6.503  19.796  0.00  0.00    +0.015 A 
ENDROOT
BRANCH  17  20
ATOM     20  C   UNL     1      17.930   6.893  20.733  0.00  0.00    -0.013 A 
ATOM     24  C   UNL     1      18.474   7.416  21.907  0.00  0.00    +0.010 A 
ATOM     25  C   UNL     1      18.623   5.916  20.019  0.00  0.00    +0.010 A 
ATOM     27  C   UNL     1      19.709   6.961  22.367  0.00  0.00    +0.015 A 
ATOM     28  C   UNL     1      19.859   5.461  20.479  0.00  0.00    +0.015 A 
ATOM     29  C   UNL     1      20.402   5.983  21.653  0.00  0.00    +0.008 A 
BRANCH  29   1
ATOM      1  S   UNL     1      21.981   5.402  22.240  0.00  0.00    -0.129 S 
ATOM     30  C   UNL     1      21.901   3.637  21.830  0.00  0.00    +0.090 C 
ENDBRANCH  29   1
ENDBRANCH  17  20
BRANCH   5  14
ATOM     14  C   UNL     1      11.205   9.673  22.284  0.00  0.00    +0.158 C 
BRANCH  14  19
ATOM      3  O   UNL     1      12.779  10.825  23.687  0.00  0.00    -0.461 OA
ATOM     19  C   UNL     1      11.508  10.786  23.253  0.00  0.00    +0.119 A 
ATOM     21  C   UNL     1      10.739  11.764  23.778  0.00  0.00    +0.046 A 
ATOM     22  C   UNL     1      12.833  11.885  24.536  0.00  0.00    +0.131 A 
ATOM     23  C   UNL     1      11.604  12.495  24.626  0.00  0.00    +0.047 A 
BRANCH  22  26
ATOM     26  C   UNL     1      14.137  12.154  25.159  0.00  0.00    +0.230 C 
BRANCH  26   4
ATOM      4  O   UNL     1      14.839  10.914  25.270  0.00  0.00    -0.387 OA
ATOM     31  H   UNL     1      14.169  10.209  25.279  0.00  0.00    +0.210 HD
ENDBRANCH  26   4
ENDBRANCH  22  26
ENDBRANCH  14  19
ENDBRANCH   5  14
TORSDOF 6
ENDMDL
MODEL 3
REMARK VINA RESULT:      -6.7     27.619     30.140
REMARK  Name = 11885333
REMARK  7 active torsions:
REMARK  status: ('A' for Active; 'I' for Inactive)
REMARK    1  A    between atoms: S_1  and  C_29
REMARK    2  A    between atoms: S_1  and  C_30
REMARK    3  A    between atoms: O_4  and  C_26
REMARK    4  A    between atoms: N_5  and  C_14
REMARK    5  A    between atoms: C_14  and  C_19
REMARK    6  A    between atoms: C_17  and  C_20
REMARK    7  A    between atoms: C_22  and  C_26
REMARK                            x       y       z     vdW  Elec       q    Type
REMARK                         _______ _______ _______ _____ _____    ______ ____
ROOT
ATOM      2  O   UNL     1      15.730   5.896  20.097  0.00  0.00    -0.267 OA
ATOM      5  N   UNL     1      13.043   9.260  17.527  0.00  0.00    -0.294 NA
ATOM      6  N   UNL     1      14.427   7.829  20.018  0.00  0.00    -0.311 N 
ATOM      7  C   UNL     1      11.974   7.814  19.275  0.00  0.00    +0.024 C 
ATOM      8  C   UNL     1      13.031   9.921  19.936  0.00  0.00    +0.050 C 
ATOM      9  C   UNL     1      11.838   9.009  20.209  0.00  0.00    +0.017 C 
ATOM     10  C   UNL     1      11.977   8.288  17.806  0.00  0.00    +0.090 C 
ATOM     11  C   UNL     1      12.995  10.393  18.465  0.00  0.00    +0.094 C 
ATOM     12  C   UNL     1      13.245   7.038  19.647  0.00  0.00    +0.130 C 
ATOM     13  C   UNL     1      14.335   9.206  20.233  0.00  0.00    +0.026 A 
ATOM     15  C   UNL     1      15.400   9.890  20.681  0.00  0.00    +0.022 A 
ATOM     16  C   UNL     1      15.620   7.114  20.243  0.00  0.00    +0.259 A 
ATOM     17  C   UNL     1      16.807   7.914  20.712  0.00  0.00    +0.047 A 
ATOM     18  C   UNL     1      16.655   9.231  20.916  0.00  0.00    +0.015 A 
ENDROOT
BRANCH  17  20
ATOM     20  C   UNL     1      18.117   7.276  20.935  0.00  0.00    -0.013 A 
ATOM     24  C   UNL     1      18.534   6.231  20.111  0.00  0.00    +0.010 A 
ATOM     25  C   UNL     1      18.940   7.717  21.972  0.00  0.00    +0.010 A 
ATOM     27  C   UNL     1      19.773   5.627  20.323  0.00  0.00    +0.015 A 
ATOM     28  C   UNL     1      20.179   7.113  22.184  0.00  0.00    +0.015 A 
ATOM     29  C   UNL     1      20.596   6.068  21.360  0.00  0.00    +0.008 A 
BRANCH  29   1
ATOM      1  S   UNL     1      22.178   5.296  21.632  0.00  0.00    -0.129 S 
ATOM     30  C   UNL     1      21.718   3.547  21.777  0.00  0.00    +0.090 C 
ENDBRANCH  29   1
ENDBRANCH  17  20
BRANCH   5  14
ATOM     14  C   UNL     1      12.979   9.724  16.143  0.00  0.00    +0.158 C 
BRANCH  14  19
ATOM      3  O   UNL     1      14.238  10.924  14.485  0.00  0.00    -0.461 OA
ATOM     19  C   UNL     1      14.168  10.574  15.781  0.00  0.00    +0.119 A 
ATOM     21  C   UNL     1      15.192  11.060  16.516  0.00  0.00    +0.046 A 
ATOM     22  C   UNL     1      15.366  11.675  14.379  0.00  0.00    +0.131 A 
ATOM     23  C   UNL     1      15.988  11.787  15.600  0.00  0.00    +0.047 A 
BRANCH  22  26
ATOM     26  C   UNL     1      15.679  12.192  13.039  0.00  0.00    +0.230 C 
BRANCH  26   4
ATOM      4  O   UNL     1      15.723  11.085  12.136  0.00  0.00    -0.387 OA
ATOM     31  H   UNL     1      15.306  11.378  11.308  0.00  0.00    +0.210 HD
ENDBRANCH  26   4
ENDBRANCH  22  26
ENDBRANCH  14  19
ENDBRANCH   5  14
TORSDOF 6
ENDMDL
MODEL 4
REMARK VINA RESULT:      -6.6     24.362     26.262
REMARK  Name = 11885333
REMARK  7 active torsions:
REMARK  status: ('A' for Active; 'I' for Inactive)
REMARK    1  A    between atoms: S_1  and  C_29
REMARK    2  A    between atoms: S_1  and  C_30
REMARK    3  A    between atoms: O_4  and  C_26
REMARK    4  A    between atoms: N_5  and  C_14
REMARK    5  A    between atoms: C_14  and  C_19
REMARK    6  A    between atoms: C_17  and  C_20
REMARK    7  A    between atoms: C_22  and  C_26
REMARK                            x       y       z     vdW  Elec       q    Type
REMARK                         _______ _______ _______ _____ _____    ______ ____
ROOT
ATOM      2  O   UNL     1      12.227   7.840   2.380  0.00  0.00    -0.267 OA
ATOM      5  N   UNL     1      13.489   4.185  -0.811  0.00  0.00    -0.294 NA
ATOM      6  N   UNL     1      12.766   5.613   1.947  0.00  0.00    -0.311 N 
ATOM      7  C   UNL     1      15.046   4.896   1.021  0.00  0.00    +0.024 C 
ATOM      8  C   UNL     1      13.336   3.206   1.483  0.00  0.00    +0.050 C 
ATOM      9  C   UNL     1      14.781   3.602   1.777  0.00  0.00    +0.017 C 
ATOM     10  C   UNL     1      14.835   4.679  -0.492  0.00  0.00    +0.090 C 
ATOM     11  C   UNL     1      13.163   2.977  -0.036  0.00  0.00    +0.094 C 
ATOM     12  C   UNL     1      14.140   5.996   1.591  0.00  0.00    +0.130 C 
ATOM     13  C   UNL     1      12.375   4.272   1.973  0.00  0.00    +0.026 A 
ATOM     15  C   UNL     1      11.151   3.937   2.410  0.00  0.00    +0.022 A 
ATOM     16  C   UNL     1      11.906   6.651   2.357  0.00  0.00    +0.259 A 
ATOM     17  C   UNL     1      10.528   6.247   2.809  0.00  0.00    +0.047 A 
ATOM     18  C   UNL     1      10.214   4.942   2.827  0.00  0.00    +0.015 A 
ENDROOT
BRANCH  17  20
ATOM     20  C   UNL     1       9.532   7.253   3.217  0.00  0.00    -0.013 A 
ATOM     24  C   UNL     1       9.268   7.466   4.571  0.00  0.00    +0.010 A 
ATOM     25  C   UNL     1       8.851   7.993   2.251  0.00  0.00    +0.010 A 
ATOM     27  C   UNL     1       8.325   8.418   4.957  0.00  0.00    +0.015 A 
ATOM     28  C   UNL     1       7.908   8.946   2.637  0.00  0.00    +0.015 A 
ATOM     29  C   UNL     1       7.645   9.157   3.990  0.00  0.00    +0.008 A 
BRANCH  29   1
ATOM      1  S   UNL     1       6.439  10.373   4.483  0.00  0.00    -0.129 S 
ATOM     30  C   UNL     1       5.251  10.293   3.115  0.00  0.00    +0.090 C 
ENDBRANCH  29   1
ENDBRANCH  17  20
BRANCH   5  14
ATOM     14  C   UNL     1      13.347   3.940  -2.244  0.00  0.00    +0.158 C 
BRANCH  14  19
ATOM      3  O   UNL     1      11.462   2.781  -3.180  0.00  0.00    -0.461 OA
ATOM     19  C   UNL     1      11.903   3.945  -2.673  0.00  0.00    +0.119 A 
ATOM     21  C   UNL     1      10.954   4.904  -2.648  0.00  0.00    +0.046 A 
ATOM     22  C   UNL     1      10.159   3.001  -3.498  0.00  0.00    +0.131 A 
ATOM     23  C   UNL     1       9.799   4.293  -3.190  0.00  0.00    +0.047 A 
BRANCH  22  26
ATOM     26  C   UNL     1       9.430   1.866  -4.081  0.00  0.00    +0.230 C 
BRANCH  26   4
ATOM      4  O   UNL     1       9.090   0.968  -3.023  0.00  0.00    -0.387 OA
ATOM     31  H   UNL     1       8.584   1.479  -2.368  0.00  0.00    +0.210 HD
ENDBRANCH  26   4
ENDBRANCH  22  26
ENDBRANCH  14  19
ENDBRANCH   5  14
TORSDOF 6
ENDMDL
MODEL 5
REMARK VINA RESULT:      -6.5     25.316     27.880
REMARK  Name = 11885333
REMARK  7 active torsions:
REMARK  status: ('A' for Active; 'I' for Inactive)
REMARK    1  A    between atoms: S_1  and  C_29
REMARK    2  A    between atoms: S_1  and  C_30
REMARK    3  A    between atoms: O_4  and  C_26
REMARK    4  A    between atoms: N_5  and  C_14
REMARK    5  A    between atoms: C_14  and  C_19
REMARK    6  A    between atoms: C_17  and  C_20
REMARK    7  A    between atoms: C_22  and  C_26
REMARK                            x       y       z     vdW  Elec       q    Type
REMARK                         _______ _______ _______ _____ _____    ______ ____
ROOT
ATOM      2  O   UNL     1      14.094   7.027   6.574  0.00  0.00    -0.267 OA
ATOM      5  N   UNL     1      10.861   4.931   3.366  0.00  0.00    -0.294 NA
ATOM      6  N   UNL     1      12.269   7.183   5.131  0.00  0.00    -0.311 N 
ATOM      7  C   UNL     1      10.076   5.918   5.533  0.00  0.00    +0.024 C 
ATOM      8  C   UNL     1      10.305   7.358   3.567  0.00  0.00    +0.050 C 
ATOM      9  C   UNL     1       9.438   7.086   4.793  0.00  0.00    +0.017 C 
ATOM     10  C   UNL     1      10.132   4.678   4.615  0.00  0.00    +0.090 C 
ATOM     11  C   UNL     1      10.326   6.106   2.661  0.00  0.00    +0.094 C 
ATOM     12  C   UNL     1      11.463   6.346   6.032  0.00  0.00    +0.130 C 
ATOM     13  C   UNL     1      11.714   7.741   3.977  0.00  0.00    +0.026 A 
ATOM     15  C   UNL     1      12.434   8.593   3.229  0.00  0.00    +0.022 A 
ATOM     16  C   UNL     1      13.583   7.473   5.545  0.00  0.00    +0.259 A 
ATOM     17  C   UNL     1      14.377   8.404   4.668  0.00  0.00    +0.047 A 
ATOM     18  C   UNL     1      13.787   8.922   3.580  0.00  0.00    +0.015 A 
ENDROOT
BRANCH  17  20
ATOM     20  C   UNL     1      15.777   8.741   4.982  0.00  0.00    -0.013 A 
ATOM     24  C   UNL     1      16.817   8.007   4.410  0.00  0.00    +0.010 A 
ATOM     25  C   UNL     1      16.064   9.793   5.852  0.00  0.00    +0.010 A 
ATOM     27  C   UNL     1      18.142   8.325   4.706  0.00  0.00    +0.015 A 
ATOM     28  C   UNL     1      17.389  10.111   6.149  0.00  0.00    +0.015 A 
ATOM     29  C   UNL     1      18.428   9.377   5.577  0.00  0.00    +0.008 A 
BRANCH  29   1
ATOM      1  S   UNL     1      20.120   9.784   5.957  0.00  0.00    -0.129 S 
ATOM     30  C   UNL     1      20.634   8.348   6.940  0.00  0.00    +0.090 C 
ENDBRANCH  29   1
ENDBRANCH  17  20
BRANCH   5  14
ATOM     14  C   UNL     1      10.846   3.752   2.503  0.00  0.00    +0.158 C 
BRANCH  14  19
ATOM      3  O   UNL     1      13.174   3.686   1.912  0.00  0.00    -0.461 OA
ATOM     19  C   UNL     1      11.919   3.815   1.448  0.00  0.00    +0.119 A 
ATOM     21  C   UNL     1      11.865   3.977   0.109  0.00  0.00    +0.046 A 
ATOM     22  C   UNL     1      13.971   3.770   0.814  0.00  0.00    +0.131 A 
ATOM     23  C   UNL     1      13.213   3.949  -0.319  0.00  0.00    +0.047 A 
BRANCH  22  26
ATOM     26  C   UNL     1      15.417   3.657   1.050  0.00  0.00    +0.230 C 
BRANCH  26   4
ATOM      4  O   UNL     1      15.612   3.155   2.374  0.00  0.00    -0.387 OA
ATOM     31  H   UNL     1      16.423   2.618   2.357  0.00  0.00    +0.210 HD
ENDBRANCH  26   4
ENDBRANCH  22  26
ENDBRANCH  14  19
ENDBRANCH   5  14
TORSDOF 6
ENDMDL
MODEL 6
REMARK VINA RESULT:      -6.4     29.815     32.049
REMARK  Name = 11885333
REMARK  7 active torsions:
REMARK  status: ('A' for Active; 'I' for Inactive)
REMARK    1  A    between atoms: S_1  and  C_29
REMARK    2  A    between atoms: S_1  and  C_30
REMARK    3  A    between atoms: O_4  and  C_26
REMARK    4  A    between atoms: N_5  and  C_14
REMARK    5  A    between atoms: C_14  and  C_19
REMARK    6  A    between atoms: C_17  and  C_20
REMARK    7  A    between atoms: C_22  and  C_26
REMARK                            x       y       z     vdW  Elec       q    Type
REMARK                         _______ _______ _______ _____ _____    ______ ____
ROOT
ATOM      2  O   UNL     1      17.706   8.889  21.982  0.00  0.00    -0.267 OA
ATOM      5  N   UNL     1      22.460   8.122  20.586  0.00  0.00    -0.294 NA
ATOM      6  N   UNL     1      19.547   7.484  21.719  0.00  0.00    -0.311 N 
ATOM      7  C   UNL     1      21.753   7.843  22.975  0.00  0.00    +0.024 C 
ATOM      8  C   UNL     1      21.529   5.960  21.426  0.00  0.00    +0.050 C 
ATOM      9  C   UNL     1      21.893   6.331  22.861  0.00  0.00    +0.017 C 
ATOM     10  C   UNL     1      22.698   8.539  21.974  0.00  0.00    +0.090 C 
ATOM     11  C   UNL     1      22.505   6.657  20.450  0.00  0.00    +0.094 C 
ATOM     12  C   UNL     1      20.281   8.221  22.758  0.00  0.00    +0.130 C 
ATOM     13  C   UNL     1      20.097   6.351  21.114  0.00  0.00    +0.026 A 
ATOM     15  C   UNL     1      19.367   5.627  20.251  0.00  0.00    +0.022 A 
ATOM     16  C   UNL     1      18.235   7.916  21.444  0.00  0.00    +0.259 A 
ATOM     17  C   UNL     1      17.453   7.105  20.446  0.00  0.00    +0.047 A 
ATOM     18  C   UNL     1      18.027   6.017  19.910  0.00  0.00    +0.015 A 
ENDROOT
BRANCH  17  20
ATOM     20  C   UNL     1      16.087   7.491  20.051  0.00  0.00    -0.013 A 
ATOM     24  C   UNL     1      15.848   8.756  19.511  0.00  0.00    +0.010 A 
ATOM     25  C   UNL     1      15.031   6.594  20.217  0.00  0.00    +0.010 A 
ATOM     27  C   UNL     1      14.555   9.122  19.137  0.00  0.00    +0.015 A 
ATOM     28  C   UNL     1      13.739   6.961  19.843  0.00  0.00    +0.015 A 
ATOM     29  C   UNL     1      13.500   8.225  19.304  0.00  0.00    +0.008 A 
BRANCH  29   1
ATOM      1  S   UNL     1      11.849   8.693  18.827  0.00  0.00    -0.129 S 
ATOM     30  C   UNL     1      10.934   8.453  20.376  0.00  0.00    +0.090 C 
ENDBRANCH  29   1
ENDBRANCH  17  20
BRANCH   5  14
ATOM     14  C   UNL     1      23.408   8.760  19.677  0.00  0.00    +0.158 C 
BRANCH  14  19
ATOM      3  O   UNL     1      22.963   9.850  17.582  0.00  0.00    -0.461 OA
ATOM     19  C   UNL     1      22.776   9.894  18.912  0.00  0.00    +0.119 A 
ATOM     21  C   UNL     1      22.049  10.960  19.310  0.00  0.00    +0.046 A 
ATOM     22  C   UNL     1      22.322  10.946  17.096  0.00  0.00    +0.131 A 
ATOM     23  C   UNL     1      21.744  11.661  18.119  0.00  0.00    +0.047 A 
BRANCH  22  26
ATOM     26  C   UNL     1      22.374  11.137  15.640  0.00  0.00    +0.230 C 
BRANCH  26   4
ATOM      4  O   UNL     1      22.825   9.917  15.049  0.00  0.00    -0.387 OA
ATOM     31  H   UNL     1      22.050   9.333  14.976  0.00  0.00    +0.210 HD
ENDBRANCH  26   4
ENDBRANCH  22  26
ENDBRANCH  14  19
ENDBRANCH   5  14
TORSDOF 6
ENDMDL
MODEL 7
REMARK VINA RESULT:      -6.2     19.424     23.203
REMARK  Name = 11885333
REMARK  7 active torsions:
REMARK  status: ('A' for Active; 'I' for Inactive)
REMARK    1  A    between atoms: S_1  and  C_29
REMARK    2  A    between atoms: S_1  and  C_30
REMARK    3  A    between atoms: O_4  and  C_26
REMARK    4  A    between atoms: N_5  and  C_14
REMARK    5  A    between atoms: C_14  and  C_19
REMARK    6  A    between atoms: C_17  and  C_20
REMARK    7  A    between atoms: C_22  and  C_26
REMARK                            x       y       z     vdW  Elec       q    Type
REMARK                         _______ _______ _______ _____ _____    ______ ____
ROOT
ATOM      2  O   UNL     1       8.386 -12.669  32.031  0.00  0.00    -0.267 OA
ATOM      5  N   UNL     1       6.732  -8.862  34.844  0.00  0.00    -0.294 NA
ATOM      6  N   UNL     1       8.147 -10.384  32.424  0.00  0.00    -0.311 N 
ATOM      7  C   UNL     1       9.184  -9.213  34.455  0.00  0.00    +0.024 C 
ATOM      8  C   UNL     1       7.882  -7.915  32.838  0.00  0.00    +0.050 C 
ATOM      9  C   UNL     1       9.234  -7.995  33.542  0.00  0.00    +0.017 C 
ATOM     10  C   UNL     1       8.041  -9.059  35.480  0.00  0.00    +0.090 C 
ATOM     11  C   UNL     1       6.762  -7.743  33.889  0.00  0.00    +0.094 C 
ATOM     12  C   UNL     1       9.036 -10.473  33.591  0.00  0.00    +0.130 C 
ATOM     13  C   UNL     1       7.637  -9.155  31.999  0.00  0.00    +0.026 A 
ATOM     15  C   UNL     1       6.920  -9.079  30.867  0.00  0.00    +0.022 A 
ATOM     16  C   UNL     1       7.925 -11.575  31.706  0.00  0.00    +0.259 A 
ATOM     17  C   UNL     1       7.088 -11.464  30.459  0.00  0.00    +0.047 A 
ATOM     18  C   UNL     1       6.638 -10.255  30.091  0.00  0.00    +0.015 A 
ENDROOT
BRANCH  17  20
ATOM     20  C   UNL     1       6.755 -12.653  29.655  0.00  0.00    -0.013 A 
ATOM     24  C   UNL     1       7.622 -13.081  28.649  0.00  0.00    +0.010 A 
ATOM     25  C   UNL     1       5.572 -13.352  29.898  0.00  0.00    +0.010 A 
ATOM     27  C   UNL     1       7.307 -14.206  27.887  0.00  0.00    +0.015 A 
ATOM     28  C   UNL     1       5.257 -14.477  29.136  0.00  0.00    +0.015 A 
ATOM     29  C   UNL     1       6.124 -14.904  28.131  0.00  0.00    +0.008 A 
BRANCH  29   1
ATOM      1  S   UNL     1       5.721 -16.341  27.157  0.00  0.00    -0.129 S 
ATOM     30  C   UNL     1       5.942 -15.718  25.468  0.00  0.00    +0.090 C 
ENDBRANCH  29   1
ENDBRANCH  17  20
BRANCH   5  14
ATOM     14  C   UNL     1       5.687  -8.667  35.845  0.00  0.00    +0.158 C 
BRANCH  14  19
ATOM      3  O   UNL     1       4.798 -10.677  34.872  0.00  0.00    -0.461 OA
ATOM     19  C   UNL     1       4.526  -9.603  35.634  0.00  0.00    +0.119 A 
ATOM     21  C   UNL     1       3.247  -9.573  36.068  0.00  0.00    +0.046 A 
ATOM     22  C   UNL     1       3.633 -11.375  34.812  0.00  0.00    +0.131 A 
ATOM     23  C   UNL     1       2.649 -10.737  35.530  0.00  0.00    +0.047 A 
BRANCH  22  26
ATOM     26  C   UNL     1       3.659 -12.616  34.025  0.00  0.00    +0.230 C 
BRANCH  26   4
ATOM      4  O   UNL     1       2.312 -12.960  33.695  0.00  0.00    -0.387 OA
ATOM     31  H   UNL     1       2.024 -13.629  34.339  0.00  0.00    +0.210 HD
ENDBRANCH  26   4
ENDBRANCH  22  26
ENDBRANCH  14  19
ENDBRANCH   5  14
TORSDOF 6
ENDMDL
MODEL 8
REMARK VINA RESULT:      -6.2     23.773     25.891
REMARK  Name = 11885333
REMARK  7 active torsions:
REMARK  status: ('A' for Active; 'I' for Inactive)
REMARK    1  A    between atoms: S_1  and  C_29
REMARK    2  A    between atoms: S_1  and  C_30
REMARK    3  A    between atoms: O_4  and  C_26
REMARK    4  A    between atoms: N_5  and  C_14
REMARK    5  A    between atoms: C_14  and  C_19
REMARK    6  A    between atoms: C_17  and  C_20
REMARK    7  A    between atoms: C_22  and  C_26
REMARK                            x       y       z     vdW  Elec       q    Type
REMARK                         _______ _______ _______ _____ _____    ______ ____
ROOT
ATOM      2  O   UNL     1      10.147   6.874   1.043  0.00  0.00    -0.267 OA
ATOM      5  N   UNL     1      11.252   7.394   5.905  0.00  0.00    -0.294 NA
ATOM      6  N   UNL     1       9.922   6.201   3.263  0.00  0.00    -0.311 N 
ATOM      7  C   UNL     1       8.909   7.710   5.071  0.00  0.00    +0.024 C 
ATOM      8  C   UNL     1       9.685   5.464   5.658  0.00  0.00    +0.050 C 
ATOM      9  C   UNL     1       8.481   6.400   5.717  0.00  0.00    +0.017 C 
ATOM     10  C   UNL     1      10.107   8.311   5.836  0.00  0.00    +0.090 C 
ATOM     11  C   UNL     1      10.859   6.085   6.449  0.00  0.00    +0.094 C 
ATOM     12  C   UNL     1       9.224   7.453   3.591  0.00  0.00    +0.130 C 
ATOM     13  C   UNL     1      10.093   5.199   4.222  0.00  0.00    +0.026 A 
ATOM     15  C   UNL     1      10.632   4.020   3.873  0.00  0.00    +0.022 A 
ATOM     16  C   UNL     1      10.312   6.027   1.921  0.00  0.00    +0.259 A 
ATOM     17  C   UNL     1      10.945   4.707   1.568  0.00  0.00    +0.047 A 
ATOM     18  C   UNL     1      11.069   3.777   2.527  0.00  0.00    +0.015 A 
ENDROOT
BRANCH  17  20
ATOM     20  C   UNL     1      11.431   4.434   0.204  0.00  0.00    -0.013 A 
ATOM     24  C   UNL     1      12.785   4.176  -0.016  0.00  0.00    +0.010 A 
ATOM     25  C   UNL     1      10.539   4.434  -0.868  0.00  0.00    +0.010 A 
ATOM     27  C   UNL     1      13.245   3.918  -1.306  0.00  0.00    +0.015 A 
ATOM     28  C   UNL     1      11.000   4.176  -2.159  0.00  0.00    +0.015 A 
ATOM     29  C   UNL     1      12.353   3.919  -2.378  0.00  0.00    +0.008 A 
BRANCH  29   1
ATOM      1  S   UNL     1      12.941   3.590  -4.028  0.00  0.00    -0.129 S 
ATOM     30  C   UNL     1      11.536   4.136  -5.038  0.00  0.00    +0.090 C 
ENDBRANCH  29   1
ENDBRANCH  17  20
BRANCH   5  14
ATOM     14  C   UNL     1      12.343   7.977   6.683  0.00  0.00    +0.158 C 
BRANCH  14  19
ATOM      3  O   UNL     1      13.584   7.409   4.705  0.00  0.00    -0.461 OA
ATOM     19  C   UNL     1      13.663   7.871   5.964  0.00  0.00    +0.119 A 
ATOM     21  C   UNL     1      14.927   8.154   6.346  0.00  0.00    +0.046 A 
ATOM     22  C   UNL     1      14.865   7.393   4.250  0.00  0.00    +0.131 A 
ATOM     23  C   UNL     1      15.728   7.841   5.222  0.00  0.00    +0.047 A 
BRANCH  22  26
ATOM     26  C   UNL     1      15.060   6.920   2.873  0.00  0.00    +0.230 C 
BRANCH  26   4
ATOM      4  O   UNL     1      15.097   5.492   2.895  0.00  0.00    -0.387 OA
ATOM     31  H   UNL     1      15.620   5.210   2.126  0.00  0.00    +0.210 HD
ENDBRANCH  26   4
ENDBRANCH  22  26
ENDBRANCH  14  19
ENDBRANCH   5  14
TORSDOF 6
ENDMDL
MODEL 9
REMARK VINA RESULT:      -6.1     21.467     25.232
REMARK  Name = 11885333
REMARK  7 active torsions:
REMARK  status: ('A' for Active; 'I' for Inactive)
REMARK    1  A    between atoms: S_1  and  C_29
REMARK    2  A    between atoms: S_1  and  C_30
REMARK    3  A    between atoms: O_4  and  C_26
REMARK    4  A    between atoms: N_5  and  C_14
REMARK    5  A    between atoms: C_14  and  C_19
REMARK    6  A    between atoms: C_17  and  C_20
REMARK    7  A    between atoms: C_22  and  C_26
REMARK                            x       y       z     vdW  Elec       q    Type
REMARK                         _______ _______ _______ _____ _____    ______ ____
ROOT
ATOM      2  O   UNL     1       9.415  -9.424  32.769  0.00  0.00    -0.267 OA
ATOM      5  N   UNL     1       8.384  -5.964  36.248  0.00  0.00    -0.294 NA
ATOM      6  N   UNL     1       8.667  -7.298  33.365  0.00  0.00    -0.311 N 
ATOM      7  C   UNL     1      10.170  -5.579  34.530  0.00  0.00    +0.024 C 
ATOM      8  C   UNL     1       7.848  -5.005  34.004  0.00  0.00    +0.050 C 
ATOM      9  C   UNL     1       9.295  -4.553  33.822  0.00  0.00    +0.017 C 
ATOM     10  C   UNL     1       9.800  -5.645  36.028  0.00  0.00    +0.090 C 
ATOM     11  C   UNL     1       7.505  -5.043  35.510  0.00  0.00    +0.094 C 
ATOM     12  C   UNL     1      10.015  -6.933  33.824  0.00  0.00    +0.130 C 
ATOM     13  C   UNL     1       7.626  -6.367  33.374  0.00  0.00    +0.026 A 
ATOM     15  C   UNL     1       6.434  -6.686  32.845  0.00  0.00    +0.022 A 
ATOM     16  C   UNL     1       8.511  -8.590  32.825  0.00  0.00    +0.259 A 
ATOM     17  C   UNL     1       7.154  -8.930  32.271  0.00  0.00    +0.047 A 
ATOM     18  C   UNL     1       6.196  -7.990  32.292  0.00  0.00    +0.015 A 
ENDROOT
BRANCH  17  20
ATOM     20  C   UNL     1       6.866 -10.267  31.722  0.00  0.00    -0.013 A 
ATOM     24  C   UNL     1       6.401 -11.281  32.562  0.00  0.00    +0.010 A 
ATOM     25  C   UNL     1       7.059 -10.521  30.364  0.00  0.00    +0.010 A 
ATOM     27  C   UNL     1       6.129 -12.546  32.043  0.00  0.00    +0.015 A 
ATOM     28  C   UNL     1       6.787 -11.787  29.846  0.00  0.00    +0.015 A 
ATOM     29  C   UNL     1       6.323 -12.800  30.685  0.00  0.00    +0.008 A 
BRANCH  29   1
ATOM      1  S   UNL     1       5.976 -14.417  30.022  0.00  0.00    -0.129 S 
ATOM     30  C   UNL     1       4.326 -14.178  29.308  0.00  0.00    +0.090 C 
ENDBRANCH  29   1
ENDBRANCH  17  20
BRANCH   5  14
ATOM     14  C   UNL     1       8.063  -5.964  37.673  0.00  0.00    +0.158 C 
BRANCH  14  19
ATOM      3  O   UNL     1       6.206  -7.461  37.381  0.00  0.00    -0.461 OA
ATOM     19  C   UNL     1       6.616  -6.301  37.922  0.00  0.00    +0.119 A 
ATOM     21  C   UNL     1       5.638  -5.656  38.593  0.00  0.00    +0.046 A 
ATOM     22  C   UNL     1       4.894  -7.569  37.720  0.00  0.00    +0.131 A 
ATOM     23  C   UNL     1       4.497  -6.484  38.466  0.00  0.00    +0.047 A 
BRANCH  22  26
ATOM     26  C   UNL     1       4.196  -8.771  37.244  0.00  0.00    +0.230 C 
BRANCH  26   4
ATOM      4  O   UNL     1       4.206  -8.752  35.814  0.00  0.00    -0.387 OA
ATOM     31  H   UNL     1       4.408  -9.656  35.520  0.00  0.00    +0.210 HD
ENDBRANCH  26   4
ENDBRANCH  22  26
ENDBRANCH  14  19
ENDBRANCH   5  14
TORSDOF 6
ENDMDL
MODEL 10
REMARK VINA RESULT:      -6.1      3.766      6.894
REMARK  Name = 11885333
REMARK  7 active torsions:
REMARK  status: ('A' for Active; 'I' for Inactive)
REMARK    1  A    between atoms: S_1  and  C_29
REMARK    2  A    between atoms: S_1  and  C_30
REMARK    3  A    between atoms: O_4  and  C_26
REMARK    4  A    between atoms: N_5  and  C_14
REMARK    5  A    between atoms: C_14  and  C_19
REMARK    6  A    between atoms: C_17  and  C_20
REMARK    7  A    between atoms: C_22  and  C_26
REMARK                            x       y       z     vdW  Elec       q    Type
REMARK                         _______ _______ _______ _____ _____    ______ ____
ROOT
ATOM      2  O   UNL     1      -7.834  -8.971  17.778  0.00  0.00    -0.267 OA
ATOM      5  N   UNL     1      -3.990 -11.395  15.659  0.00  0.00    -0.294 NA
ATOM      6  N   UNL     1      -6.736 -10.951  17.219  0.00  0.00    -0.311 N 
ATOM      7  C   UNL     1      -4.415 -11.549  18.126  0.00  0.00    +0.024 C 
ATOM      8  C   UNL     1      -5.561 -13.091  16.607  0.00  0.00    +0.050 C 
ATOM      9  C   UNL     1      -4.889 -12.988  17.974  0.00  0.00    +0.017 C 
ATOM     10  C   UNL     1      -3.420 -11.198  16.999  0.00  0.00    +0.090 C 
ATOM     11  C   UNL     1      -4.535 -12.752  15.502  0.00  0.00    +0.094 C 
ATOM     12  C   UNL     1      -5.639 -10.624  18.141  0.00  0.00    +0.130 C 
ATOM     13  C   UNL     1      -6.757 -12.163  16.524  0.00  0.00    +0.026 A 
ATOM     15  C   UNL     1      -7.822 -12.490  15.775  0.00  0.00    +0.022 A 
ATOM     16  C   UNL     1      -7.802 -10.032  17.154  0.00  0.00    +0.259 A 
ATOM     17  C   UNL     1      -8.967 -10.412  16.279  0.00  0.00    +0.047 A 
ATOM     18  C   UNL     1      -8.939 -11.596  15.648  0.00  0.00    +0.015 A 
ENDROOT
BRANCH  17  20
ATOM     20  C   UNL     1     -10.117  -9.507  16.102  0.00  0.00    -0.013 A 
ATOM     24  C   UNL     1     -10.101  -8.549  15.088  0.00  0.00    +0.010 A 
ATOM     25  C   UNL     1     -11.220  -9.606  16.950  0.00  0.00    +0.010 A 
ATOM     27  C   UNL     1     -11.189  -7.692  14.921  0.00  0.00    +0.015 A 
ATOM     28  C   UNL     1     -12.308  -8.749  16.783  0.00  0.00    +0.015 A 
ATOM     29  C   UNL     1     -12.292  -7.791  15.769  0.00  0.00    +0.008 A 
BRANCH  29   1
ATOM      1  S   UNL     1     -13.681  -6.696  15.556  0.00  0.00    -0.129 S 
ATOM     30  C   UNL     1     -13.066  -5.561  14.282  0.00  0.00    +0.090 C 
ENDBRANCH  29   1
ENDBRANCH  17  20
BRANCH   5  14
ATOM     14  C   UNL     1      -3.002 -11.105  14.623  0.00  0.00    +0.158 C 
BRANCH  14  19
ATOM      3  O   UNL     1      -4.826 -10.050  13.467  0.00  0.00    -0.461 OA
ATOM     19  C   UNL     1      -3.653 -10.690  13.329  0.00  0.00    +0.119 A 
ATOM     21  C   UNL     1      -3.280 -10.839  12.039  0.00  0.00    +0.046 A 
ATOM     22  C   UNL     1      -5.232  -9.771  12.200  0.00  0.00    +0.131 A 
ATOM     23  C   UNL     1      -4.315 -10.236  11.286  0.00  0.00    +0.047 A 
BRANCH  22  26
ATOM     26  C   UNL     1      -6.511  -9.061  12.068  0.00  0.00    +0.230 C 
BRANCH  26   4
ATOM      4  O   UNL     1      -7.160  -9.076  13.341  0.00  0.00    -0.387 OA
ATOM     31  H   UNL     1      -7.793  -9.814  13.328  0.00  0.00    +0.210 HD
ENDBRANCH  26   4
ENDBRANCH  22  26
ENDBRANCH  14  19
ENDBRANCH   5  14
TORSDOF 6
ENDMDL
