MODEL 1
REMARK VINA RESULT:      -7.9      0.000      0.000
REMARK  Name = 26761802
REMARK  5 active torsions:
REMARK  status: ('A' for Active; 'I' for Inactive)
REMARK    1  A    between atoms: O_1  and  C_13
REMARK    2  A    between atoms: O_1  and  C_22
REMARK    3  A    between atoms: C_7  and  C_13
REMARK    4  A    between atoms: C_12  and  C_15
REMARK    5  A    between atoms: C_18  and  C_21
REMARK                            x       y       z     vdW  Elec       q    Type
REMARK                         _______ _______ _______ _____ _____    ______ ____
ROOT
ATOM      2  O   UNL     1      14.738   8.532  22.438  0.00  0.00    -0.270 OA
ATOM      4  N   UNL     1      14.304   8.219  20.153  0.00  0.00    -0.278 N 
ATOM      5  N   UNL     1      14.216   8.466  16.417  0.00  0.00    -0.347 N 
ATOM      6  N   UNL     1      12.318   9.597  16.745  0.00  0.00    -0.240 NA
ATOM      7  C   UNL     1      12.846   8.455  20.319  0.00  0.00    +0.191 C 
ATOM      8  C   UNL     1      12.228   9.400  19.266  0.00  0.00    +0.091 C 
ATOM      9  C   UNL     1      14.823   7.836  18.808  0.00  0.00    +0.164 C 
ATOM     10  C   UNL     1      13.995   8.465  17.762  0.00  0.00    +0.056 A 
ATOM     11  C   UNL     1      12.824   9.160  17.936  0.00  0.00    +0.066 A 
ATOM     12  C   UNL     1      15.109   8.226  21.305  0.00  0.00    +0.248 C 
ATOM     14  C   UNL     1      13.179   9.161  15.847  0.00  0.00    +0.197 A 
ATOM     28  H   UNL     1      14.991   8.038  15.929  0.00  0.00    +0.167 HD
ENDROOT
BRANCH  12  15
ATOM     15  C   UNL     1      16.519   7.831  21.169  0.00  0.00    +0.037 A 
ATOM     16  C   UNL     1      16.843   6.529  20.788  0.00  0.00    +0.013 A 
ATOM     17  C   UNL     1      17.530   8.758  21.421  0.00  0.00    +0.013 A 
ATOM     18  C   UNL     1      19.193   7.080  20.910  0.00  0.00    -0.018 A 
ATOM     19  C   UNL     1      18.181   6.154  20.657  0.00  0.00    +0.009 A 
ATOM     20  C   UNL     1      18.868   8.382  21.292  0.00  0.00    +0.009 A 
BRANCH  18  21
ATOM     21  C   UNL     1      20.580   6.691  20.775  0.00  0.00    -0.018 A 
ATOM     23  C   UNL     1      21.567   7.665  20.632  0.00  0.00    +0.008 A 
ATOM     24  C   UNL     1      20.929   5.341  20.788  0.00  0.00    +0.008 A 
ATOM     25  C   UNL     1      22.904   7.290  20.503  0.00  0.00    +0.001 A 
ATOM     26  C   UNL     1      22.267   4.965  20.658  0.00  0.00    +0.001 A 
ATOM     27  C   UNL     1      23.254   5.940  20.515  0.00  0.00    +0.000 A 
ENDBRANCH  18  21
ENDBRANCH  12  15
BRANCH   7  13
ATOM      3  O   UNL     1      12.059   6.417  19.301  0.00  0.00    -0.249 OA
ATOM     13  C   UNL     1      12.204   7.098  20.308  0.00  0.00    +0.328 C 
BRANCH  13   1
ATOM      1  O   UNL     1      11.820   6.764  21.572  0.00  0.00    -0.467 OA
ATOM     22  C   UNL     1      10.562   7.296  21.994  0.00  0.00    +0.280 C 
ENDBRANCH  13   1
ENDBRANCH   7  13
TORSDOF 4
ENDMDL
MODEL 2
REMARK VINA RESULT:      -7.7      2.573      3.445
REMARK  Name = 26761802
REMARK  5 active torsions:
REMARK  status: ('A' for Active; 'I' for Inactive)
REMARK    1  A    between atoms: O_1  and  C_13
REMARK    2  A    between atoms: O_1  and  C_22
REMARK    3  A    between atoms: C_7  and  C_13
REMARK    4  A    between atoms: C_12  and  C_15
REMARK    5  A    between atoms: C_18  and  C_21
REMARK                            x       y       z     vdW  Elec       q    Type
REMARK                         _______ _______ _______ _____ _____    ______ ____
ROOT
ATOM      2  O   UNL     1      15.958  10.466  19.706  0.00  0.00    -0.270 OA
ATOM      4  N   UNL     1      14.427   9.102  20.846  0.00  0.00    -0.278 N 
ATOM      5  N   UNL     1      12.180   6.315  21.944  0.00  0.00    -0.347 N 
ATOM      6  N   UNL     1      10.567   7.504  20.957  0.00  0.00    -0.240 NA
ATOM      7  C   UNL     1      13.325  10.090  20.706  0.00  0.00    +0.191 C 
ATOM      8  C   UNL     1      11.977   9.485  20.258  0.00  0.00    +0.091 C 
ATOM      9  C   UNL     1      14.182   7.856  21.629  0.00  0.00    +0.164 C 
ATOM     10  C   UNL     1      12.768   7.457  21.491  0.00  0.00    +0.056 A 
ATOM     11  C   UNL     1      11.758   8.171  20.895  0.00  0.00    +0.066 A 
ATOM     12  C   UNL     1      15.696   9.455  20.355  0.00  0.00    +0.248 C 
ATOM     14  C   UNL     1      10.854   6.388  21.598  0.00  0.00    +0.197 A 
ATOM     28  H   UNL     1      12.629   5.557  22.441  0.00  0.00    +0.167 HD
ENDROOT
BRANCH  12  15
ATOM     15  C   UNL     1      16.823   8.554  20.637  0.00  0.00    +0.037 A 
ATOM     16  C   UNL     1      17.790   8.920  21.574  0.00  0.00    +0.013 A 
ATOM     17  C   UNL     1      16.926   7.335  19.967  0.00  0.00    +0.013 A 
ATOM     18  C   UNL     1      18.962   6.846  21.172  0.00  0.00    -0.018 A 
ATOM     19  C   UNL     1      18.860   8.065  21.842  0.00  0.00    +0.009 A 
ATOM     20  C   UNL     1      17.996   6.481  20.235  0.00  0.00    +0.009 A 
BRANCH  18  21
ATOM     21  C   UNL     1      20.072   5.960  21.450  0.00  0.00    -0.018 A 
ATOM     23  C   UNL     1      20.377   4.926  20.565  0.00  0.00    +0.008 A 
ATOM     24  C   UNL     1      20.836   6.139  22.603  0.00  0.00    +0.008 A 
ATOM     25  C   UNL     1      21.447   4.071  20.832  0.00  0.00    +0.001 A 
ATOM     26  C   UNL     1      21.906   5.285  22.871  0.00  0.00    +0.001 A 
ATOM     27  C   UNL     1      22.211   4.251  21.985  0.00  0.00    +0.000 A 
ENDBRANCH  18  21
ENDBRANCH  12  15
BRANCH   7  13
ATOM      3  O   UNL     1      14.169  10.970  22.786  0.00  0.00    -0.249 OA
ATOM     13  C   UNL     1      13.220  10.783  22.035  0.00  0.00    +0.328 C 
BRANCH  13   1
ATOM      1  O   UNL     1      11.928  11.155  22.255  0.00  0.00    -0.467 OA
ATOM     22  C   UNL     1      11.452  10.965  23.591  0.00  0.00    +0.280 C 
ENDBRANCH  13   1
ENDBRANCH   7  13
TORSDOF 4
ENDMDL
MODEL 3
REMARK VINA RESULT:      -7.2      4.100      7.808
REMARK  Name = 26761802
REMARK  5 active torsions:
REMARK  status: ('A' for Active; 'I' for Inactive)
REMARK    1  A    between atoms: O_1  and  C_13
REMARK    2  A    between atoms: O_1  and  C_22
REMARK    3  A    between atoms: C_7  and  C_13
REMARK    4  A    between atoms: C_12  and  C_15
REMARK    5  A    between atoms: C_18  and  C_21
REMARK                            x       y       z     vdW  Elec       q    Type
REMARK                         _______ _______ _______ _____ _____    ______ ____
ROOT
ATOM      2  O   UNL     1      12.832   7.382  21.805  0.00  0.00    -0.270 OA
ATOM      4  N   UNL     1      13.388   8.589  19.871  0.00  0.00    -0.278 N 
ATOM      5  N   UNL     1      13.331  10.714  16.787  0.00  0.00    -0.347 N 
ATOM      6  N   UNL     1      13.268   8.765  15.697  0.00  0.00    -0.240 NA
ATOM      7  C   UNL     1      13.893   7.380  19.168  0.00  0.00    +0.191 C 
ATOM      8  C   UNL     1      13.406   7.238  17.710  0.00  0.00    +0.091 C 
ATOM      9  C   UNL     1      13.509   9.915  19.198  0.00  0.00    +0.164 C 
ATOM     10  C   UNL     1      13.399   9.740  17.738  0.00  0.00    +0.056 A 
ATOM     11  C   UNL     1      13.363   8.555  17.044  0.00  0.00    +0.066 A 
ATOM     12  C   UNL     1      12.951   8.446  21.199  0.00  0.00    +0.248 C 
ATOM     14  C   UNL     1      13.253  10.077  15.574  0.00  0.00    +0.197 A 
ATOM     28  H   UNL     1      13.338  11.713  16.941  0.00  0.00    +0.167 HD
ENDROOT
BRANCH  12  15
ATOM     15  C   UNL     1      12.608   9.663  21.950  0.00  0.00    +0.037 A 
ATOM     16  C   UNL     1      13.603  10.367  22.628  0.00  0.00    +0.013 A 
ATOM     17  C   UNL     1      11.287  10.111  21.985  0.00  0.00    +0.013 A 
ATOM     18  C   UNL     1      11.957  11.970  23.376  0.00  0.00    -0.018 A 
ATOM     19  C   UNL     1      13.277  11.522  23.341  0.00  0.00    +0.009 A 
ATOM     20  C   UNL     1      10.962  11.266  22.698  0.00  0.00    +0.009 A 
BRANCH  18  21
ATOM     21  C   UNL     1      11.620  13.167  24.115  0.00  0.00    -0.018 A 
ATOM     23  C   UNL     1      11.943  14.422  23.598  0.00  0.00    +0.008 A 
ATOM     24  C   UNL     1      10.972  13.067  25.346  0.00  0.00    +0.008 A 
ATOM     25  C   UNL     1      11.618  15.575  24.310  0.00  0.00    +0.001 A 
ATOM     26  C   UNL     1      10.646  14.221  26.060  0.00  0.00    +0.001 A 
ATOM     27  C   UNL     1      10.970  15.475  25.541  0.00  0.00    +0.000 A 
ENDBRANCH  18  21
ENDBRANCH  12  15
BRANCH   7  13
ATOM      3  O   UNL     1      16.000   8.244  19.958  0.00  0.00    -0.249 OA
ATOM     13  C   UNL     1      15.390   7.444  19.261  0.00  0.00    +0.328 C 
BRANCH  13   1
ATOM      1  O   UNL     1      15.938   6.487  18.459  0.00  0.00    -0.467 OA
ATOM     22  C   UNL     1      17.131   5.875  18.959  0.00  0.00    +0.280 C 
ENDBRANCH  13   1
ENDBRANCH   7  13
TORSDOF 4
ENDMDL
MODEL 4
REMARK VINA RESULT:      -7.2     16.249     20.486
REMARK  Name = 26761802
REMARK  5 active torsions:
REMARK  status: ('A' for Active; 'I' for Inactive)
REMARK    1  A    between atoms: O_1  and  C_13
REMARK    2  A    between atoms: O_1  and  C_22
REMARK    3  A    between atoms: C_7  and  C_13
REMARK    4  A    between atoms: C_12  and  C_15
REMARK    5  A    between atoms: C_18  and  C_21
REMARK                            x       y       z     vdW  Elec       q    Type
REMARK                         _______ _______ _______ _____ _____    ______ ____
ROOT
ATOM      2  O   UNL     1      13.679   2.893   1.553  0.00  0.00    -0.270 OA
ATOM      4  N   UNL     1      12.302   3.801  -0.115  0.00  0.00    -0.278 N 
ATOM      5  N   UNL     1       9.428   4.723  -2.333  0.00  0.00    -0.347 N 
ATOM      6  N   UNL     1      10.250   3.158  -3.698  0.00  0.00    -0.240 NA
ATOM      7  C   UNL     1      13.110   3.210  -1.213  0.00  0.00    +0.191 C 
ATOM      8  C   UNL     1      12.279   2.531  -2.323  0.00  0.00    +0.091 C 
ATOM      9  C   UNL     1      11.156   4.691  -0.463  0.00  0.00    +0.164 C 
ATOM     10  C   UNL     1      10.563   4.255  -1.741  0.00  0.00    +0.056 A 
ATOM     11  C   UNL     1      11.050   3.300  -2.599  0.00  0.00    +0.066 A 
ATOM     12  C   UNL     1      12.743   3.612   1.206  0.00  0.00    +0.248 C 
ATOM     14  C   UNL     1       9.281   4.032  -3.509  0.00  0.00    +0.197 A 
ATOM     28  H   UNL     1       8.812   5.443  -1.979  0.00  0.00    +0.167 HD
ENDROOT
BRANCH  12  15
ATOM     15  C   UNL     1      12.044   4.330   2.281  0.00  0.00    +0.037 A 
ATOM     16  C   UNL     1      11.016   3.702   2.985  0.00  0.00    +0.013 A 
ATOM     17  C   UNL     1      12.407   5.640   2.596  0.00  0.00    +0.013 A 
ATOM     18  C   UNL     1      10.716   5.693   4.321  0.00  0.00    -0.018 A 
ATOM     19  C   UNL     1      10.353   4.383   4.006  0.00  0.00    +0.009 A 
ATOM     20  C   UNL     1      11.742   6.321   3.616  0.00  0.00    +0.009 A 
BRANCH  18  21
ATOM     21  C   UNL     1      10.027   6.399   5.379  0.00  0.00    -0.018 A 
ATOM     23  C   UNL     1      10.418   6.222   6.706  0.00  0.00    +0.008 A 
ATOM     24  C   UNL     1       8.971   7.257   5.072  0.00  0.00    +0.008 A 
ATOM     25  C   UNL     1       9.754   6.903   7.726  0.00  0.00    +0.001 A 
ATOM     26  C   UNL     1       8.307   7.939   6.093  0.00  0.00    +0.001 A 
ATOM     27  C   UNL     1       8.698   7.761   7.419  0.00  0.00    +0.000 A 
ENDBRANCH  18  21
ENDBRANCH  12  15
BRANCH   7  13
ATOM      3  O   UNL     1      13.929   4.718  -2.905  0.00  0.00    -0.249 OA
ATOM     13  C   UNL     1      13.962   4.326  -1.747  0.00  0.00    +0.328 C 
BRANCH  13   1
ATOM      1  O   UNL     1      14.754   4.811  -0.750  0.00  0.00    -0.467 OA
ATOM     22  C   UNL     1      16.087   4.292  -0.715  0.00  0.00    +0.280 C 
ENDBRANCH  13   1
ENDBRANCH   7  13
TORSDOF 4
ENDMDL
MODEL 5
REMARK VINA RESULT:      -7.1      3.684      8.428
REMARK  Name = 26761802
REMARK  5 active torsions:
REMARK  status: ('A' for Active; 'I' for Inactive)
REMARK    1  A    between atoms: O_1  and  C_13
REMARK    2  A    between atoms: O_1  and  C_22
REMARK    3  A    between atoms: C_7  and  C_13
REMARK    4  A    between atoms: C_12  and  C_15
REMARK    5  A    between atoms: C_18  and  C_21
REMARK                            x       y       z     vdW  Elec       q    Type
REMARK                         _______ _______ _______ _____ _____    ______ ____
ROOT
ATOM      2  O   UNL     1      19.071   4.654  19.710  0.00  0.00    -0.270 OA
ATOM      4  N   UNL     1      19.838   6.607  20.762  0.00  0.00    -0.278 N 
ATOM      5  N   UNL     1      20.770  10.132  21.616  0.00  0.00    -0.347 N 
ATOM      6  N   UNL     1      22.824   9.521  20.989  0.00  0.00    -0.240 NA
ATOM      7  C   UNL     1      21.225   6.088  20.886  0.00  0.00    +0.191 C 
ATOM      8  C   UNL     1      22.323   7.094  20.480  0.00  0.00    +0.091 C 
ATOM      9  C   UNL     1      19.510   7.934  21.358  0.00  0.00    +0.164 C 
ATOM     10  C   UNL     1      20.696   8.810  21.295  0.00  0.00    +0.056 A 
ATOM     11  C   UNL     1      21.968   8.458  20.918  0.00  0.00    +0.066 A 
ATOM     12  C   UNL     1      18.862   5.757  20.214  0.00  0.00    +0.248 C 
ATOM     14  C   UNL     1      22.072  10.516  21.415  0.00  0.00    +0.197 A 
ATOM     28  H   UNL     1      20.015  10.721  21.942  0.00  0.00    +0.167 HD
ENDROOT
BRANCH  12  15
ATOM     15  C   UNL     1      17.461   6.203  20.240  0.00  0.00    +0.037 A 
ATOM     16  C   UNL     1      16.843   6.485  21.459  0.00  0.00    +0.013 A 
ATOM     17  C   UNL     1      16.751   6.342  19.048  0.00  0.00    +0.013 A 
ATOM     18  C   UNL     1      14.803   7.048  20.292  0.00  0.00    -0.018 A 
ATOM     19  C   UNL     1      15.513   6.908  21.484  0.00  0.00    +0.009 A 
ATOM     20  C   UNL     1      15.421   6.765  19.074  0.00  0.00    +0.009 A 
BRANCH  18  21
ATOM     21  C   UNL     1      13.424   7.486  20.319  0.00  0.00    -0.018 A 
ATOM     23  C   UNL     1      12.579   7.067  21.346  0.00  0.00    +0.008 A 
ATOM     24  C   UNL     1      12.941   8.327  19.316  0.00  0.00    +0.008 A 
ATOM     25  C   UNL     1      11.250   7.490  21.372  0.00  0.00    +0.001 A 
ATOM     26  C   UNL     1      11.611   8.750  19.342  0.00  0.00    +0.001 A 
ATOM     27  C   UNL     1      10.766   8.330  20.370  0.00  0.00    +0.000 A 
ENDBRANCH  18  21
ENDBRANCH  12  15
BRANCH   7  13
ATOM      3  O   UNL     1      20.706   6.075  23.240  0.00  0.00    -0.249 OA
ATOM     13  C   UNL     1      21.371   5.636  22.311  0.00  0.00    +0.328 C 
BRANCH  13   1
ATOM      1  O   UNL     1      22.343   4.684  22.391  0.00  0.00    -0.467 OA
ATOM     22  C   UNL     1      22.103   3.495  21.632  0.00  0.00    +0.280 C 
ENDBRANCH  13   1
ENDBRANCH   7  13
TORSDOF 4
ENDMDL
MODEL 6
REMARK VINA RESULT:      -6.9     27.366     29.639
REMARK  Name = 26761802
REMARK  5 active torsions:
REMARK  status: ('A' for Active; 'I' for Inactive)
REMARK    1  A    between atoms: O_1  and  C_13
REMARK    2  A    between atoms: O_1  and  C_22
REMARK    3  A    between atoms: C_7  and  C_13
REMARK    4  A    between atoms: C_12  and  C_15
REMARK    5  A    between atoms: C_18  and  C_21
REMARK                            x       y       z     vdW  Elec       q    Type
REMARK                         _______ _______ _______ _____ _____    ______ ____
ROOT
ATOM      2  O   UNL     1     -10.080   9.432  19.770  0.00  0.00    -0.270 OA
ATOM      4  N   UNL     1     -11.528   9.186  17.940  0.00  0.00    -0.278 N 
ATOM      5  N   UNL     1     -13.610   7.861  15.123  0.00  0.00    -0.347 N 
ATOM      6  N   UNL     1     -11.899   8.496  13.835  0.00  0.00    -0.240 NA
ATOM      7  C   UNL     1     -10.704  10.065  17.070  0.00  0.00    +0.191 C 
ATOM      8  C   UNL     1     -10.458   9.510  15.651  0.00  0.00    +0.091 C 
ATOM      9  C   UNL     1     -12.816   8.652  17.409  0.00  0.00    +0.164 C 
ATOM     10  C   UNL     1     -12.704   8.450  15.953  0.00  0.00    +0.056 A 
ATOM     11  C   UNL     1     -11.666   8.834  15.139  0.00  0.00    +0.066 A 
ATOM     12  C   UNL     1     -11.128   9.016  19.277  0.00  0.00    +0.248 C 
ATOM     14  C   UNL     1     -13.081   7.913  13.858  0.00  0.00    +0.197 A 
ATOM     28  H   UNL     1     -14.503   7.464  15.384  0.00  0.00    +0.167 HD
ENDROOT
BRANCH  12  15
ATOM     15  C   UNL     1     -12.026   8.284  20.182  0.00  0.00    +0.037 A 
ATOM     16  C   UNL     1     -11.832   6.921  20.404  0.00  0.00    +0.013 A 
ATOM     17  C   UNL     1     -13.071   8.954  20.818  0.00  0.00    +0.013 A 
ATOM     18  C   UNL     1     -13.729   6.896  21.900  0.00  0.00    -0.018 A 
ATOM     19  C   UNL     1     -12.684   6.227  21.264  0.00  0.00    +0.009 A 
ATOM     20  C   UNL     1     -13.924   8.259  21.677  0.00  0.00    +0.009 A 
BRANCH  18  21
ATOM     21  C   UNL     1     -14.613   6.176  22.791  0.00  0.00    -0.018 A 
ATOM     23  C   UNL     1     -15.860   6.708  23.117  0.00  0.00    +0.008 A 
ATOM     24  C   UNL     1     -14.216   4.950  23.325  0.00  0.00    +0.008 A 
ATOM     25  C   UNL     1     -16.712   6.013  23.975  0.00  0.00    +0.001 A 
ATOM     26  C   UNL     1     -15.069   4.255  24.184  0.00  0.00    +0.001 A 
ATOM     27  C   UNL     1     -16.316   4.788  24.509  0.00  0.00    +0.000 A 
ENDBRANCH  18  21
ENDBRANCH  12  15
BRANCH   7  13
ATOM      3  O   UNL     1     -12.229  11.718  16.203  0.00  0.00    -0.249 OA
ATOM     13  C   UNL     1     -11.402  11.394  17.045  0.00  0.00    +0.328 C 
BRANCH  13   1
ATOM      1  O   UNL     1     -10.970  12.156  18.090  0.00  0.00    -0.467 OA
ATOM     22  C   UNL     1     -11.994  12.637  18.965  0.00  0.00    +0.280 C 
ENDBRANCH  13   1
ENDBRANCH   7  13
TORSDOF 4
ENDMDL
MODEL 7
REMARK VINA RESULT:      -6.8     27.739     29.804
REMARK  Name = 26761802
REMARK  5 active torsions:
REMARK  status: ('A' for Active; 'I' for Inactive)
REMARK    1  A    between atoms: O_1  and  C_13
REMARK    2  A    between atoms: O_1  and  C_22
REMARK    3  A    between atoms: C_7  and  C_13
REMARK    4  A    between atoms: C_12  and  C_15
REMARK    5  A    between atoms: C_18  and  C_21
REMARK                            x       y       z     vdW  Elec       q    Type
REMARK                         _______ _______ _______ _____ _____    ______ ____
ROOT
ATOM      2  O   UNL     1      -2.090 -10.549  13.344  0.00  0.00    -0.270 OA
ATOM      4  N   UNL     1      -4.311 -10.675  14.092  0.00  0.00    -0.278 N 
ATOM      5  N   UNL     1      -7.923 -10.023  14.839  0.00  0.00    -0.347 N 
ATOM      6  N   UNL     1      -7.171  -9.318  16.820  0.00  0.00    -0.240 NA
ATOM      7  C   UNL     1      -3.908 -10.740  15.521  0.00  0.00    +0.191 C 
ATOM      8  C   UNL     1      -4.717  -9.816  16.456  0.00  0.00    +0.091 C 
ATOM      9  C   UNL     1      -5.757 -10.797  13.746  0.00  0.00    +0.164 C 
ATOM     10  C   UNL     1      -6.574 -10.220  14.830  0.00  0.00    +0.056 A 
ATOM     11  C   UNL     1      -6.138  -9.785  16.056  0.00  0.00    +0.066 A 
ATOM     12  C   UNL     1      -3.296 -10.647  13.120  0.00  0.00    +0.248 C 
ATOM     14  C   UNL     1      -8.234  -9.478  16.059  0.00  0.00    +0.197 A 
ATOM     28  H   UNL     1      -8.572 -10.238  14.094  0.00  0.00    +0.167 HD
ENDROOT
BRANCH  12  15
ATOM     15  C   UNL     1      -3.687 -10.749  11.706  0.00  0.00    +0.037 A 
ATOM     16  C   UNL     1      -3.718 -11.996  11.081  0.00  0.00    +0.013 A 
ATOM     17  C   UNL     1      -4.024  -9.600  10.991  0.00  0.00    +0.013 A 
ATOM     18  C   UNL     1      -4.427 -10.945   9.024  0.00  0.00    -0.018 A 
ATOM     19  C   UNL     1      -4.090 -12.094   9.739  0.00  0.00    +0.009 A 
ATOM     20  C   UNL     1      -4.395  -9.698   9.649  0.00  0.00    +0.009 A 
BRANCH  18  21
ATOM     21  C   UNL     1      -4.812 -11.046   7.633  0.00  0.00    -0.018 A 
ATOM     23  C   UNL     1      -4.291 -12.067   6.838  0.00  0.00    +0.008 A 
ATOM     24  C   UNL     1      -5.702 -10.122   7.086  0.00  0.00    +0.008 A 
ATOM     25  C   UNL     1      -4.661 -12.165   5.497  0.00  0.00    +0.001 A 
ATOM     26  C   UNL     1      -6.073 -10.220   5.744  0.00  0.00    +0.001 A 
ATOM     27  C   UNL     1      -5.551 -11.241   4.950  0.00  0.00    +0.000 A 
ENDBRANCH  18  21
ENDBRANCH  12  15
BRANCH   7  13
ATOM      3  O   UNL     1      -3.813 -13.121  15.157  0.00  0.00    -0.249 OA
ATOM     13  C   UNL     1      -4.021 -12.185  15.917  0.00  0.00    +0.328 C 
BRANCH  13   1
ATOM      1  O   UNL     1      -4.385 -12.272  17.227  0.00  0.00    -0.467 OA
ATOM     22  C   UNL     1      -5.359 -13.274  17.530  0.00  0.00    +0.280 C 
ENDBRANCH  13   1
ENDBRANCH   7  13
TORSDOF 4
ENDMDL
MODEL 8
REMARK VINA RESULT:      -6.8     16.554     20.757
REMARK  Name = 26761802
REMARK  5 active torsions:
REMARK  status: ('A' for Active; 'I' for Inactive)
REMARK    1  A    between atoms: O_1  and  C_13
REMARK    2  A    between atoms: O_1  and  C_22
REMARK    3  A    between atoms: C_7  and  C_13
REMARK    4  A    between atoms: C_12  and  C_15
REMARK    5  A    between atoms: C_18  and  C_21
REMARK                            x       y       z     vdW  Elec       q    Type
REMARK                         _______ _______ _______ _____ _____    ______ ____
ROOT
ATOM      2  O   UNL     1       9.327   5.074  -0.878  0.00  0.00    -0.270 OA
ATOM      4  N   UNL     1      11.591   4.459  -0.910  0.00  0.00    -0.278 N 
ATOM      5  N   UNL     1      15.329   4.396  -0.688  0.00  0.00    -0.347 N 
ATOM      6  N   UNL     1      15.258   4.704  -2.899  0.00  0.00    -0.240 NA
ATOM      7  C   UNL     1      11.556   4.111  -2.355  0.00  0.00    +0.191 C 
ATOM      8  C   UNL     1      12.744   4.660  -3.174  0.00  0.00    +0.091 C 
ATOM      9  C   UNL     1      12.848   4.221  -0.143  0.00  0.00    +0.164 C 
ATOM     10  C   UNL     1      14.011   4.399  -1.033  0.00  0.00    +0.056 A 
ATOM     11  C   UNL     1      13.994   4.585  -2.393  0.00  0.00    +0.066 A 
ATOM     12  C   UNL     1      10.392   4.863  -0.299  0.00  0.00    +0.248 C 
ATOM     14  C   UNL     1      16.041   4.583  -1.845  0.00  0.00    +0.197 A 
ATOM     28  H   UNL     1      15.713   4.277   0.240  0.00  0.00    +0.167 HD
ENDROOT
BRANCH  12  15
ATOM     15  C   UNL     1      10.385   5.049   1.160  0.00  0.00    +0.037 A 
ATOM     16  C   UNL     1      10.195   6.321   1.699  0.00  0.00    +0.013 A 
ATOM     17  C   UNL     1      10.569   3.953   2.003  0.00  0.00    +0.013 A 
ATOM     18  C   UNL     1      10.372   5.402   3.926  0.00  0.00    -0.018 A 
ATOM     19  C   UNL     1      10.188   6.498   3.083  0.00  0.00    +0.009 A 
ATOM     20  C   UNL     1      10.563   4.130   3.387  0.00  0.00    +0.009 A 
BRANCH  18  21
ATOM     21  C   UNL     1      10.365   5.586   5.362  0.00  0.00    -0.018 A 
ATOM     23  C   UNL     1       9.799   4.614   6.187  0.00  0.00    +0.008 A 
ATOM     24  C   UNL     1      10.924   6.735   5.920  0.00  0.00    +0.008 A 
ATOM     25  C   UNL     1       9.793   4.791   7.570  0.00  0.00    +0.001 A 
ATOM     26  C   UNL     1      10.918   6.912   7.305  0.00  0.00    +0.001 A 
ATOM     27  C   UNL     1      10.351   5.940   8.129  0.00  0.00    +0.000 A 
ENDBRANCH  18  21
ENDBRANCH  12  15
BRANCH   7  13
ATOM      3  O   UNL     1      12.441   1.869  -2.357  0.00  0.00    -0.249 OA
ATOM     13  C   UNL     1      11.471   2.613  -2.416  0.00  0.00    +0.328 C 
BRANCH  13   1
ATOM      1  O   UNL     1      10.168   2.235  -2.546  0.00  0.00    -0.467 OA
ATOM     22  C   UNL     1       9.528   2.638  -3.760  0.00  0.00    +0.280 C 
ENDBRANCH  13   1
ENDBRANCH   7  13
TORSDOF 4
ENDMDL
MODEL 9
REMARK VINA RESULT:      -6.8     27.133     29.776
REMARK  Name = 26761802
REMARK  5 active torsions:
REMARK  status: ('A' for Active; 'I' for Inactive)
REMARK    1  A    between atoms: O_1  and  C_13
REMARK    2  A    between atoms: O_1  and  C_22
REMARK    3  A    between atoms: C_7  and  C_13
REMARK    4  A    between atoms: C_12  and  C_15
REMARK    5  A    between atoms: C_18  and  C_21
REMARK                            x       y       z     vdW  Elec       q    Type
REMARK                         _______ _______ _______ _____ _____    ______ ____
ROOT
ATOM      2  O   UNL     1      -1.409 -10.400  11.872  0.00  0.00    -0.270 OA
ATOM      4  N   UNL     1      -3.346 -10.786  13.139  0.00  0.00    -0.278 N 
ATOM      5  N   UNL     1      -6.646 -10.501  14.887  0.00  0.00    -0.347 N 
ATOM      6  N   UNL     1      -5.414 -10.039  16.692  0.00  0.00    -0.240 NA
ATOM      7  C   UNL     1      -2.575 -11.029  14.387  0.00  0.00    +0.191 C 
ATOM      8  C   UNL     1      -3.133 -10.308  15.632  0.00  0.00    +0.091 C 
ATOM      9  C   UNL     1      -4.828 -10.957  13.164  0.00  0.00    +0.164 C 
ATOM     10  C   UNL     1      -5.343 -10.601  14.499  0.00  0.00    +0.056 A 
ATOM     11  C   UNL     1      -4.609 -10.318  15.624  0.00  0.00    +0.066 A 
ATOM     12  C   UNL     1      -2.627 -10.548  11.955  0.00  0.00    +0.248 C 
ATOM     14  C   UNL     1      -6.637 -10.160  16.216  0.00  0.00    +0.197 A 
ATOM     28  H   UNL     1      -7.464 -10.650  14.311  0.00  0.00    +0.167 HD
ENDROOT
BRANCH  12  15
ATOM     15  C   UNL     1      -3.377 -10.472  10.692  0.00  0.00    +0.037 A 
ATOM     16  C   UNL     1      -3.731  -9.230  10.166  0.00  0.00    +0.013 A 
ATOM     17  C   UNL     1      -3.733 -11.642  10.021  0.00  0.00    +0.013 A 
ATOM     18  C   UNL     1      -4.798 -10.327   8.297  0.00  0.00    -0.018 A 
ATOM     19  C   UNL     1      -4.442  -9.157   8.968  0.00  0.00    +0.009 A 
ATOM     20  C   UNL     1      -4.445 -11.569   8.823  0.00  0.00    +0.009 A 
BRANCH  18  21
ATOM     21  C   UNL     1      -5.536 -10.251   7.054  0.00  0.00    -0.018 A 
ATOM     23  C   UNL     1      -5.304 -11.188   6.047  0.00  0.00    +0.008 A 
ATOM     24  C   UNL     1      -6.478  -9.241   6.863  0.00  0.00    +0.008 A 
ATOM     25  C   UNL     1      -6.015 -11.115   4.849  0.00  0.00    +0.001 A 
ATOM     26  C   UNL     1      -7.190  -9.168   5.665  0.00  0.00    +0.001 A 
ATOM     27  C   UNL     1      -6.957 -10.105   4.658  0.00  0.00    +0.000 A 
ENDBRANCH  18  21
ENDBRANCH  12  15
BRANCH   7  13
ATOM      3  O   UNL     1      -3.382 -13.157  15.181  0.00  0.00    -0.249 OA
ATOM     13  C   UNL     1      -2.538 -12.520  14.565  0.00  0.00    +0.328 C 
BRANCH  13   1
ATOM      1  O   UNL     1      -1.436 -13.026  13.944  0.00  0.00    -0.467 OA
ATOM     22  C   UNL     1      -1.614 -14.298  13.315  0.00  0.00    +0.280 C 
ENDBRANCH  13   1
ENDBRANCH   7  13
TORSDOF 4
ENDMDL
MODEL 10
REMARK VINA RESULT:      -6.7     15.282     19.370
REMARK  Name = 26761802
REMARK  5 active torsions:
REMARK  status: ('A' for Active; 'I' for Inactive)
REMARK    1  A    between atoms: O_1  and  C_13
REMARK    2  A    between atoms: O_1  and  C_22
REMARK    3  A    between atoms: C_7  and  C_13
REMARK    4  A    between atoms: C_12  and  C_15
REMARK    5  A    between atoms: C_18  and  C_21
REMARK                            x       y       z     vdW  Elec       q    Type
REMARK                         _______ _______ _______ _____ _____    ______ ____
ROOT
ATOM      2  O   UNL     1       9.822   6.816   0.701  0.00  0.00    -0.270 OA
ATOM      4  N   UNL     1      11.652   5.346   0.718  0.00  0.00    -0.278 N 
ATOM      5  N   UNL     1      14.967   3.698   1.284  0.00  0.00    -0.347 N 
ATOM      6  N   UNL     1      15.475   4.496  -0.739  0.00  0.00    -0.240 NA
ATOM      7  C   UNL     1      11.790   5.378  -0.761  0.00  0.00    +0.191 C 
ATOM      8  C   UNL     1      13.239   5.557  -1.264  0.00  0.00    +0.091 C 
ATOM      9  C   UNL     1      12.543   4.445   1.505  0.00  0.00    +0.164 C 
ATOM     10  C   UNL     1      13.846   4.322   0.825  0.00  0.00    +0.056 A 
ATOM     11  C   UNL     1      14.182   4.799  -0.418  0.00  0.00    +0.066 A 
ATOM     12  C   UNL     1      10.588   6.060   1.298  0.00  0.00    +0.248 C 
ATOM     14  C   UNL     1      15.921   3.829   0.307  0.00  0.00    +0.197 A 
ATOM     28  H   UNL     1      15.078   3.225   2.172  0.00  0.00    +0.167 HD
ENDROOT
BRANCH  12  15
ATOM     15  C   UNL     1      10.349   5.898   2.739  0.00  0.00    +0.037 A 
ATOM     16  C   UNL     1      10.046   7.012   3.524  0.00  0.00    +0.013 A 
ATOM     17  C   UNL     1      10.425   4.633   3.321  0.00  0.00    +0.013 A 
ATOM     18  C   UNL     1       9.894   5.594   5.474  0.00  0.00    -0.018 A 
ATOM     19  C   UNL     1       9.818   6.859   4.892  0.00  0.00    +0.009 A 
ATOM     20  C   UNL     1      10.198   4.481   4.690  0.00  0.00    +0.009 A 
BRANCH  18  21
ATOM     21  C   UNL     1       9.658   5.436   6.893  0.00  0.00    -0.018 A 
ATOM     23  C   UNL     1       9.263   6.531   7.661  0.00  0.00    +0.008 A 
ATOM     24  C   UNL     1       9.827   4.188   7.493  0.00  0.00    +0.008 A 
ATOM     25  C   UNL     1       9.035   6.379   9.028  0.00  0.00    +0.001 A 
ATOM     26  C   UNL     1       9.600   4.036   8.862  0.00  0.00    +0.001 A 
ATOM     27  C   UNL     1       9.204   5.132   9.628  0.00  0.00    +0.000 A 
ENDBRANCH  18  21
ENDBRANCH  12  15
BRANCH   7  13
ATOM      3  O   UNL     1      11.784   3.055  -1.402  0.00  0.00    -0.249 OA
ATOM     13  C   UNL     1      11.171   4.105  -1.262  0.00  0.00    +0.328 C 
BRANCH  13   1
ATOM      1  O   UNL     1       9.850   4.312  -1.525  0.00  0.00    -0.467 OA
ATOM     22  C   UNL     1       9.564   5.377  -2.436  0.00  0.00    +0.280 C 
ENDBRANCH  13   1
ENDBRANCH   7  13
TORSDOF 4
ENDMDL
