MODEL 1
REMARK VINA RESULT:      -7.3      0.000      0.000
REMARK  Name = 51137116
REMARK  3 active torsions:
REMARK  status: ('A' for Active; 'I' for Inactive)
REMARK    1  A    between atoms: N_1  and  C_9
REMARK    2  A    between atoms: C_5  and  C_10
REMARK    3  A    between atoms: C_9  and  C_11
REMARK                            x       y       z     vdW  Elec       q    Type
REMARK                         _______ _______ _______ _____ _____    ______ ____
ROOT
ATOM      1  N   UNL     1      11.946   4.430   1.926  0.00  0.00    -0.297 NA
ATOM      5  C   UNL     1      10.412   5.317   3.462  0.00  0.00    +0.070 C 
ATOM      6  C   UNL     1      11.124   4.016   3.065  0.00  0.00    +0.096 C 
ATOM      7  C   UNL     1      11.332   6.438   2.948  0.00  0.00    +0.028 C 
ATOM      8  C   UNL     1      12.519   5.717   2.321  0.00  0.00    +0.085 C 
ENDROOT
BRANCH   5  10
ATOM      2  N   UNL     1      10.193   4.284   5.739  0.00  0.00    -0.342 N 
ATOM      3  N   UNL     1       9.693   6.446   5.606  0.00  0.00    -0.232 NA
ATOM     10  C   UNL     1      10.089   5.386   4.936  0.00  0.00    +0.113 A 
ATOM     13  C   UNL     1       9.838   4.657   7.010  0.00  0.00    +0.066 A 
ATOM     14  C   UNL     1       9.530   6.010   6.901  0.00  0.00    +0.089 A 
ATOM     18  C   UNL     1       9.763   3.947   8.209  0.00  0.00    +0.028 A 
ATOM     19  C   UNL     1       9.121   6.714   8.046  0.00  0.00    +0.030 A 
ATOM     22  C   UNL     1       9.354   4.664   9.339  0.00  0.00    +0.002 A 
ATOM     23  C   UNL     1       9.038   6.022   9.262  0.00  0.00    +0.002 A 
ATOM     25  H   UNL     1      10.478   3.358   5.450  0.00  0.00    +0.167 HD
ENDBRANCH   5  10
BRANCH   1   9
ATOM      9  C   UNL     1      12.967   3.448   1.593  0.00  0.00    +0.121 C 
BRANCH   9  11
ATOM      4  N   UNL     1      14.978   4.150  -1.408  0.00  0.00    -0.360 N 
ATOM     11  C   UNL     1      13.546   3.683   0.223  0.00  0.00    -0.008 A 
ATOM     12  C   UNL     1      12.853   3.593  -1.017  0.00  0.00    +0.004 A 
ATOM     15  C   UNL     1      14.850   4.029  -0.050  0.00  0.00    +0.088 A 
ATOM     16  C   UNL     1      13.774   3.890  -2.024  0.00  0.00    +0.047 A 
ATOM     17  C   UNL     1      11.527   3.285  -1.380  0.00  0.00    +0.010 A 
ATOM     20  C   UNL     1      13.434   3.896  -3.381  0.00  0.00    +0.026 A 
ATOM     21  C   UNL     1      11.173   3.286  -2.735  0.00  0.00    +0.001 A 
ATOM     24  C   UNL     1      12.113   3.587  -3.718  0.00  0.00    +0.002 A 
ATOM     26  H   UNL     1      15.831   4.398  -1.889  0.00  0.00    +0.165 HD
ENDBRANCH   9  11
ENDBRANCH   1   9
TORSDOF 3
ENDMDL
MODEL 2
REMARK VINA RESULT:      -7.1     26.871     28.951
REMARK  Name = 51137116
REMARK  3 active torsions:
REMARK  status: ('A' for Active; 'I' for Inactive)
REMARK    1  A    between atoms: N_1  and  C_9
REMARK    2  A    between atoms: C_5  and  C_10
REMARK    3  A    between atoms: C_9  and  C_11
REMARK                            x       y       z     vdW  Elec       q    Type
REMARK                         _______ _______ _______ _____ _____    ______ ____
ROOT
ATOM      1  N   UNL     1     -10.203  -8.227  16.509  0.00  0.00    -0.297 NA
ATOM      5  C   UNL     1     -11.846  -6.618  16.047  0.00  0.00    +0.070 C 
ATOM      6  C   UNL     1     -10.374  -6.964  15.787  0.00  0.00    +0.096 C 
ATOM      7  C   UNL     1     -12.518  -7.971  16.340  0.00  0.00    +0.028 C 
ATOM      8  C   UNL     1     -11.405  -9.002  16.203  0.00  0.00    +0.085 C 
ENDROOT
BRANCH   5  10
ATOM      2  N   UNL     1     -11.712  -5.079  14.069  0.00  0.00    -0.342 N 
ATOM      3  N   UNL     1     -13.753  -5.760  14.628  0.00  0.00    -0.232 NA
ATOM     10  C   UNL     1     -12.474  -5.829  14.922  0.00  0.00    +0.113 A 
ATOM     13  C   UNL     1     -12.556  -4.486  13.166  0.00  0.00    +0.066 A 
ATOM     14  C   UNL     1     -13.824  -4.926  13.535  0.00  0.00    +0.089 A 
ATOM     18  C   UNL     1     -12.326  -3.628  12.090  0.00  0.00    +0.028 A 
ATOM     19  C   UNL     1     -14.940  -4.496  12.799  0.00  0.00    +0.030 A 
ATOM     22  C   UNL     1     -13.449  -3.210  11.367  0.00  0.00    +0.002 A 
ATOM     23  C   UNL     1     -14.733  -3.634  11.713  0.00  0.00    +0.002 A 
ATOM     25  H   UNL     1     -10.707  -4.976  14.097  0.00  0.00    +0.167 HD
ENDBRANCH   5  10
BRANCH   1   9
ATOM      9  C   UNL     1      -8.983  -8.923  16.129  0.00  0.00    +0.121 C 
BRANCH   9  11
ATOM      4  N   UNL     1      -8.069 -10.597  19.276  0.00  0.00    -0.360 N 
ATOM     11  C   UNL     1      -8.346  -9.619  17.303  0.00  0.00    -0.008 A 
ATOM     12  C   UNL     1      -6.981 -10.004  17.421  0.00  0.00    +0.004 A 
ATOM     15  C   UNL     1      -8.989  -9.997  18.459  0.00  0.00    +0.088 A 
ATOM     16  C   UNL     1      -6.834 -10.615  18.668  0.00  0.00    +0.047 A 
ATOM     17  C   UNL     1      -5.854  -9.891  16.583  0.00  0.00    +0.010 A 
ATOM     20  C   UNL     1      -5.610 -11.121  19.122  0.00  0.00    +0.026 A 
ATOM     21  C   UNL     1      -4.623 -10.393  17.025  0.00  0.00    +0.001 A 
ATOM     24  C   UNL     1      -4.506 -10.997  18.275  0.00  0.00    +0.002 A 
ATOM     26  H   UNL     1      -8.266 -10.971  20.194  0.00  0.00    +0.165 HD
ENDBRANCH   9  11
ENDBRANCH   1   9
TORSDOF 3
ENDMDL
MODEL 3
REMARK VINA RESULT:      -6.9     17.501     20.136
REMARK  Name = 51137116
REMARK  3 active torsions:
REMARK  status: ('A' for Active; 'I' for Inactive)
REMARK    1  A    between atoms: N_1  and  C_9
REMARK    2  A    between atoms: C_5  and  C_10
REMARK    3  A    between atoms: C_9  and  C_11
REMARK                            x       y       z     vdW  Elec       q    Type
REMARK                         _______ _______ _______ _____ _____    ______ ____
ROOT
ATOM      1  N   UNL     1      13.103   7.787  19.873  0.00  0.00    -0.297 NA
ATOM      5  C   UNL     1      11.764   8.683  21.577  0.00  0.00    +0.070 C 
ATOM      6  C   UNL     1      13.213   8.614  21.077  0.00  0.00    +0.096 C 
ATOM      7  C   UNL     1      10.906   8.440  20.324  0.00  0.00    +0.028 C 
ATOM      8  C   UNL     1      11.907   8.277  19.187  0.00  0.00    +0.085 C 
ENDROOT
BRANCH   5  10
ATOM      2  N   UNL     1      11.356   9.989  23.681  0.00  0.00    -0.342 N 
ATOM      3  N   UNL     1      11.258  11.150  21.789  0.00  0.00    -0.232 NA
ATOM     10  C   UNL     1      11.457   9.963  22.318  0.00  0.00    +0.113 A 
ATOM     13  C   UNL     1      11.072  11.277  24.056  0.00  0.00    +0.066 A 
ATOM     14  C   UNL     1      11.016  11.982  22.858  0.00  0.00    +0.089 A 
ATOM     18  C   UNL     1      10.866  11.867  25.304  0.00  0.00    +0.028 A 
ATOM     19  C   UNL     1      10.739  13.359  22.885  0.00  0.00    +0.030 A 
ATOM     22  C   UNL     1      10.592  13.240  25.313  0.00  0.00    +0.002 A 
ATOM     23  C   UNL     1      10.530  13.974  24.127  0.00  0.00    +0.002 A 
ATOM     25  H   UNL     1      11.468   9.200  24.305  0.00  0.00    +0.167 HD
ENDBRANCH   5  10
BRANCH   1   9
ATOM      9  C   UNL     1      14.291   7.862  19.037  0.00  0.00    +0.121 C 
BRANCH   9  11
ATOM      4  N   UNL     1      16.697  10.195  20.557  0.00  0.00    -0.360 N 
ATOM     11  C   UNL     1      15.420   8.579  19.729  0.00  0.00    -0.008 A 
ATOM     12  C   UNL     1      16.552   7.978  20.349  0.00  0.00    +0.004 A 
ATOM     15  C   UNL     1      15.538   9.942  19.873  0.00  0.00    +0.088 A 
ATOM     16  C   UNL     1      17.337   9.014  20.860  0.00  0.00    +0.047 A 
ATOM     17  C   UNL     1      16.984   6.649  20.524  0.00  0.00    +0.010 A 
ATOM     20  C   UNL     1      18.538   8.786  21.541  0.00  0.00    +0.026 A 
ATOM     21  C   UNL     1      18.184   6.407  21.204  0.00  0.00    +0.001 A 
ATOM     24  C   UNL     1      18.947   7.460  21.703  0.00  0.00    +0.002 A 
ATOM     26  H   UNL     1      17.035  11.115  20.803  0.00  0.00    +0.165 HD
ENDBRANCH   9  11
ENDBRANCH   1   9
TORSDOF 3
ENDMDL
MODEL 4
REMARK VINA RESULT:      -6.9     22.092     24.854
REMARK  Name = 51137116
REMARK  3 active torsions:
REMARK  status: ('A' for Active; 'I' for Inactive)
REMARK    1  A    between atoms: N_1  and  C_9
REMARK    2  A    between atoms: C_5  and  C_10
REMARK    3  A    between atoms: C_9  and  C_11
REMARK                            x       y       z     vdW  Elec       q    Type
REMARK                         _______ _______ _______ _____ _____    ______ ____
ROOT
ATOM      1  N   UNL     1      -2.812 -11.237  12.008  0.00  0.00    -0.297 NA
ATOM      5  C   UNL     1      -2.780 -10.700  14.291  0.00  0.00    +0.070 C 
ATOM      6  C   UNL     1      -3.652 -10.609  13.031  0.00  0.00    +0.096 C 
ATOM      7  C   UNL     1      -1.838 -11.887  14.029  0.00  0.00    +0.028 C 
ATOM      8  C   UNL     1      -2.243 -12.418  12.659  0.00  0.00    +0.085 C 
ENDROOT
BRANCH   5  10
ATOM      2  N   UNL     1      -3.111 -11.461  16.659  0.00  0.00    -0.342 N 
ATOM      3  N   UNL     1      -4.788 -10.303  15.773  0.00  0.00    -0.232 NA
ATOM     10  C   UNL     1      -3.590 -10.802  15.562  0.00  0.00    +0.113 A 
ATOM     13  C   UNL     1      -4.062 -11.383  17.644  0.00  0.00    +0.066 A 
ATOM     14  C   UNL     1      -5.099 -10.656  17.066  0.00  0.00    +0.089 A 
ATOM     18  C   UNL     1      -4.103 -11.872  18.950  0.00  0.00    +0.028 A 
ATOM     19  C   UNL     1      -6.253 -10.390  17.822  0.00  0.00    +0.030 A 
ATOM     22  C   UNL     1      -5.260 -11.598  19.689  0.00  0.00    +0.002 A 
ATOM     23  C   UNL     1      -6.316 -10.871  19.137  0.00  0.00    +0.002 A 
ATOM     25  H   UNL     1      -2.215 -11.925  16.735  0.00  0.00    +0.167 HD
ENDBRANCH   5  10
BRANCH   1   9
ATOM      9  C   UNL     1      -3.559 -11.573  10.806  0.00  0.00    +0.121 C 
BRANCH   9  11
ATOM      4  N   UNL     1      -4.496  -8.407   9.182  0.00  0.00    -0.360 N 
ATOM     11  C   UNL     1      -4.211 -10.362  10.194  0.00  0.00    -0.008 A 
ATOM     12  C   UNL     1      -5.609 -10.105  10.107  0.00  0.00    +0.004 A 
ATOM     15  C   UNL     1      -3.554  -9.300   9.617  0.00  0.00    +0.088 A 
ATOM     16  C   UNL     1      -5.760  -8.873   9.467  0.00  0.00    +0.047 A 
ATOM     17  C   UNL     1      -6.762 -10.806  10.512  0.00  0.00    +0.010 A 
ATOM     20  C   UNL     1      -7.012  -8.303   9.212  0.00  0.00    +0.026 A 
ATOM     21  C   UNL     1      -8.022 -10.247  10.262  0.00  0.00    +0.001 A 
ATOM     24  C   UNL     1      -8.142  -9.015   9.622  0.00  0.00    +0.002 A 
ATOM     26  H   UNL     1      -4.294  -7.532   8.718  0.00  0.00    +0.165 HD
ENDBRANCH   9  11
ENDBRANCH   1   9
TORSDOF 3
ENDMDL
MODEL 5
REMARK VINA RESULT:      -6.8     23.086     26.727
REMARK  Name = 51137116
REMARK  3 active torsions:
REMARK  status: ('A' for Active; 'I' for Inactive)
REMARK    1  A    between atoms: N_1  and  C_9
REMARK    2  A    between atoms: C_5  and  C_10
REMARK    3  A    between atoms: C_9  and  C_11
REMARK                            x       y       z     vdW  Elec       q    Type
REMARK                         _______ _______ _______ _____ _____    ______ ____
ROOT
ATOM      1  N   UNL     1      -4.616 -11.668  17.133  0.00  0.00    -0.297 NA
ATOM      5  C   UNL     1      -6.290 -10.287  18.024  0.00  0.00    +0.070 C 
ATOM      6  C   UNL     1      -5.535 -10.602  16.726  0.00  0.00    +0.096 C 
ATOM      7  C   UNL     1      -6.191 -11.578  18.855  0.00  0.00    +0.028 C 
ATOM      8  C   UNL     1      -5.418 -12.554  17.977  0.00  0.00    +0.085 C 
ENDROOT
BRANCH   5  10
ATOM      2  N   UNL     1      -7.945  -8.726  16.965  0.00  0.00    -0.342 N 
ATOM      3  N   UNL     1      -8.803 -10.290  18.292  0.00  0.00    -0.232 NA
ATOM     10  C   UNL     1      -7.697  -9.793  17.783  0.00  0.00    +0.113 A 
ATOM     13  C   UNL     1      -9.300  -8.520  16.946  0.00  0.00    +0.066 A 
ATOM     14  C   UNL     1      -9.813  -9.508  17.781  0.00  0.00    +0.089 A 
ATOM     18  C   UNL     1     -10.097  -7.581  16.289  0.00  0.00    +0.028 A 
ATOM     19  C   UNL     1     -11.202  -9.580  17.985  0.00  0.00    +0.030 A 
ATOM     22  C   UNL     1     -11.478  -7.668  16.503  0.00  0.00    +0.002 A 
ATOM     23  C   UNL     1     -12.022  -8.648  17.335  0.00  0.00    +0.002 A 
ATOM     25  H   UNL     1      -7.255  -8.183  16.464  0.00  0.00    +0.167 HD
ENDBRANCH   5  10
BRANCH   1   9
ATOM      9  C   UNL     1      -4.034 -12.364  15.996  0.00  0.00    +0.121 C 
BRANCH   9  11
ATOM      4  N   UNL     1      -1.514 -10.027  14.682  0.00  0.00    -0.360 N 
ATOM     11  C   UNL     1      -3.116 -11.472  15.203  0.00  0.00    -0.008 A 
ATOM     12  C   UNL     1      -3.121 -11.291  13.791  0.00  0.00    +0.004 A 
ATOM     15  C   UNL     1      -2.117 -10.681  15.722  0.00  0.00    +0.088 A 
ATOM     16  C   UNL     1      -2.106 -10.380  13.491  0.00  0.00    +0.047 A 
ATOM     17  C   UNL     1      -3.894 -11.817  12.737  0.00  0.00    +0.010 A 
ATOM     20  C   UNL     1      -1.825  -9.967  12.184  0.00  0.00    +0.026 A 
ATOM     21  C   UNL     1      -3.623 -11.413  11.424  0.00  0.00    +0.001 A 
ATOM     24  C   UNL     1      -2.604 -10.501  11.155  0.00  0.00    +0.002 A 
ATOM     26  H   UNL     1      -0.745  -9.377  14.775  0.00  0.00    +0.165 HD
ENDBRANCH   9  11
ENDBRANCH   1   9
TORSDOF 3
ENDMDL
MODEL 6
REMARK VINA RESULT:      -6.8     24.518     28.187
REMARK  Name = 51137116
REMARK  3 active torsions:
REMARK  status: ('A' for Active; 'I' for Inactive)
REMARK    1  A    between atoms: N_1  and  C_9
REMARK    2  A    between atoms: C_5  and  C_10
REMARK    3  A    between atoms: C_9  and  C_11
REMARK                            x       y       z     vdW  Elec       q    Type
REMARK                         _______ _______ _______ _____ _____    ______ ____
ROOT
ATOM      1  N   UNL     1      -5.036 -11.153  17.694  0.00  0.00    -0.297 NA
ATOM      5  C   UNL     1      -6.679 -11.953  19.164  0.00  0.00    +0.070 C 
ATOM      6  C   UNL     1      -6.067 -10.659  18.610  0.00  0.00    +0.096 C 
ATOM      7  C   UNL     1      -6.394 -13.012  18.086  0.00  0.00    +0.028 C 
ATOM      8  C   UNL     1      -5.667 -12.261  16.977  0.00  0.00    +0.085 C 
ENDROOT
BRANCH   5  10
ATOM      2  N   UNL     1      -8.770 -10.595  19.450  0.00  0.00    -0.342 N 
ATOM      3  N   UNL     1      -8.940 -12.751  19.964  0.00  0.00    -0.232 NA
ATOM     10  C   UNL     1      -8.136 -11.803  19.536  0.00  0.00    +0.113 A 
ATOM     13  C   UNL     1     -10.069 -10.775  19.850  0.00  0.00    +0.066 A 
ATOM     14  C   UNL     1     -10.150 -12.128  20.166  0.00  0.00    +0.089 A 
ATOM     18  C   UNL     1     -11.148  -9.896  19.960  0.00  0.00    +0.028 A 
ATOM     19  C   UNL     1     -11.372 -12.654  20.620  0.00  0.00    +0.030 A 
ATOM     22  C   UNL     1     -12.357 -10.437  20.413  0.00  0.00    +0.002 A 
ATOM     23  C   UNL     1     -12.469 -11.790  20.737  0.00  0.00    +0.002 A 
ATOM     25  H   UNL     1      -8.359  -9.722  19.147  0.00  0.00    +0.167 HD
ENDBRANCH   5  10
BRANCH   1   9
ATOM      9  C   UNL     1      -4.549 -10.118  16.795  0.00  0.00    +0.121 C 
BRANCH   9  11
ATOM      4  N   UNL     1      -1.419 -11.359  15.311  0.00  0.00    -0.360 N 
ATOM     11  C   UNL     1      -3.411 -10.607  15.940  0.00  0.00    -0.008 A 
ATOM     12  C   UNL     1      -3.423 -10.769  14.526  0.00  0.00    +0.004 A 
ATOM     15  C   UNL     1      -2.165 -10.977  16.393  0.00  0.00    +0.088 A 
ATOM     16  C   UNL     1      -2.161 -11.242  14.157  0.00  0.00    +0.047 A 
ATOM     17  C   UNL     1      -4.389 -10.559  13.522  0.00  0.00    +0.010 A 
ATOM     20  C   UNL     1      -1.816 -11.516  12.829  0.00  0.00    +0.026 A 
ATOM     21  C   UNL     1      -4.056 -10.829  12.189  0.00  0.00    +0.001 A 
ATOM     24  C   UNL     1      -2.789 -11.300  11.850  0.00  0.00    +0.002 A 
ATOM     26  H   UNL     1      -0.461 -11.679  15.352  0.00  0.00    +0.165 HD
ENDBRANCH   9  11
ENDBRANCH   1   9
TORSDOF 3
ENDMDL
MODEL 7
REMARK VINA RESULT:      -6.8     22.990     26.368
REMARK  Name = 51137116
REMARK  3 active torsions:
REMARK  status: ('A' for Active; 'I' for Inactive)
REMARK    1  A    between atoms: N_1  and  C_9
REMARK    2  A    between atoms: C_5  and  C_10
REMARK    3  A    between atoms: C_9  and  C_11
REMARK                            x       y       z     vdW  Elec       q    Type
REMARK                         _______ _______ _______ _____ _____    ______ ____
ROOT
ATOM      1  N   UNL     1      -4.676 -10.880  15.437  0.00  0.00    -0.297 NA
ATOM      5  C   UNL     1      -6.160  -9.680  16.801  0.00  0.00    +0.070 C 
ATOM      6  C   UNL     1      -6.036 -10.336  15.419  0.00  0.00    +0.096 C 
ATOM      7  C   UNL     1      -5.144 -10.429  17.680  0.00  0.00    +0.028 C 
ATOM      8  C   UNL     1      -4.527 -11.478  16.764  0.00  0.00    +0.085 C 
ENDROOT
BRANCH   5  10
ATOM      2  N   UNL     1      -7.906 -10.335  18.481  0.00  0.00    -0.342 N 
ATOM      3  N   UNL     1      -8.617  -9.086  16.786  0.00  0.00    -0.232 NA
ATOM     10  C   UNL     1      -7.576  -9.679  17.328  0.00  0.00    +0.113 A 
ATOM     13  C   UNL     1      -9.248 -10.153  18.697  0.00  0.00    +0.066 A 
ATOM     14  C   UNL     1      -9.668  -9.371  17.625  0.00  0.00    +0.089 A 
ATOM     18  C   UNL     1     -10.103 -10.594  19.708  0.00  0.00    +0.028 A 
ATOM     19  C   UNL     1     -11.020  -8.996  17.540  0.00  0.00    +0.030 A 
ATOM     22  C   UNL     1     -11.446 -10.210  19.607  0.00  0.00    +0.002 A 
ATOM     23  C   UNL     1     -11.898  -9.426  18.544  0.00  0.00    +0.002 A 
ATOM     25  H   UNL     1      -7.276 -10.861  19.072  0.00  0.00    +0.167 HD
ENDBRANCH   5  10
BRANCH   1   9
ATOM      9  C   UNL     1      -4.447 -11.839  14.368  0.00  0.00    +0.121 C 
BRANCH   9  11
ATOM      4  N   UNL     1      -1.805 -10.803  12.026  0.00  0.00    -0.360 N 
ATOM     11  C   UNL     1      -3.577 -11.270  13.280  0.00  0.00    -0.008 A 
ATOM     12  C   UNL     1      -3.991 -10.406  12.228  0.00  0.00    +0.004 A 
ATOM     15  C   UNL     1      -2.227 -11.495  13.129  0.00  0.00    +0.088 A 
ATOM     16  C   UNL     1      -2.861 -10.128  11.455  0.00  0.00    +0.047 A 
ATOM     17  C   UNL     1      -5.224  -9.832  11.857  0.00  0.00    +0.010 A 
ATOM     20  C   UNL     1      -2.901  -9.302  10.327  0.00  0.00    +0.026 A 
ATOM     21  C   UNL     1      -5.278  -9.004  10.730  0.00  0.00    +0.001 A 
ATOM     24  C   UNL     1      -4.134  -8.744   9.978  0.00  0.00    +0.002 A 
ATOM     26  H   UNL     1      -0.855 -10.788  11.681  0.00  0.00    +0.165 HD
ENDBRANCH   9  11
ENDBRANCH   1   9
TORSDOF 3
ENDMDL
MODEL 8
REMARK VINA RESULT:      -6.6     26.772     28.844
REMARK  Name = 51137116
REMARK  3 active torsions:
REMARK  status: ('A' for Active; 'I' for Inactive)
REMARK    1  A    between atoms: N_1  and  C_9
REMARK    2  A    between atoms: C_5  and  C_10
REMARK    3  A    between atoms: C_9  and  C_11
REMARK                            x       y       z     vdW  Elec       q    Type
REMARK                         _______ _______ _______ _____ _____    ______ ____
ROOT
ATOM      1  N   UNL     1     -11.894  -7.892  15.268  0.00  0.00    -0.297 NA
ATOM      5  C   UNL     1     -10.386  -8.720  16.862  0.00  0.00    +0.070 C 
ATOM      6  C   UNL     1     -10.922  -8.973  15.446  0.00  0.00    +0.096 C 
ATOM      7  C   UNL     1     -10.617  -7.219  17.104  0.00  0.00    +0.028 C 
ATOM      8  C   UNL     1     -11.239  -6.702  15.813  0.00  0.00    +0.085 C 
ENDROOT
BRANCH   5  10
ATOM      2  N   UNL     1      -8.528  -9.715  18.224  0.00  0.00    -0.342 N 
ATOM      3  N   UNL     1      -7.997  -9.131  16.147  0.00  0.00    -0.232 NA
ATOM     10  C   UNL     1      -8.958  -9.179  17.042  0.00  0.00    +0.113 A 
ATOM     13  C   UNL     1      -7.201 -10.032  18.082  0.00  0.00    +0.066 A 
ATOM     14  C   UNL     1      -6.894  -9.658  16.777  0.00  0.00    +0.089 A 
ATOM     18  C   UNL     1      -6.273 -10.597  18.957  0.00  0.00    +0.028 A 
ATOM     19  C   UNL     1      -5.587  -9.851  16.299  0.00  0.00    +0.030 A 
ATOM     22  C   UNL     1      -4.976 -10.783  18.464  0.00  0.00    +0.002 A 
ATOM     23  C   UNL     1      -4.637 -10.418  17.160  0.00  0.00    +0.002 A 
ATOM     25  H   UNL     1      -9.085  -9.853  19.057  0.00  0.00    +0.167 HD
ENDBRANCH   5  10
BRANCH   1   9
ATOM      9  C   UNL     1     -12.286  -7.721  13.877  0.00  0.00    +0.121 C 
BRANCH   9  11
ATOM      4  N   UNL     1     -15.359  -5.698  13.906  0.00  0.00    -0.360 N 
ATOM     11  C   UNL     1     -13.393  -6.712  13.726  0.00  0.00    -0.008 A 
ATOM     12  C   UNL     1     -13.332  -5.491  12.996  0.00  0.00    +0.004 A 
ATOM     15  C   UNL     1     -14.651  -6.811  14.273  0.00  0.00    +0.088 A 
ATOM     16  C   UNL     1     -14.579  -4.874  13.126  0.00  0.00    +0.047 A 
ATOM     17  C   UNL     1     -12.333  -4.850  12.237  0.00  0.00    +0.010 A 
ATOM     20  C   UNL     1     -14.878  -3.644  12.530  0.00  0.00    +0.026 A 
ATOM     21  C   UNL     1     -12.619  -3.618  11.636  0.00  0.00    +0.001 A 
ATOM     24  C   UNL     1     -13.872  -3.027  11.782  0.00  0.00    +0.002 A 
ATOM     26  H   UNL     1     -16.317  -5.508  14.168  0.00  0.00    +0.165 HD
ENDBRANCH   9  11
ENDBRANCH   1   9
TORSDOF 3
ENDMDL
MODEL 9
REMARK VINA RESULT:      -6.5     26.157     28.636
REMARK  Name = 51137116
REMARK  3 active torsions:
REMARK  status: ('A' for Active; 'I' for Inactive)
REMARK    1  A    between atoms: N_1  and  C_9
REMARK    2  A    between atoms: C_5  and  C_10
REMARK    3  A    between atoms: C_9  and  C_11
REMARK                            x       y       z     vdW  Elec       q    Type
REMARK                         _______ _______ _______ _____ _____    ______ ____
ROOT
ATOM      1  N   UNL     1      -8.882  -8.968  16.356  0.00  0.00    -0.297 NA
ATOM      5  C   UNL     1     -10.282  -7.098  16.149  0.00  0.00    +0.070 C 
ATOM      6  C   UNL     1      -9.486  -8.120  15.325  0.00  0.00    +0.096 C 
ATOM      7  C   UNL     1     -10.567  -7.808  17.483  0.00  0.00    +0.028 C 
ATOM      8  C   UNL     1      -9.947  -9.192  17.333  0.00  0.00    +0.085 C 
ENDROOT
BRANCH   5  10
ATOM      2  N   UNL     1     -11.458  -5.460  14.654  0.00  0.00    -0.342 N 
ATOM      3  N   UNL     1     -12.709  -7.119  15.445  0.00  0.00    -0.232 NA
ATOM     10  C   UNL     1     -11.508  -6.586  15.428  0.00  0.00    +0.113 A 
ATOM     13  C   UNL     1     -12.711  -5.252  14.137  0.00  0.00    +0.066 A 
ATOM     14  C   UNL     1     -13.473  -6.300  14.646  0.00  0.00    +0.089 A 
ATOM     18  C   UNL     1     -13.227  -4.267  13.295  0.00  0.00    +0.028 A 
ATOM     19  C   UNL     1     -14.834  -6.386  14.304  0.00  0.00    +0.030 A 
ATOM     22  C   UNL     1     -14.583  -4.368  12.964  0.00  0.00    +0.002 A 
ATOM     23  C   UNL     1     -15.374  -5.408  13.458  0.00  0.00    +0.002 A 
ATOM     25  H   UNL     1     -10.645  -4.881  14.489  0.00  0.00    +0.167 HD
ENDBRANCH   5  10
BRANCH   1   9
ATOM      9  C   UNL     1      -8.357 -10.211  15.814  0.00  0.00    +0.121 C 
BRANCH   9  11
ATOM      4  N   UNL     1      -4.682 -10.177  15.632  0.00  0.00    -0.360 N 
ATOM     11  C   UNL     1      -6.866 -10.319  15.998  0.00  0.00    -0.008 A 
ATOM     12  C   UNL     1      -6.190 -10.862  17.127  0.00  0.00    +0.004 A 
ATOM     15  C   UNL     1      -5.912  -9.907  15.096  0.00  0.00    +0.088 A 
ATOM     16  C   UNL     1      -4.820 -10.760  16.871  0.00  0.00    +0.047 A 
ATOM     17  C   UNL     1      -6.612 -11.431  18.345  0.00  0.00    +0.010 A 
ATOM     20  C   UNL     1      -3.848 -11.202  17.776  0.00  0.00    +0.026 A 
ATOM     21  C   UNL     1      -5.650 -11.876  19.259  0.00  0.00    +0.001 A 
ATOM     24  C   UNL     1      -4.290 -11.763  18.977  0.00  0.00    +0.002 A 
ATOM     26  H   UNL     1      -3.798  -9.979  15.182  0.00  0.00    +0.165 HD
ENDBRANCH   9  11
ENDBRANCH   1   9
TORSDOF 3
ENDMDL
MODEL 10
REMARK VINA RESULT:      -6.5     31.123     35.659
REMARK  Name = 51137116
REMARK  3 active torsions:
REMARK  status: ('A' for Active; 'I' for Inactive)
REMARK    1  A    between atoms: N_1  and  C_9
REMARK    2  A    between atoms: C_5  and  C_10
REMARK    3  A    between atoms: C_9  and  C_11
REMARK                            x       y       z     vdW  Elec       q    Type
REMARK                         _______ _______ _______ _____ _____    ______ ____
ROOT
ATOM      1  N   UNL     1     -17.023   4.288  24.770  0.00  0.00    -0.297 NA
ATOM      5  C   UNL     1     -16.795   2.533  26.310  0.00  0.00    +0.070 C 
ATOM      6  C   UNL     1     -16.004   3.642  25.602  0.00  0.00    +0.096 C 
ATOM      7  C   UNL     1     -18.251   3.029  26.307  0.00  0.00    +0.028 C 
ATOM      8  C   UNL     1     -18.202   4.393  25.630  0.00  0.00    +0.085 C 
ENDROOT
BRANCH   5  10
ATOM      2  N   UNL     1     -16.313   0.924  28.175  0.00  0.00    -0.342 N 
ATOM      3  N   UNL     1     -15.656   3.020  28.513  0.00  0.00    -0.232 NA
ATOM     10  C   UNL     1     -16.242   2.194  27.675  0.00  0.00    +0.113 A 
ATOM     13  C   UNL     1     -15.735   0.930  29.418  0.00  0.00    +0.066 A 
ATOM     14  C   UNL     1     -15.333   2.249  29.606  0.00  0.00    +0.089 A 
ATOM     18  C   UNL     1     -15.536  -0.075  30.365  0.00  0.00    +0.028 A 
ATOM     19  C   UNL     1     -14.692   2.606  30.805  0.00  0.00    +0.030 A 
ATOM     22  C   UNL     1     -14.895   0.298  31.552  0.00  0.00    +0.002 A 
ATOM     23  C   UNL     1     -14.480   1.613  31.771  0.00  0.00    +0.002 A 
ATOM     25  H   UNL     1     -16.719   0.121  27.713  0.00  0.00    +0.167 HD
ENDBRANCH   5  10
BRANCH   1   9
ATOM      9  C   UNL     1     -16.589   5.581  24.264  0.00  0.00    +0.121 C 
BRANCH   9  11
ATOM      4  N   UNL     1     -13.955   4.566  21.903  0.00  0.00    -0.360 N 
ATOM     11  C   UNL     1     -15.458   5.447  23.279  0.00  0.00    -0.008 A 
ATOM     12  C   UNL     1     -14.690   6.507  22.722  0.00  0.00    +0.004 A 
ATOM     15  C   UNL     1     -14.982   4.266  22.758  0.00  0.00    +0.088 A 
ATOM     16  C   UNL     1     -13.754   5.927  21.862  0.00  0.00    +0.047 A 
ATOM     17  C   UNL     1     -14.702   7.909  22.866  0.00  0.00    +0.010 A 
ATOM     20  C   UNL     1     -12.825   6.682  21.136  0.00  0.00    +0.026 A 
ATOM     21  C   UNL     1     -13.778   8.676  22.145  0.00  0.00    +0.001 A 
ATOM     24  C   UNL     1     -12.855   8.070  21.295  0.00  0.00    +0.002 A 
ATOM     26  H   UNL     1     -13.420   3.887  21.380  0.00  0.00    +0.165 HD
ENDBRANCH   9  11
ENDBRANCH   1   9
TORSDOF 3
ENDMDL
