MODEL 1
REMARK VINA RESULT:      -6.4      0.000      0.000
REMARK  Name = 75536835
REMARK  9 active torsions:
REMARK  status: ('A' for Active; 'I' for Inactive)
REMARK    1  A    between atoms: O_2  and  C_10
REMARK    2  A    between atoms: N_4  and  C_8
REMARK    3  A    between atoms: N_4  and  C_9
REMARK    4  A    between atoms: N_5  and  C_18
REMARK    5  A    between atoms: N_6  and  C_17
REMARK    6  A    between atoms: N_7  and  C_20
REMARK    7  A    between atoms: C_11  and  C_17
REMARK    8  A    between atoms: C_20  and  C_21
REMARK    9  A    between atoms: C_20  and  C_22
REMARK                            x       y       z     vdW  Elec       q    Type
REMARK                         _______ _______ _______ _____ _____    ______ ____
ROOT
ATOM      1  O   UNL     1      10.604   8.515  19.849  0.00  0.00    -0.371 OA
ATOM      8  C   UNL     1      12.457   7.148  19.264  0.00  0.00    +0.111 C 
ATOM     10  C   UNL     1      12.329   7.189  20.775  0.00  0.00    +0.164 C 
ATOM     11  C   UNL     1      10.876   7.616  20.936  0.00  0.00    +0.165 C 
ATOM     14  C   UNL     1      11.638   8.363  18.860  0.00  0.00    +0.181 C 
ENDROOT
BRANCH  10   2
ATOM      2  O   UNL     1      12.580   5.934  21.380  0.00  0.00    -0.388 OA
ATOM     24  H   UNL     1      13.448   5.973  21.814  0.00  0.00    +0.210 HD
ENDBRANCH  10   2
BRANCH   8   4
ATOM      4  N   UNL     1      13.831   7.208  18.793  0.00  0.00    -0.306 NA
ATOM     23  H   UNL     1      13.920   7.906  18.056  0.00  0.00    +0.123 HD
BRANCH   4   9
ATOM      5  N   UNL     1      17.441   8.177  20.816  0.00  0.00    -0.305 NA
ATOM      9  C   UNL     1      14.743   7.521  19.890  0.00  0.00    +0.056 C 
ATOM     12  C   UNL     1      15.364   8.905  19.684  0.00  0.00    +0.034 C 
ATOM     13  C   UNL     1      15.847   6.466  20.004  0.00  0.00    +0.034 C 
ATOM     15  C   UNL     1      16.398   9.210  20.771  0.00  0.00    +0.085 C 
ATOM     16  C   UNL     1      16.865   6.850  21.080  0.00  0.00    +0.085 C 
ATOM     18  C   UNL     1      18.448   8.508  21.824  0.00  0.00    +0.104 C 
ENDBRANCH   4   9
ENDBRANCH   8   4
BRANCH  11  17
ATOM     17  C   UNL     1      10.597   8.309  22.258  0.00  0.00    +0.140 C 
BRANCH  17   6
ATOM      3  O   UNL     1      11.244  11.119  22.160  0.00  0.00    -0.253 OA
ATOM      6  N   UNL     1      11.776   8.942  22.774  0.00  0.00    -0.297 N 
ATOM      7  N   UNL     1      13.232  10.663  23.267  0.00  0.00    -0.297 N 
ATOM     19  C   UNL     1      12.015  10.317  22.686  0.00  0.00    +0.300 C 
ATOM     25  H   UNL     1      12.481   8.359  23.214  0.00  0.00    +0.150 HD
ATOM     26  H   UNL     1      13.763   9.940  23.743  0.00  0.00    +0.150 HD
BRANCH   7  20
ATOM     20  C   UNL     1      13.720  12.022  23.310  0.00  0.00    +0.068 C 
ATOM     21  C   UNL     1      14.390  12.307  24.649  0.00  0.00    +0.027 C 
ATOM     22  C   UNL     1      14.673  12.279  22.151  0.00  0.00    +0.027 C 
ENDBRANCH   7  20
ENDBRANCH  17   6
ENDBRANCH  11  17
TORSDOF 6
ENDMDL
MODEL 2
REMARK VINA RESULT:      -6.0      2.188      3.066
REMARK  Name = 75536835
REMARK  9 active torsions:
REMARK  status: ('A' for Active; 'I' for Inactive)
REMARK    1  A    between atoms: O_2  and  C_10
REMARK    2  A    between atoms: N_4  and  C_8
REMARK    3  A    between atoms: N_4  and  C_9
REMARK    4  A    between atoms: N_5  and  C_18
REMARK    5  A    between atoms: N_6  and  C_17
REMARK    6  A    between atoms: N_7  and  C_20
REMARK    7  A    between atoms: C_11  and  C_17
REMARK    8  A    between atoms: C_20  and  C_21
REMARK    9  A    between atoms: C_20  and  C_22
REMARK                            x       y       z     vdW  Elec       q    Type
REMARK                         _______ _______ _______ _____ _____    ______ ____
ROOT
ATOM      1  O   UNL     1      10.485   8.382  19.889  0.00  0.00    -0.371 OA
ATOM      8  C   UNL     1      12.530   7.412  19.170  0.00  0.00    +0.111 C 
ATOM     10  C   UNL     1      12.491   7.419  20.687  0.00  0.00    +0.164 C 
ATOM     11  C   UNL     1      10.996   7.549  20.942  0.00  0.00    +0.165 C 
ATOM     14  C   UNL     1      11.464   8.444  18.838  0.00  0.00    +0.181 C 
ENDROOT
BRANCH  10   2
ATOM      2  O   UNL     1      13.022   6.235  21.253  0.00  0.00    -0.388 OA
ATOM     24  H   UNL     1      13.855   6.027  20.798  0.00  0.00    +0.210 HD
ENDBRANCH  10   2
BRANCH   8   4
ATOM      4  N   UNL     1      13.833   7.745  18.618  0.00  0.00    -0.306 NA
ATOM     23  H   UNL     1      14.157   6.998  18.005  0.00  0.00    +0.123 HD
BRANCH   4   9
ATOM      5  N   UNL     1      15.110  11.017  16.225  0.00  0.00    -0.305 NA
ATOM      9  C   UNL     1      13.778   9.006  17.882  0.00  0.00    +0.056 C 
ATOM     12  C   UNL     1      14.088   8.770  16.402  0.00  0.00    +0.034 C 
ATOM     13  C   UNL     1      14.762  10.024  18.465  0.00  0.00    +0.034 C 
ATOM     15  C   UNL     1      14.134  10.093  15.632  0.00  0.00    +0.085 C 
ATOM     16  C   UNL     1      14.785  11.307  17.630  0.00  0.00    +0.085 C 
ATOM     18  C   UNL     1      15.178  12.256  15.450  0.00  0.00    +0.104 C 
ENDBRANCH   4   9
ENDBRANCH   8   4
BRANCH  11  17
ATOM     17  C   UNL     1      10.669   8.166  22.291  0.00  0.00    +0.140 C 
BRANCH  17   6
ATOM      3  O   UNL     1      10.991  11.034  22.324  0.00  0.00    -0.253 OA
ATOM      6  N   UNL     1      11.784   8.904  22.810  0.00  0.00    -0.297 N 
ATOM      7  N   UNL     1      13.051  10.754  23.358  0.00  0.00    -0.297 N 
ATOM     19  C   UNL     1      11.864  10.300  22.789  0.00  0.00    +0.300 C 
ATOM     25  H   UNL     1      12.563   8.385  23.203  0.00  0.00    +0.150 HD
ATOM     26  H   UNL     1      13.673  10.074  23.782  0.00  0.00    +0.150 HD
BRANCH   7  20
ATOM     20  C   UNL     1      13.383  12.156  23.460  0.00  0.00    +0.068 C 
ATOM     21  C   UNL     1      13.467  12.580  24.922  0.00  0.00    +0.027 C 
ATOM     22  C   UNL     1      14.684  12.447  22.725  0.00  0.00    +0.027 C 
ENDBRANCH   7  20
ENDBRANCH  17   6
ENDBRANCH  11  17
TORSDOF 6
ENDMDL
MODEL 3
REMARK VINA RESULT:      -6.0     28.229     30.602
REMARK  Name = 75536835
REMARK  9 active torsions:
REMARK  status: ('A' for Active; 'I' for Inactive)
REMARK    1  A    between atoms: O_2  and  C_10
REMARK    2  A    between atoms: N_4  and  C_8
REMARK    3  A    between atoms: N_4  and  C_9
REMARK    4  A    between atoms: N_5  and  C_18
REMARK    5  A    between atoms: N_6  and  C_17
REMARK    6  A    between atoms: N_7  and  C_20
REMARK    7  A    between atoms: C_11  and  C_17
REMARK    8  A    between atoms: C_20  and  C_21
REMARK    9  A    between atoms: C_20  and  C_22
REMARK                            x       y       z     vdW  Elec       q    Type
REMARK                         _______ _______ _______ _____ _____    ______ ____
ROOT
ATOM      1  O   UNL     1     -16.237   0.610  28.474  0.00  0.00    -0.371 OA
ATOM      8  C   UNL     1     -14.862   1.947  29.876  0.00  0.00    +0.111 C 
ATOM     10  C   UNL     1     -15.184   2.723  28.613  0.00  0.00    +0.164 C 
ATOM     11  C   UNL     1     -16.428   1.991  28.127  0.00  0.00    +0.165 C 
ATOM     14  C   UNL     1     -15.178   0.524  29.444  0.00  0.00    +0.181 C 
ENDROOT
BRANCH  10   2
ATOM      2  O   UNL     1     -15.441   4.092  28.863  0.00  0.00    -0.388 OA
ATOM     24  H   UNL     1     -16.389   4.195  29.053  0.00  0.00    +0.210 HD
ENDBRANCH  10   2
BRANCH   8   4
ATOM      4  N   UNL     1     -13.491   2.111  30.329  0.00  0.00    -0.306 NA
ATOM     23  H   UNL     1     -12.982   2.726  29.695  0.00  0.00    +0.123 HD
BRANCH   4   9
ATOM      5  N   UNL     1     -14.756   4.136  33.844  0.00  0.00    -0.305 NA
ATOM      9  C   UNL     1     -13.453   2.649  31.686  0.00  0.00    +0.056 C 
ATOM     12  C   UNL     1     -14.583   2.048  32.526  0.00  0.00    +0.034 C 
ATOM     13  C   UNL     1     -13.568   4.176  31.673  0.00  0.00    +0.034 C 
ATOM     15  C   UNL     1     -14.623   2.675  33.923  0.00  0.00    +0.085 C 
ATOM     16  C   UNL     1     -13.640   4.734  33.097  0.00  0.00    +0.085 C 
ATOM     18  C   UNL     1     -14.843   4.715  35.185  0.00  0.00    +0.104 C 
ENDBRANCH   4   9
ENDBRANCH   8   4
BRANCH  11  17
ATOM     17  C   UNL     1     -16.654   2.119  26.631  0.00  0.00    +0.140 C 
BRANCH  17   6
ATOM      3  O   UNL     1     -16.143   2.689  23.849  0.00  0.00    -0.253 OA
ATOM      6  N   UNL     1     -15.962   3.256  26.095  0.00  0.00    -0.297 N 
ATOM      7  N   UNL     1     -15.058   4.640  24.485  0.00  0.00    -0.297 N 
ATOM     19  C   UNL     1     -15.755   3.459  24.727  0.00  0.00    +0.300 C 
ATOM     25  H   UNL     1     -15.590   3.942  26.744  0.00  0.00    +0.150 HD
ATOM     26  H   UNL     1     -14.848   5.246  25.271  0.00  0.00    +0.150 HD
BRANCH   7  20
ATOM     20  C   UNL     1     -14.713   5.086  23.155  0.00  0.00    +0.068 C 
ATOM     21  C   UNL     1     -15.125   6.539  22.955  0.00  0.00    +0.027 C 
ATOM     22  C   UNL     1     -13.224   4.894  22.902  0.00  0.00    +0.027 C 
ENDBRANCH   7  20
ENDBRANCH  17   6
ENDBRANCH  11  17
TORSDOF 6
ENDMDL
MODEL 4
REMARK VINA RESULT:      -5.8     26.215     29.168
REMARK  Name = 75536835
REMARK  9 active torsions:
REMARK  status: ('A' for Active; 'I' for Inactive)
REMARK    1  A    between atoms: O_2  and  C_10
REMARK    2  A    between atoms: N_4  and  C_8
REMARK    3  A    between atoms: N_4  and  C_9
REMARK    4  A    between atoms: N_5  and  C_18
REMARK    5  A    between atoms: N_6  and  C_17
REMARK    6  A    between atoms: N_7  and  C_20
REMARK    7  A    between atoms: C_11  and  C_17
REMARK    8  A    between atoms: C_20  and  C_21
REMARK    9  A    between atoms: C_20  and  C_22
REMARK                            x       y       z     vdW  Elec       q    Type
REMARK                         _______ _______ _______ _____ _____    ______ ____
ROOT
ATOM      1  O   UNL     1      -8.643 -11.037  18.699  0.00  0.00    -0.371 OA
ATOM      8  C   UNL     1      -9.225  -9.163  17.361  0.00  0.00    +0.111 C 
ATOM     10  C   UNL     1      -7.716  -9.314  17.372  0.00  0.00    +0.164 C 
ATOM     11  C   UNL     1      -7.569 -10.773  17.782  0.00  0.00    +0.165 C 
ATOM     14  C   UNL     1      -9.619  -9.987  18.576  0.00  0.00    +0.181 C 
ENDROOT
BRANCH  10   2
ATOM      2  O   UNL     1      -7.132  -9.060  16.108  0.00  0.00    -0.388 OA
ATOM     24  H   UNL     1      -7.490  -9.702  15.472  0.00  0.00    +0.210 HD
ENDBRANCH  10   2
BRANCH   8   4
ATOM      4  N   UNL     1      -9.675  -7.783  17.442  0.00  0.00    -0.306 NA
ATOM     23  H   UNL     1      -8.906  -7.178  17.729  0.00  0.00    +0.123 HD
BRANCH   4   9
ATOM      5  N   UNL     1     -12.504  -6.947  14.383  0.00  0.00    -0.305 NA
ATOM      9  C   UNL     1     -10.210  -7.335  16.159  0.00  0.00    +0.056 C 
ATOM     12  C   UNL     1     -11.229  -6.212  16.373  0.00  0.00    +0.034 C 
ATOM     13  C   UNL     1     -10.864  -8.495  15.403  0.00  0.00    +0.034 C 
ATOM     15  C   UNL     1     -11.875  -5.798  15.048  0.00  0.00    +0.085 C 
ATOM     16  C   UNL     1     -11.522  -8.007  14.110  0.00  0.00    +0.085 C 
ATOM     18  C   UNL     1     -13.160  -6.526  13.145  0.00  0.00    +0.104 C 
ENDBRANCH   4   9
ENDBRANCH   8   4
BRANCH  11  17
ATOM     17  C   UNL     1      -6.239 -11.078  18.447  0.00  0.00    +0.140 C 
BRANCH  17   6
ATOM      3  O   UNL     1      -4.402 -12.369  16.634  0.00  0.00    -0.253 OA
ATOM      6  N   UNL     1      -5.150 -10.468  17.740  0.00  0.00    -0.297 N 
ATOM      7  N   UNL     1      -3.334 -10.332  16.323  0.00  0.00    -0.297 N 
ATOM     19  C   UNL     1      -4.302 -11.166  16.875  0.00  0.00    +0.300 C 
ATOM     25  H   UNL     1      -4.977  -9.478  17.886  0.00  0.00    +0.150 HD
ATOM     26  H   UNL     1      -3.381  -9.338  16.525  0.00  0.00    +0.150 HD
BRANCH   7  20
ATOM     20  C   UNL     1      -2.332 -10.804  15.396  0.00  0.00    +0.068 C 
ATOM     21  C   UNL     1      -2.788 -10.586  13.958  0.00  0.00    +0.027 C 
ATOM     22  C   UNL     1      -0.999 -10.116  15.662  0.00  0.00    +0.027 C 
ENDBRANCH   7  20
ENDBRANCH  17   6
ENDBRANCH  11  17
TORSDOF 6
ENDMDL
MODEL 5
REMARK VINA RESULT:      -5.8     25.881     28.149
REMARK  Name = 75536835
REMARK  9 active torsions:
REMARK  status: ('A' for Active; 'I' for Inactive)
REMARK    1  A    between atoms: O_2  and  C_10
REMARK    2  A    between atoms: N_4  and  C_8
REMARK    3  A    between atoms: N_4  and  C_9
REMARK    4  A    between atoms: N_5  and  C_18
REMARK    5  A    between atoms: N_6  and  C_17
REMARK    6  A    between atoms: N_7  and  C_20
REMARK    7  A    between atoms: C_11  and  C_17
REMARK    8  A    between atoms: C_20  and  C_21
REMARK    9  A    between atoms: C_20  and  C_22
REMARK                            x       y       z     vdW  Elec       q    Type
REMARK                         _______ _______ _______ _____ _____    ______ ____
ROOT
ATOM      1  O   UNL     1      -1.232 -11.217  15.005  0.00  0.00    -0.371 OA
ATOM      8  C   UNL     1      -3.398 -10.935  15.939  0.00  0.00    +0.111 C 
ATOM     10  C   UNL     1      -3.506 -10.930  14.425  0.00  0.00    +0.164 C 
ATOM     11  C   UNL     1      -2.210 -11.626  14.035  0.00  0.00    +0.165 C 
ATOM     14  C   UNL     1      -1.918 -10.650  16.135  0.00  0.00    +0.181 C 
ENDROOT
BRANCH  10   2
ATOM      2  O   UNL     1      -4.643 -11.630  13.956  0.00  0.00    -0.388 OA
ATOM     24  H   UNL     1      -4.343 -12.456  13.542  0.00  0.00    +0.210 HD
ENDBRANCH  10   2
BRANCH   8   4
ATOM      4  N   UNL     1      -4.255  -9.958  16.589  0.00  0.00    -0.306 NA
ATOM     23  H   UNL     1      -4.513  -9.223  15.932  0.00  0.00    +0.123 HD
BRANCH   4   9
ATOM      5  N   UNL     1      -7.762 -10.515  18.924  0.00  0.00    -0.305 NA
ATOM      9  C   UNL     1      -5.456 -10.595  17.124  0.00  0.00    +0.056 C 
ATOM     12  C   UNL     1      -6.686  -9.729  16.838  0.00  0.00    +0.034 C 
ATOM     13  C   UNL     1      -5.325 -10.834  18.631  0.00  0.00    +0.034 C 
ATOM     15  C   UNL     1      -7.941 -10.330  17.478  0.00  0.00    +0.085 C 
ATOM     16  C   UNL     1      -6.623 -11.399  19.212  0.00  0.00    +0.085 C 
ATOM     18  C   UNL     1      -8.985 -11.042  19.529  0.00  0.00    +0.104 C 
ENDBRANCH   4   9
ENDBRANCH   8   4
BRANCH  11  17
ATOM     17  C   UNL     1      -1.732 -11.266  12.640  0.00  0.00    +0.140 C 
BRANCH  17   6
ATOM      3  O   UNL     1      -2.117  -9.186  10.677  0.00  0.00    -0.253 OA
ATOM      6  N   UNL     1      -2.833 -11.129  11.731  0.00  0.00    -0.297 N 
ATOM      7  N   UNL     1      -4.110 -10.196  10.049  0.00  0.00    -0.297 N 
ATOM     19  C   UNL     1      -2.946 -10.087  10.805  0.00  0.00    +0.300 C 
ATOM     25  H   UNL     1      -3.578 -11.818  11.771  0.00  0.00    +0.150 HD
ATOM     26  H   UNL     1      -4.693 -11.017  10.178  0.00  0.00    +0.150 HD
BRANCH   7  20
ATOM     20  C   UNL     1      -4.468  -9.246   9.022  0.00  0.00    +0.068 C 
ATOM     21  C   UNL     1      -5.103  -9.958   7.833  0.00  0.00    +0.027 C 
ATOM     22  C   UNL     1      -5.396  -8.180   9.587  0.00  0.00    +0.027 C 
ENDBRANCH   7  20
ENDBRANCH  17   6
ENDBRANCH  11  17
TORSDOF 6
ENDMDL
MODEL 6
REMARK VINA RESULT:      -5.7     27.798     30.576
REMARK  Name = 75536835
REMARK  9 active torsions:
REMARK  status: ('A' for Active; 'I' for Inactive)
REMARK    1  A    between atoms: O_2  and  C_10
REMARK    2  A    between atoms: N_4  and  C_8
REMARK    3  A    between atoms: N_4  and  C_9
REMARK    4  A    between atoms: N_5  and  C_18
REMARK    5  A    between atoms: N_6  and  C_17
REMARK    6  A    between atoms: N_7  and  C_20
REMARK    7  A    between atoms: C_11  and  C_17
REMARK    8  A    between atoms: C_20  and  C_21
REMARK    9  A    between atoms: C_20  and  C_22
REMARK                            x       y       z     vdW  Elec       q    Type
REMARK                         _______ _______ _______ _____ _____    ______ ____
ROOT
ATOM      1  O   UNL     1     -12.504  -7.984  15.321  0.00  0.00    -0.371 OA
ATOM      8  C   UNL     1     -11.889  -5.945  14.270  0.00  0.00    +0.111 C 
ATOM     10  C   UNL     1     -11.085  -6.107  15.546  0.00  0.00    +0.164 C 
ATOM     11  C   UNL     1     -11.193  -7.608  15.774  0.00  0.00    +0.165 C 
ATOM     14  C   UNL     1     -13.031  -6.920  14.509  0.00  0.00    +0.181 C 
ENDROOT
BRANCH  10   2
ATOM      2  O   UNL     1      -9.740  -5.691  15.400  0.00  0.00    -0.388 OA
ATOM     24  H   UNL     1      -9.537  -5.640  14.451  0.00  0.00    +0.210 HD
ENDBRANCH  10   2
BRANCH   8   4
ATOM      4  N   UNL     1     -12.346  -4.584  14.036  0.00  0.00    -0.306 NA
ATOM     23  H   UNL     1     -11.552  -3.946  14.009  0.00  0.00    +0.123 HD
BRANCH   4   9
ATOM      5  N   UNL     1     -14.326  -2.862  10.693  0.00  0.00    -0.305 NA
ATOM      9  C   UNL     1     -13.099  -4.498  12.787  0.00  0.00    +0.056 C 
ATOM     12  C   UNL     1     -12.269  -3.783  11.717  0.00  0.00    +0.034 C 
ATOM     13  C   UNL     1     -14.426  -3.761  12.997  0.00  0.00    +0.034 C 
ATOM     15  C   UNL     1     -13.079  -3.593  10.431  0.00  0.00    +0.085 C 
ATOM     16  C   UNL     1     -15.165  -3.572  11.670  0.00  0.00    +0.085 C 
ATOM     18  C   UNL     1     -15.063  -2.645   9.448  0.00  0.00    +0.104 C 
ENDBRANCH   4   9
ENDBRANCH   8   4
BRANCH  11  17
ATOM     17  C   UNL     1     -11.017  -8.009  17.227  0.00  0.00    +0.140 C 
BRANCH  17   6
ATOM      3  O   UNL     1      -9.539 -10.480  17.414  0.00  0.00    -0.253 OA
ATOM      6  N   UNL     1      -9.630  -8.163  17.561  0.00  0.00    -0.297 N 
ATOM      7  N   UNL     1      -7.644  -9.264  17.973  0.00  0.00    -0.297 N 
ATOM     19  C   UNL     1      -8.986  -9.402  17.630  0.00  0.00    +0.300 C 
ATOM     25  H   UNL     1      -9.091  -7.329  17.771  0.00  0.00    +0.150 HD
ATOM     26  H   UNL     1      -7.262  -8.327  18.056  0.00  0.00    +0.150 HD
BRANCH   7  20
ATOM     20  C   UNL     1      -6.751 -10.390  18.112  0.00  0.00    +0.068 C 
ATOM     21  C   UNL     1      -5.570 -10.259  17.158  0.00  0.00    +0.027 C 
ATOM     22  C   UNL     1      -6.283 -10.519  19.556  0.00  0.00    +0.027 C 
ENDBRANCH   7  20
ENDBRANCH  17   6
ENDBRANCH  11  17
TORSDOF 6
ENDMDL
MODEL 7
REMARK VINA RESULT:      -5.7     26.294     29.252
REMARK  Name = 75536835
REMARK  9 active torsions:
REMARK  status: ('A' for Active; 'I' for Inactive)
REMARK    1  A    between atoms: O_2  and  C_10
REMARK    2  A    between atoms: N_4  and  C_8
REMARK    3  A    between atoms: N_4  and  C_9
REMARK    4  A    between atoms: N_5  and  C_18
REMARK    5  A    between atoms: N_6  and  C_17
REMARK    6  A    between atoms: N_7  and  C_20
REMARK    7  A    between atoms: C_11  and  C_17
REMARK    8  A    between atoms: C_20  and  C_21
REMARK    9  A    between atoms: C_20  and  C_22
REMARK                            x       y       z     vdW  Elec       q    Type
REMARK                         _______ _______ _______ _____ _____    ______ ____
ROOT
ATOM      1  O   UNL     1      -7.403 -12.546  19.261  0.00  0.00    -0.371 OA
ATOM      8  C   UNL     1      -8.736 -10.791  18.375  0.00  0.00    +0.111 C 
ATOM     10  C   UNL     1      -7.283 -10.356  18.377  0.00  0.00    +0.164 C 
ATOM     11  C   UNL     1      -6.574 -11.701  18.446  0.00  0.00    +0.165 C 
ATOM     14  C   UNL     1      -8.706 -11.945  19.364  0.00  0.00    +0.181 C 
ENDROOT
BRANCH  10   2
ATOM      2  O   UNL     1      -6.928  -9.632  17.214  0.00  0.00    -0.388 OA
ATOM     24  H   UNL     1      -6.064  -9.953  16.907  0.00  0.00    +0.210 HD
ENDBRANCH  10   2
BRANCH   8   4
ATOM      4  N   UNL     1      -9.661  -9.738  18.762  0.00  0.00    -0.306 NA
ATOM     23  H   UNL     1      -9.163  -8.992  19.246  0.00  0.00    +0.123 HD
BRANCH   4   9
ATOM      5  N   UNL     1     -12.055  -7.140  16.399  0.00  0.00    -0.305 NA
ATOM      9  C   UNL     1     -10.353  -9.200  17.593  0.00  0.00    +0.056 C 
ATOM     12  C   UNL     1      -9.833  -7.797  17.269  0.00  0.00    +0.034 C 
ATOM     13  C   UNL     1     -11.866  -9.154  17.826  0.00  0.00    +0.034 C 
ATOM     15  C   UNL     1     -10.616  -7.176  16.108  0.00  0.00    +0.085 C 
ATOM     16  C   UNL     1     -12.583  -8.490  16.647  0.00  0.00    +0.085 C 
ATOM     18  C   UNL     1     -12.784  -6.499  15.304  0.00  0.00    +0.104 C 
ENDBRANCH   4   9
ENDBRANCH   8   4
BRANCH  11  17
ATOM     17  C   UNL     1      -5.181 -11.616  19.046  0.00  0.00    +0.140 C 
BRANCH  17   6
ATOM      3  O   UNL     1      -4.183 -10.000  16.873  0.00  0.00    -0.253 OA
ATOM      6  N   UNL     1      -4.178 -11.981  18.087  0.00  0.00    -0.297 N 
ATOM      7  N   UNL     1      -2.767 -11.740  16.277  0.00  0.00    -0.297 N 
ATOM     19  C   UNL     1      -3.748 -11.136  17.060  0.00  0.00    +0.300 C 
ATOM     25  H   UNL     1      -3.768 -12.908  18.151  0.00  0.00    +0.150 HD
ATOM     26  H   UNL     1      -2.420 -12.652  16.557  0.00  0.00    +0.150 HD
BRANCH   7  20
ATOM     20  C   UNL     1      -2.153 -11.082  15.147  0.00  0.00    +0.068 C 
ATOM     21  C   UNL     1      -0.975 -10.229  15.601  0.00  0.00    +0.027 C 
ATOM     22  C   UNL     1      -1.724 -12.108  14.107  0.00  0.00    +0.027 C 
ENDBRANCH   7  20
ENDBRANCH  17   6
ENDBRANCH  11  17
TORSDOF 6
ENDMDL
MODEL 8
REMARK VINA RESULT:      -5.6     28.523     30.088
REMARK  Name = 75536835
REMARK  9 active torsions:
REMARK  status: ('A' for Active; 'I' for Inactive)
REMARK    1  A    between atoms: O_2  and  C_10
REMARK    2  A    between atoms: N_4  and  C_8
REMARK    3  A    between atoms: N_4  and  C_9
REMARK    4  A    between atoms: N_5  and  C_18
REMARK    5  A    between atoms: N_6  and  C_17
REMARK    6  A    between atoms: N_7  and  C_20
REMARK    7  A    between atoms: C_11  and  C_17
REMARK    8  A    between atoms: C_20  and  C_21
REMARK    9  A    between atoms: C_20  and  C_22
REMARK                            x       y       z     vdW  Elec       q    Type
REMARK                         _______ _______ _______ _____ _____    ______ ____
ROOT
ATOM      1  O   UNL     1     -12.210  -7.764  14.107  0.00  0.00    -0.371 OA
ATOM      8  C   UNL     1     -10.451  -7.976  15.689  0.00  0.00    +0.111 C 
ATOM     10  C   UNL     1     -10.902  -6.528  15.640  0.00  0.00    +0.164 C 
ATOM     11  C   UNL     1     -12.292  -6.673  15.038  0.00  0.00    +0.165 C 
ATOM     14  C   UNL     1     -11.010  -8.509  14.380  0.00  0.00    +0.181 C 
ENDROOT
BRANCH  10   2
ATOM      2  O   UNL     1     -10.941  -5.924  16.919  0.00  0.00    -0.388 OA
ATOM     24  H   UNL     1     -10.323  -6.399  17.500  0.00  0.00    +0.210 HD
ENDBRANCH  10   2
BRANCH   8   4
ATOM      4  N   UNL     1      -9.010  -8.136  15.797  0.00  0.00    -0.306 NA
ATOM     23  H   UNL     1      -8.550  -7.227  15.750  0.00  0.00    +0.123 HD
BRANCH   4   9
ATOM      5  N   UNL     1      -7.917 -11.265  18.457  0.00  0.00    -0.305 NA
ATOM      9  C   UNL     1      -8.655  -8.811  17.043  0.00  0.00    +0.056 C 
ATOM     12  C   UNL     1      -7.260  -9.431  16.930  0.00  0.00    +0.034 C 
ATOM     13  C   UNL     1      -9.680  -9.894  17.391  0.00  0.00    +0.034 C 
ATOM     15  C   UNL     1      -6.910 -10.229  18.190  0.00  0.00    +0.085 C 
ATOM     16  C   UNL     1      -9.253 -10.677  18.635  0.00  0.00    +0.085 C 
ATOM     18  C   UNL     1      -7.543 -12.050  19.634  0.00  0.00    +0.104 C 
ENDBRANCH   4   9
ENDBRANCH   8   4
BRANCH  11  17
ATOM     17  C   UNL     1     -12.770  -5.422  14.322  0.00  0.00    +0.140 C 
BRANCH  17   6
ATOM      3  O   UNL     1     -12.235  -3.177  12.589  0.00  0.00    -0.253 OA
ATOM      6  N   UNL     1     -12.449  -5.466  12.925  0.00  0.00    -0.297 N 
ATOM      7  N   UNL     1     -11.915  -4.657  10.830  0.00  0.00    -0.297 N 
ATOM     19  C   UNL     1     -12.202  -4.327  12.152  0.00  0.00    +0.300 C 
ATOM     25  H   UNL     1     -12.413  -6.373  12.469  0.00  0.00    +0.150 HD
ATOM     26  H   UNL     1     -11.838  -5.639  10.584  0.00  0.00    +0.150 HD
BRANCH   7  20
ATOM     20  C   UNL     1     -11.623  -3.665   9.822  0.00  0.00    +0.068 C 
ATOM     21  C   UNL     1     -10.419  -4.088   8.988  0.00  0.00    +0.027 C 
ATOM     22  C   UNL     1     -12.845  -3.425   8.945  0.00  0.00    +0.027 C 
ENDBRANCH   7  20
ENDBRANCH  17   6
ENDBRANCH  11  17
TORSDOF 6
ENDMDL
MODEL 9
REMARK VINA RESULT:      -5.4     21.611     24.776
REMARK  Name = 75536835
REMARK  9 active torsions:
REMARK  status: ('A' for Active; 'I' for Inactive)
REMARK    1  A    between atoms: O_2  and  C_10
REMARK    2  A    between atoms: N_4  and  C_8
REMARK    3  A    between atoms: N_4  and  C_9
REMARK    4  A    between atoms: N_5  and  C_18
REMARK    5  A    between atoms: N_6  and  C_17
REMARK    6  A    between atoms: N_7  and  C_20
REMARK    7  A    between atoms: C_11  and  C_17
REMARK    8  A    between atoms: C_20  and  C_21
REMARK    9  A    between atoms: C_20  and  C_22
REMARK                            x       y       z     vdW  Elec       q    Type
REMARK                         _______ _______ _______ _____ _____    ______ ____
ROOT
ATOM      1  O   UNL     1      -2.488  11.367  36.395  0.00  0.00    -0.371 OA
ATOM      8  C   UNL     1      -4.549  10.190  36.310  0.00  0.00    +0.111 C 
ATOM     10  C   UNL     1      -3.410   9.190  36.374  0.00  0.00    +0.164 C 
ATOM     11  C   UNL     1      -2.293  10.053  36.942  0.00  0.00    +0.165 C 
ATOM     14  C   UNL     1      -3.821  11.447  35.861  0.00  0.00    +0.181 C 
ENDROOT
BRANCH  10   2
ATOM      2  O   UNL     1      -3.700   8.084  37.208  0.00  0.00    -0.388 OA
ATOM     24  H   UNL     1      -3.157   7.332  36.917  0.00  0.00    +0.210 HD
ENDBRANCH  10   2
BRANCH   8   4
ATOM      4  N   UNL     1      -5.619   9.801  35.405  0.00  0.00    -0.306 NA
ATOM     23  H   UNL     1      -5.491   8.835  35.103  0.00  0.00    +0.123 HD
BRANCH   4   9
ATOM      5  N   UNL     1      -9.610   8.922  36.573  0.00  0.00    -0.305 NA
ATOM      9  C   UNL     1      -6.923   9.955  36.046  0.00  0.00    +0.056 C 
ATOM     12  C   UNL     1      -7.177   8.797  37.014  0.00  0.00    +0.034 C 
ATOM     13  C   UNL     1      -8.042  10.018  35.002  0.00  0.00    +0.034 C 
ATOM     15  C   UNL     1      -8.581   8.887  37.620  0.00  0.00    +0.085 C 
ATOM     16  C   UNL     1      -9.417  10.069  35.673  0.00  0.00    +0.085 C 
ATOM     18  C   UNL     1     -10.946   8.957  37.167  0.00  0.00    +0.104 C 
ENDBRANCH   4   9
ENDBRANCH   8   4
BRANCH  11  17
ATOM     17  C   UNL     1      -0.905   9.549  36.587  0.00  0.00    +0.140 C 
BRANCH  17   6
ATOM      3  O   UNL     1      -0.413   8.571  39.257  0.00  0.00    -0.253 OA
ATOM      6  N   UNL     1      -0.728   8.183  36.988  0.00  0.00    -0.297 N 
ATOM      7  N   UNL     1      -0.360   6.408  38.417  0.00  0.00    -0.297 N 
ATOM     19  C   UNL     1      -0.493   7.790  38.309  0.00  0.00    +0.300 C 
ATOM     25  H   UNL     1      -0.762   7.464  36.272  0.00  0.00    +0.150 HD
ATOM     26  H   UNL     1      -0.518   5.843  37.589  0.00  0.00    +0.150 HD
BRANCH   7  20
ATOM     20  C   UNL     1      -0.111   5.742  39.673  0.00  0.00    +0.068 C 
ATOM     21  C   UNL     1      -1.383   5.080  40.189  0.00  0.00    +0.027 C 
ATOM     22  C   UNL     1       1.016   4.729  39.521  0.00  0.00    +0.027 C 
ENDBRANCH   7  20
ENDBRANCH  17   6
ENDBRANCH  11  17
TORSDOF 6
ENDMDL
MODEL 10
REMARK VINA RESULT:      -5.3     33.093     35.066
REMARK  Name = 75536835
REMARK  9 active torsions:
REMARK  status: ('A' for Active; 'I' for Inactive)
REMARK    1  A    between atoms: O_2  and  C_10
REMARK    2  A    between atoms: N_4  and  C_8
REMARK    3  A    between atoms: N_4  and  C_9
REMARK    4  A    between atoms: N_5  and  C_18
REMARK    5  A    between atoms: N_6  and  C_17
REMARK    6  A    between atoms: N_7  and  C_20
REMARK    7  A    between atoms: C_11  and  C_17
REMARK    8  A    between atoms: C_20  and  C_21
REMARK    9  A    between atoms: C_20  and  C_22
REMARK                            x       y       z     vdW  Elec       q    Type
REMARK                         _______ _______ _______ _____ _____    ______ ____
ROOT
ATOM      1  O   UNL     1      -1.864 -15.755  -1.619  0.00  0.00    -0.371 OA
ATOM      8  C   UNL     1      -1.178 -14.314   0.140  0.00  0.00    +0.111 C 
ATOM     10  C   UNL     1      -1.745 -13.478  -0.991  0.00  0.00    +0.164 C 
ATOM     11  C   UNL     1      -2.579 -14.514  -1.732  0.00  0.00    +0.165 C 
ATOM     14  C   UNL     1      -0.887 -15.626  -0.571  0.00  0.00    +0.181 C 
ENDROOT
BRANCH  10   2
ATOM      2  O   UNL     1      -2.534 -12.398  -0.530  0.00  0.00    -0.388 OA
ATOM     24  H   UNL     1      -1.958 -11.622  -0.428  0.00  0.00    +0.210 HD
ENDBRANCH  10   2
BRANCH   8   4
ATOM      4  N   UNL     1       0.002 -13.733   0.761  0.00  0.00    -0.306 NA
ATOM     23  H   UNL     1      -0.231 -13.364   1.682  0.00  0.00    +0.123 HD
BRANCH   4   9
ATOM      5  N   UNL     1       3.675 -15.507   1.953  0.00  0.00    -0.305 NA
ATOM      9  C   UNL     1       1.069 -14.724   0.876  0.00  0.00    +0.056 C 
ATOM     12  C   UNL     1       1.260 -15.129   2.341  0.00  0.00    +0.034 C 
ATOM     13  C   UNL     1       2.384 -14.182   0.310  0.00  0.00    +0.034 C 
ATOM     15  C   UNL     1       2.441 -16.092   2.494  0.00  0.00    +0.085 C 
ATOM     16  C   UNL     1       3.528 -15.175   0.529  0.00  0.00    +0.085 C 
ATOM     18  C   UNL     1       4.803 -16.417   2.153  0.00  0.00    +0.104 C 
ENDBRANCH   4   9
ENDBRANCH   8   4
BRANCH  11  17
ATOM     17  C   UNL     1      -2.794 -14.176  -3.197  0.00  0.00    +0.140 C 
BRANCH  17   6
ATOM      3  O   UNL     1      -0.196 -14.266  -4.451  0.00  0.00    -0.253 OA
ATOM      6  N   UNL     1      -1.988 -13.059  -3.597  0.00  0.00    -0.297 N 
ATOM      7  N   UNL     1      -0.172 -11.946  -4.487  0.00  0.00    -0.297 N 
ATOM     19  C   UNL     1      -0.734 -13.188  -4.202  0.00  0.00    +0.300 C 
ATOM     25  H   UNL     1      -2.341 -12.123  -3.419  0.00  0.00    +0.150 HD
ATOM     26  H   UNL     1      -0.727 -11.114  -4.312  0.00  0.00    +0.150 HD
BRANCH   7  20
ATOM     20  C   UNL     1       1.120 -11.797  -5.113  0.00  0.00    +0.068 C 
ATOM     21  C   UNL     1       1.002 -11.944  -6.625  0.00  0.00    +0.027 C 
ATOM     22  C   UNL     1       1.741 -10.458  -4.736  0.00  0.00    +0.027 C 
ENDBRANCH   7  20
ENDBRANCH  17   6
ENDBRANCH  11  17
TORSDOF 6
ENDMDL
