MODEL 1
REMARK VINA RESULT:      -8.3      0.000      0.000
REMARK  Name = 40780204
REMARK  7 active torsions:
REMARK  status: ('A' for Active; 'I' for Inactive)
REMARK    1  A    between atoms: N_5  and  C_15
REMARK    2  A    between atoms: N_7  and  C_22
REMARK    3  A    between atoms: N_8  and  C_30
REMARK    4  A    between atoms: C_10  and  C_15
REMARK    5  A    between atoms: C_12  and  C_22
REMARK    6  A    between atoms: C_35  and  C_36
REMARK    7  A    between atoms: C_36  and  C_37
REMARK                            x       y       z     vdW  Elec       q    Type
REMARK                         _______ _______ _______ _____ _____    ______ ____
ROOT
ATOM      4  N   UNL     1     -11.189  -9.315  16.941  0.00  0.00    -0.298 NA
ATOM      9  C   UNL     1      -9.285 -10.193  15.402  0.00  0.00    -0.003 C 
ATOM     10  C   UNL     1      -8.867 -10.257  16.889  0.00  0.00    +0.020 C 
ATOM     11  C   UNL     1      -9.666  -8.745  15.043  0.00  0.00    +0.024 C 
ATOM     12  C   UNL     1     -10.892  -8.317  15.879  0.00  0.00    +0.074 C 
ATOM     13  C   UNL     1      -9.972  -9.593  17.741  0.00  0.00    +0.089 C 
ATOM     14  C   UNL     1     -10.557 -11.049  15.258  0.00  0.00    +0.019 C 
ATOM     16  C   UNL     1     -11.606 -10.575  16.281  0.00  0.00    +0.085 C 
ENDROOT
BRANCH  10  15
ATOM     15  C   UNL     1      -7.509  -9.640  17.156  0.00  0.00    +0.089 C 
BRANCH  15   5
ATOM      1  O   UNL     1      -4.042 -13.079  13.409  0.00  0.00    -0.268 OA
ATOM      5  N   UNL     1      -6.444 -10.638  17.080  0.00  0.00    -0.301 NA
ATOM      6  N   UNL     1      -4.135 -12.273  15.606  0.00  0.00    -0.312 N 
ATOM     17  C   UNL     1      -5.862 -13.064  17.324  0.00  0.00    +0.024 C 
ATOM     18  C   UNL     1      -4.217 -11.361  17.952  0.00  0.00    +0.050 C 
ATOM     19  C   UNL     1      -6.966 -11.986  17.340  0.00  0.00    +0.089 C 
ATOM     20  C   UNL     1      -5.342 -10.302  17.994  0.00  0.00    +0.094 C 
ATOM     21  C   UNL     1      -4.784 -12.723  18.344  0.00  0.00    +0.017 C 
ATOM     23  C   UNL     1      -5.208 -13.217  15.944  0.00  0.00    +0.130 C 
ATOM     24  C   UNL     1      -3.591 -11.417  16.570  0.00  0.00    +0.026 A 
ATOM     25  C   UNL     1      -2.538 -10.639  16.266  0.00  0.00    +0.022 A 
ATOM     26  C   UNL     1      -3.620 -12.338  14.298  0.00  0.00    +0.251 A 
ATOM     27  C   UNL     1      -1.968 -10.657  14.949  0.00  0.00    +0.007 A 
ATOM     28  C   UNL     1      -2.467 -11.445  13.995  0.00  0.00    +0.070 A 
ENDBRANCH  15   5
ENDBRANCH  10  15
BRANCH  12  22
ATOM     22  C   UNL     1     -10.733  -6.901  16.436  0.00  0.00    +0.124 C 
BRANCH  22   7
ATOM      2  O   UNL     1     -13.052  -6.272  14.878  0.00  0.00    -0.253 OA
ATOM      7  N   UNL     1     -10.824  -5.928  15.391  0.00  0.00    -0.298 N 
ATOM      8  N   UNL     1     -11.789  -4.674  13.712  0.00  0.00    -0.269 N 
ATOM     29  C   UNL     1     -12.001  -5.672  14.666  0.00  0.00    +0.304 C 
ATOM     38  H   UNL     1      -9.991  -5.395  15.158  0.00  0.00    +0.150 HD
ATOM     39  H   UNL     1     -10.853  -4.279  13.666  0.00  0.00    +0.156 HD
BRANCH   8  30
ATOM     30  C   UNL     1     -12.722  -4.139  12.793  0.00  0.00    +0.035 A 
ATOM     31  C   UNL     1     -13.976  -3.721  13.238  0.00  0.00    +0.024 A 
ATOM     32  C   UNL     1     -12.389  -4.031  11.443  0.00  0.00    +0.024 A 
ATOM     33  C   UNL     1     -14.897  -3.194  12.332  0.00  0.00    +0.013 A 
ATOM     34  C   UNL     1     -13.310  -3.504  10.538  0.00  0.00    +0.013 A 
ATOM     35  C   UNL     1     -14.564  -3.085  10.983  0.00  0.00    +0.017 A 
BRANCH  35  36
ATOM      3  O   UNL     1     -16.733  -2.430  10.328  0.00  0.00    -0.292 OA
ATOM     36  C   UNL     1     -15.525  -2.536  10.038  0.00  0.00    +0.160 C 
ATOM     37  C   UNL     1     -15.068  -2.074   8.659  0.00  0.00    +0.091 C 
ENDBRANCH  35  36
ENDBRANCH   8  30
ENDBRANCH  22   7
ENDBRANCH  12  22
TORSDOF 6
ENDMDL
MODEL 2
REMARK VINA RESULT:      -8.2     25.930     29.408
REMARK  Name = 40780204
REMARK  7 active torsions:
REMARK  status: ('A' for Active; 'I' for Inactive)
REMARK    1  A    between atoms: N_5  and  C_15
REMARK    2  A    between atoms: N_7  and  C_22
REMARK    3  A    between atoms: N_8  and  C_30
REMARK    4  A    between atoms: C_10  and  C_15
REMARK    5  A    between atoms: C_12  and  C_22
REMARK    6  A    between atoms: C_35  and  C_36
REMARK    7  A    between atoms: C_36  and  C_37
REMARK                            x       y       z     vdW  Elec       q    Type
REMARK                         _______ _______ _______ _____ _____    ______ ____
ROOT
ATOM      4  N   UNL     1      15.447   8.584   5.651  0.00  0.00    -0.298 NA
ATOM      9  C   UNL     1      12.868   8.920   5.679  0.00  0.00    -0.003 C 
ATOM     10  C   UNL     1      13.303   7.905   6.760  0.00  0.00    +0.020 C 
ATOM     11  C   UNL     1      13.349   8.433   4.299  0.00  0.00    +0.024 C 
ATOM     12  C   UNL     1      14.893   8.387   4.285  0.00  0.00    +0.074 C 
ATOM     13  C   UNL     1      14.817   7.636   6.602  0.00  0.00    +0.089 C 
ATOM     14  C   UNL     1      13.605  10.238   5.980  0.00  0.00    +0.019 C 
ATOM     16  C   UNL     1      15.116   9.962   6.084  0.00  0.00    +0.085 C 
ENDROOT
BRANCH  10  15
ATOM     15  C   UNL     1      12.502   6.620   6.731  0.00  0.00    +0.089 C 
BRANCH  15   5
ATOM      1  O   UNL     1       8.538  10.782   4.530  0.00  0.00    -0.268 OA
ATOM      5  N   UNL     1      11.157   6.840   6.205  0.00  0.00    -0.301 NA
ATOM      6  N   UNL     1       8.919   8.473   4.623  0.00  0.00    -0.312 N 
ATOM     17  C   UNL     1       8.730   7.101   6.778  0.00  0.00    +0.024 C 
ATOM     18  C   UNL     1       9.362   5.995   4.686  0.00  0.00    +0.050 C 
ATOM     19  C   UNL     1      10.173   6.924   7.293  0.00  0.00    +0.089 C 
ATOM     20  C   UNL     1      10.795   5.798   5.233  0.00  0.00    +0.094 C 
ATOM     21  C   UNL     1       8.366   5.956   5.841  0.00  0.00    +0.017 C 
ATOM     23  C   UNL     1       8.527   8.430   6.039  0.00  0.00    +0.130 C 
ATOM     24  C   UNL     1       9.257   7.306   3.929  0.00  0.00    +0.026 A 
ATOM     25  C   UNL     1       9.507   7.355   2.609  0.00  0.00    +0.022 A 
ATOM     26  C   UNL     1       8.844   9.723   3.981  0.00  0.00    +0.251 A 
ATOM     27  C   UNL     1       9.450   8.599   1.896  0.00  0.00    +0.007 A 
ATOM     28  C   UNL     1       9.149   9.738   2.523  0.00  0.00    +0.070 A 
ENDBRANCH  15   5
ENDBRANCH  10  15
BRANCH  12  22
ATOM     22  C   UNL     1      15.417   7.112   3.620  0.00  0.00    +0.124 C 
BRANCH  22   7
ATOM      2  O   UNL     1      14.842   6.228   0.958  0.00  0.00    -0.253 OA
ATOM      7  N   UNL     1      14.337   6.267   3.214  0.00  0.00    -0.298 N 
ATOM      8  N   UNL     1      12.989   5.049   1.789  0.00  0.00    -0.269 N 
ATOM     29  C   UNL     1      14.115   5.872   1.883  0.00  0.00    +0.304 C 
ATOM     38  H   UNL     1      13.692   5.935   3.926  0.00  0.00    +0.150 HD
ATOM     39  H   UNL     1      12.496   4.852   2.657  0.00  0.00    +0.156 HD
BRANCH   8  30
ATOM     30  C   UNL     1      12.444   4.453   0.629  0.00  0.00    +0.035 A 
ATOM     31  C   UNL     1      11.229   4.908   0.117  0.00  0.00    +0.024 A 
ATOM     32  C   UNL     1      13.120   3.410  -0.004  0.00  0.00    +0.024 A 
ATOM     33  C   UNL     1      10.690   4.319  -1.027  0.00  0.00    +0.013 A 
ATOM     34  C   UNL     1      12.582   2.823  -1.148  0.00  0.00    +0.013 A 
ATOM     35  C   UNL     1      11.366   3.278  -1.660  0.00  0.00    +0.017 A 
BRANCH  35  36
ATOM      3  O   UNL     1      10.091   1.644  -2.786  0.00  0.00    -0.292 OA
ATOM     36  C   UNL     1      10.804   2.664  -2.853  0.00  0.00    +0.160 C 
ATOM     37  C   UNL     1      11.080   3.264  -4.228  0.00  0.00    +0.091 C 
ENDBRANCH  35  36
ENDBRANCH   8  30
ENDBRANCH  22   7
ENDBRANCH  12  22
TORSDOF 6
ENDMDL
MODEL 3
REMARK VINA RESULT:      -8.0     26.356     30.050
REMARK  Name = 40780204
REMARK  7 active torsions:
REMARK  status: ('A' for Active; 'I' for Inactive)
REMARK    1  A    between atoms: N_5  and  C_15
REMARK    2  A    between atoms: N_7  and  C_22
REMARK    3  A    between atoms: N_8  and  C_30
REMARK    4  A    between atoms: C_10  and  C_15
REMARK    5  A    between atoms: C_12  and  C_22
REMARK    6  A    between atoms: C_35  and  C_36
REMARK    7  A    between atoms: C_36  and  C_37
REMARK                            x       y       z     vdW  Elec       q    Type
REMARK                         _______ _______ _______ _____ _____    ______ ____
ROOT
ATOM      4  N   UNL     1      12.223   5.061   0.069  0.00  0.00    -0.298 NA
ATOM      9  C   UNL     1      11.130   4.160   2.249  0.00  0.00    -0.003 C 
ATOM     10  C   UNL     1      11.170   5.705   2.251  0.00  0.00    +0.020 C 
ATOM     11  C   UNL     1      12.559   3.613   2.079  0.00  0.00    +0.024 C 
ATOM     12  C   UNL     1      13.114   4.055   0.707  0.00  0.00    +0.074 C 
ATOM     13  C   UNL     1      11.955   6.178   1.007  0.00  0.00    +0.089 C 
ATOM     14  C   UNL     1      10.327   3.734   1.006  0.00  0.00    +0.019 C 
ATOM     16  C   UNL     1      10.934   4.399  -0.242  0.00  0.00    +0.085 C 
ENDROOT
BRANCH  10  15
ATOM     15  C   UNL     1      11.742   6.288   3.527  0.00  0.00    +0.089 C 
BRANCH  15   5
ATOM      1  O   UNL     1      10.327   9.677   8.466  0.00  0.00    -0.268 OA
ATOM      5  N   UNL     1      10.685   6.674   4.458  0.00  0.00    -0.301 NA
ATOM      6  N   UNL     1       9.342   8.539   6.672  0.00  0.00    -0.312 N 
ATOM     17  C   UNL     1       9.336   5.986   6.457  0.00  0.00    +0.024 C 
ATOM     18  C   UNL     1       8.293   7.354   4.712  0.00  0.00    +0.050 C 
ATOM     19  C   UNL     1      10.483   5.642   5.484  0.00  0.00    +0.089 C 
ATOM     20  C   UNL     1       9.435   6.972   3.743  0.00  0.00    +0.094 C 
ATOM     21  C   UNL     1       8.042   6.203   5.683  0.00  0.00    +0.017 C 
ATOM     23  C   UNL     1       9.628   7.239   7.294  0.00  0.00    +0.130 C 
ATOM     24  C   UNL     1       8.638   8.626   5.465  0.00  0.00    +0.026 A 
ATOM     25  C   UNL     1       8.293   9.827   4.971  0.00  0.00    +0.022 A 
ATOM     26  C   UNL     1       9.722   9.686   7.393  0.00  0.00    +0.251 A 
ATOM     27  C   UNL     1       8.653  11.035   5.657  0.00  0.00    +0.007 A 
ATOM     28  C   UNL     1       9.339  10.998   6.801  0.00  0.00    +0.070 A 
ENDBRANCH  15   5
ENDBRANCH  10  15
BRANCH  12  22
ATOM     22  C   UNL     1      14.562   4.537   0.807  0.00  0.00    +0.124 C 
BRANCH  22   7
ATOM      2  O   UNL     1      15.172   7.200   1.668  0.00  0.00    -0.253 OA
ATOM      7  N   UNL     1      14.869   4.956   2.140  0.00  0.00    -0.298 N 
ATOM      8  N   UNL     1      15.420   6.395   3.859  0.00  0.00    -0.269 N 
ATOM     29  C   UNL     1      15.159   6.286   2.490  0.00  0.00    +0.304 C 
ATOM     38  H   UNL     1      14.881   4.254   2.874  0.00  0.00    +0.150 HD
ATOM     39  H   UNL     1      15.368   5.536   4.401  0.00  0.00    +0.156 HD
BRANCH   8  30
ATOM     30  C   UNL     1      15.748   7.559   4.591  0.00  0.00    +0.035 A 
ATOM     31  C   UNL     1      14.793   8.159   5.412  0.00  0.00    +0.024 A 
ATOM     32  C   UNL     1      17.027   8.109   4.492  0.00  0.00    +0.024 A 
ATOM     33  C   UNL     1      15.117   9.309   6.133  0.00  0.00    +0.013 A 
ATOM     34  C   UNL     1      17.350   9.257   5.213  0.00  0.00    +0.013 A 
ATOM     35  C   UNL     1      16.395   9.857   6.035  0.00  0.00    +0.017 A 
BRANCH  35  36
ATOM      3  O   UNL     1      17.918  11.373   7.007  0.00  0.00    -0.292 OA
ATOM     36  C   UNL     1      16.732  11.055   6.787  0.00  0.00    +0.160 C 
ATOM     37  C   UNL     1      15.629  11.958   7.330  0.00  0.00    +0.091 C 
ENDBRANCH  35  36
ENDBRANCH   8  30
ENDBRANCH  22   7
ENDBRANCH  12  22
TORSDOF 6
ENDMDL
MODEL 4
REMARK VINA RESULT:      -8.0      5.259      7.861
REMARK  Name = 40780204
REMARK  7 active torsions:
REMARK  status: ('A' for Active; 'I' for Inactive)
REMARK    1  A    between atoms: N_5  and  C_15
REMARK    2  A    between atoms: N_7  and  C_22
REMARK    3  A    between atoms: N_8  and  C_30
REMARK    4  A    between atoms: C_10  and  C_15
REMARK    5  A    between atoms: C_12  and  C_22
REMARK    6  A    between atoms: C_35  and  C_36
REMARK    7  A    between atoms: C_36  and  C_37
REMARK                            x       y       z     vdW  Elec       q    Type
REMARK                         _______ _______ _______ _____ _____    ______ ____
ROOT
ATOM      4  N   UNL     1      -5.377  -9.312   9.995  0.00  0.00    -0.298 NA
ATOM      9  C   UNL     1      -3.507 -10.680  11.177  0.00  0.00    -0.003 C 
ATOM     10  C   UNL     1      -4.277 -11.559  10.165  0.00  0.00    +0.020 C 
ATOM     11  C   UNL     1      -4.498 -10.096  12.201  0.00  0.00    +0.024 C 
ATOM     12  C   UNL     1      -5.502  -9.176  11.471  0.00  0.00    +0.074 C 
ATOM     13  C   UNL     1      -5.461 -10.740   9.603  0.00  0.00    +0.089 C 
ATOM     14  C   UNL     1      -2.917  -9.498  10.386  0.00  0.00    +0.019 C 
ATOM     16  C   UNL     1      -4.043  -8.802   9.600  0.00  0.00    +0.085 C 
ENDROOT
BRANCH  10  15
ATOM     15  C   UNL     1      -4.738 -12.879  10.748  0.00  0.00    +0.089 C 
BRANCH  15   5
ATOM      1  O   UNL     1      -1.217 -10.560  15.232  0.00  0.00    -0.268 OA
ATOM      5  N   UNL     1      -4.120 -13.135  12.046  0.00  0.00    -0.301 NA
ATOM      6  N   UNL     1      -2.744 -12.281  14.795  0.00  0.00    -0.312 N 
ATOM     17  C   UNL     1      -2.231 -14.260  13.252  0.00  0.00    +0.024 C 
ATOM     18  C   UNL     1      -4.424 -14.099  14.332  0.00  0.00    +0.050 C 
ATOM     19  C   UNL     1      -2.887 -13.920  11.898  0.00  0.00    +0.089 C 
ATOM     20  C   UNL     1      -5.067 -13.791  12.960  0.00  0.00    +0.094 C 
ATOM     21  C   UNL     1      -3.218 -15.013  14.135  0.00  0.00    +0.017 C 
ATOM     23  C   UNL     1      -1.746 -13.012  14.002  0.00  0.00    +0.130 C 
ATOM     24  C   UNL     1      -4.017 -12.814  15.029  0.00  0.00    +0.026 A 
ATOM     25  C   UNL     1      -4.874 -12.179  15.846  0.00  0.00    +0.022 A 
ATOM     26  C   UNL     1      -2.326 -11.073  15.384  0.00  0.00    +0.251 A 
ATOM     27  C   UNL     1      -4.510 -10.941  16.475  0.00  0.00    +0.007 A 
ATOM     28  C   UNL     1      -3.313 -10.390  16.265  0.00  0.00    +0.070 A 
ENDBRANCH  15   5
ENDBRANCH  10  15
BRANCH  12  22
ATOM     22  C   UNL     1      -6.935  -9.397  11.959  0.00  0.00    +0.124 C 
BRANCH  22   7
ATOM      2  O   UNL     1      -8.884 -10.515  13.734  0.00  0.00    -0.253 OA
ATOM      7  N   UNL     1      -7.033  -9.178  13.370  0.00  0.00    -0.298 N 
ATOM      8  N   UNL     1      -7.868  -9.368  15.513  0.00  0.00    -0.269 N 
ATOM     29  C   UNL     1      -8.021  -9.763  14.181  0.00  0.00    +0.304 C 
ATOM     38  H   UNL     1      -6.353  -8.564  13.809  0.00  0.00    +0.150 HD
ATOM     39  H   UNL     1      -7.097  -8.736  15.715  0.00  0.00    +0.156 HD
BRANCH   8  30
ATOM     30  C   UNL     1      -8.659  -9.740  16.624  0.00  0.00    +0.035 A 
ATOM     31  C   UNL     1      -9.818  -9.025  16.925  0.00  0.00    +0.024 A 
ATOM     32  C   UNL     1      -8.280 -10.820  17.421  0.00  0.00    +0.024 A 
ATOM     33  C   UNL     1     -10.599  -9.391  18.022  0.00  0.00    +0.013 A 
ATOM     34  C   UNL     1      -9.060 -11.186  18.517  0.00  0.00    +0.013 A 
ATOM     35  C   UNL     1     -10.220 -10.471  18.818  0.00  0.00    +0.017 A 
BRANCH  35  36
ATOM      3  O   UNL     1     -10.839 -11.923  20.571  0.00  0.00    -0.292 OA
ATOM     36  C   UNL     1     -11.034 -10.852  19.962  0.00  0.00    +0.160 C 
ATOM     37  C   UNL     1     -12.156  -9.940  20.445  0.00  0.00    +0.091 C 
ENDBRANCH  35  36
ENDBRANCH   8  30
ENDBRANCH  22   7
ENDBRANCH  12  22
TORSDOF 6
ENDMDL
MODEL 5
REMARK VINA RESULT:      -7.8      3.310      9.302
REMARK  Name = 40780204
REMARK  7 active torsions:
REMARK  status: ('A' for Active; 'I' for Inactive)
REMARK    1  A    between atoms: N_5  and  C_15
REMARK    2  A    between atoms: N_7  and  C_22
REMARK    3  A    between atoms: N_8  and  C_30
REMARK    4  A    between atoms: C_10  and  C_15
REMARK    5  A    between atoms: C_12  and  C_22
REMARK    6  A    between atoms: C_35  and  C_36
REMARK    7  A    between atoms: C_36  and  C_37
REMARK                            x       y       z     vdW  Elec       q    Type
REMARK                         _______ _______ _______ _____ _____    ______ ____
ROOT
ATOM      4  N   UNL     1     -13.058 -12.207  19.409  0.00  0.00    -0.298 NA
ATOM      9  C   UNL     1     -12.840 -10.563  17.405  0.00  0.00    -0.003 C 
ATOM     10  C   UNL     1     -12.577 -12.018  16.956  0.00  0.00    +0.020 C 
ATOM     11  C   UNL     1     -11.861 -10.193  18.534  0.00  0.00    +0.024 C 
ATOM     12  C   UNL     1     -12.124 -11.102  19.756  0.00  0.00    +0.074 C 
ATOM     13  C   UNL     1     -12.576 -12.927  18.205  0.00  0.00    +0.089 C 
ATOM     14  C   UNL     1     -14.259 -10.529  18.003  0.00  0.00    +0.019 C 
ATOM     16  C   UNL     1     -14.377 -11.609  19.093  0.00  0.00    +0.085 C 
ENDROOT
BRANCH  10  15
ATOM     15  C   UNL     1     -11.303 -12.174  16.151  0.00  0.00    +0.089 C 
BRANCH  15   5
ATOM      1  O   UNL     1     -13.695  -7.018  13.789  0.00  0.00    -0.268 OA
ATOM      5  N   UNL     1     -11.048 -10.999  15.321  0.00  0.00    -0.301 NA
ATOM      6  N   UNL     1     -11.645  -8.059  14.236  0.00  0.00    -0.312 N 
ATOM     17  C   UNL     1     -10.814 -10.131  12.980  0.00  0.00    +0.024 C 
ATOM     18  C   UNL     1      -9.445  -9.163  14.767  0.00  0.00    +0.050 C 
ATOM     19  C   UNL     1     -11.133 -11.333  13.893  0.00  0.00    +0.089 C 
ATOM     20  C   UNL     1      -9.750 -10.392  15.654  0.00  0.00    +0.094 C 
ATOM     21  C   UNL     1      -9.428  -9.585  13.300  0.00  0.00    +0.017 C 
ATOM     23  C   UNL     1     -11.838  -8.996  13.122  0.00  0.00    +0.130 C 
ATOM     24  C   UNL     1     -10.472  -8.071  15.000  0.00  0.00    +0.026 A 
ATOM     25  C   UNL     1     -10.271  -7.135  15.943  0.00  0.00    +0.022 A 
ATOM     26  C   UNL     1     -12.649  -7.093  14.435  0.00  0.00    +0.251 A 
ATOM     27  C   UNL     1     -11.258  -6.124  16.197  0.00  0.00    +0.007 A 
ATOM     28  C   UNL     1     -12.398  -6.087  15.505  0.00  0.00    +0.070 A 
ENDBRANCH  15   5
ENDBRANCH  10  15
BRANCH  12  22
ATOM     22  C   UNL     1     -10.822 -11.610  20.377  0.00  0.00    +0.124 C 
BRANCH  22   7
ATOM      2  O   UNL     1      -8.608 -12.462  18.773  0.00  0.00    -0.253 OA
ATOM      7  N   UNL     1      -9.711 -10.812  19.960  0.00  0.00    -0.298 N 
ATOM      8  N   UNL     1      -7.716 -10.296  18.920  0.00  0.00    -0.269 N 
ATOM     29  C   UNL     1      -8.656 -11.300  19.169  0.00  0.00    +0.304 C 
ATOM     38  H   UNL     1      -9.681  -9.840  20.252  0.00  0.00    +0.150 HD
ATOM     39  H   UNL     1      -7.907  -9.383  19.325  0.00  0.00    +0.156 HD
BRANCH   8  30
ATOM     30  C   UNL     1      -6.522 -10.392  18.169  0.00  0.00    +0.035 A 
ATOM     31  C   UNL     1      -5.414 -11.050  18.703  0.00  0.00    +0.024 A 
ATOM     32  C   UNL     1      -6.450  -9.829  16.895  0.00  0.00    +0.024 A 
ATOM     33  C   UNL     1      -4.235 -11.145  17.963  0.00  0.00    +0.013 A 
ATOM     34  C   UNL     1      -5.272  -9.923  16.155  0.00  0.00    +0.013 A 
ATOM     35  C   UNL     1      -4.164 -10.582  16.689  0.00  0.00    +0.017 A 
BRANCH  35  36
ATOM      3  O   UNL     1      -1.821 -10.747  16.475  0.00  0.00    -0.292 OA
ATOM     36  C   UNL     1      -2.935 -10.681  15.918  0.00  0.00    +0.160 C 
ATOM     37  C   UNL     1      -2.983 -10.705  14.394  0.00  0.00    +0.091 C 
ENDBRANCH  35  36
ENDBRANCH   8  30
ENDBRANCH  22   7
ENDBRANCH  12  22
TORSDOF 6
ENDMDL
MODEL 6
REMARK VINA RESULT:      -7.7     17.667     20.511
REMARK  Name = 40780204
REMARK  7 active torsions:
REMARK  status: ('A' for Active; 'I' for Inactive)
REMARK    1  A    between atoms: N_5  and  C_15
REMARK    2  A    between atoms: N_7  and  C_22
REMARK    3  A    between atoms: N_8  and  C_30
REMARK    4  A    between atoms: C_10  and  C_15
REMARK    5  A    between atoms: C_12  and  C_22
REMARK    6  A    between atoms: C_35  and  C_36
REMARK    7  A    between atoms: C_36  and  C_37
REMARK                            x       y       z     vdW  Elec       q    Type
REMARK                         _______ _______ _______ _____ _____    ______ ____
ROOT
ATOM      4  N   UNL     1     -17.001   6.648  21.337  0.00  0.00    -0.298 NA
ATOM      9  C   UNL     1     -15.272   8.560  21.679  0.00  0.00    -0.003 C 
ATOM     10  C   UNL     1     -14.914   7.707  20.440  0.00  0.00    +0.020 C 
ATOM     11  C   UNL     1     -15.345   7.650  22.919  0.00  0.00    +0.024 C 
ATOM     12  C   UNL     1     -16.482   6.621  22.731  0.00  0.00    +0.074 C 
ATOM     13  C   UNL     1     -15.885   6.508  20.370  0.00  0.00    +0.089 C 
ATOM     14  C   UNL     1     -16.686   9.123  21.441  0.00  0.00    +0.019 C 
ATOM     16  C   UNL     1     -17.644   7.964  21.113  0.00  0.00    +0.085 C 
ENDROOT
BRANCH  10  15
ATOM     15  C   UNL     1     -13.468   7.257  20.421  0.00  0.00    +0.089 C 
BRANCH  15   5
ATOM      1  O   UNL     1     -13.235  11.222  15.720  0.00  0.00    -0.268 OA
ATOM      5  N   UNL     1     -12.627   8.189  19.674  0.00  0.00    -0.301 NA
ATOM      6  N   UNL     1     -12.101  10.623  17.679  0.00  0.00    -0.312 N 
ATOM     17  C   UNL     1     -10.822   8.420  17.949  0.00  0.00    +0.024 C 
ATOM     18  C   UNL     1     -10.916  10.005  19.814  0.00  0.00    +0.050 C 
ATOM     19  C   UNL     1     -11.767   7.476  18.720  0.00  0.00    +0.089 C 
ATOM     20  C   UNL     1     -11.836   9.031  20.584  0.00  0.00    +0.094 C 
ATOM     21  C   UNL     1      -9.962   9.211  18.926  0.00  0.00    +0.017 C 
ATOM     23  C   UNL     1     -11.580   9.404  17.047  0.00  0.00    +0.130 C 
ATOM     24  C   UNL     1     -11.741  10.973  18.985  0.00  0.00    +0.026 A 
ATOM     25  C   UNL     1     -12.141  12.146  19.505  0.00  0.00    +0.022 A 
ATOM     26  C   UNL     1     -12.896  11.464  16.879  0.00  0.00    +0.251 A 
ATOM     27  C   UNL     1     -12.957  13.047  18.742  0.00  0.00    +0.007 A 
ATOM     28  C   UNL     1     -13.338  12.744  17.499  0.00  0.00    +0.070 A 
ENDBRANCH  15   5
ENDBRANCH  10  15
BRANCH  12  22
ATOM     22  C   UNL     1     -16.057   5.219  23.170  0.00  0.00    +0.124 C 
BRANCH  22   7
ATOM      2  O   UNL     1     -15.499   2.860  24.695  0.00  0.00    -0.253 OA
ATOM      7  N   UNL     1     -16.233   5.050  24.579  0.00  0.00    -0.298 N 
ATOM      8  N   UNL     1     -16.207   3.988  26.629  0.00  0.00    -0.269 N 
ATOM     29  C   UNL     1     -15.936   3.859  25.264  0.00  0.00    +0.304 C 
ATOM     38  H   UNL     1     -16.594   5.834  25.116  0.00  0.00    +0.150 HD
ATOM     39  H   UNL     1     -16.568   4.888  26.937  0.00  0.00    +0.156 HD
BRANCH   8  30
ATOM     30  C   UNL     1     -16.041   3.017  27.643  0.00  0.00    +0.035 A 
ATOM     31  C   UNL     1     -15.147   3.248  28.689  0.00  0.00    +0.024 A 
ATOM     32  C   UNL     1     -16.769   1.828  27.598  0.00  0.00    +0.024 A 
ATOM     33  C   UNL     1     -14.982   2.290  29.690  0.00  0.00    +0.013 A 
ATOM     34  C   UNL     1     -16.604   0.871  28.598  0.00  0.00    +0.013 A 
ATOM     35  C   UNL     1     -15.711   1.102  29.645  0.00  0.00    +0.017 A 
BRANCH  35  36
ATOM      3  O   UNL     1     -15.982  -1.055  30.560  0.00  0.00    -0.292 OA
ATOM     36  C   UNL     1     -15.538   0.104  30.688  0.00  0.00    +0.160 C 
ATOM     37  C   UNL     1     -14.803   0.457  31.977  0.00  0.00    +0.091 C 
ENDBRANCH  35  36
ENDBRANCH   8  30
ENDBRANCH  22   7
ENDBRANCH  12  22
TORSDOF 6
ENDMDL
MODEL 7
REMARK VINA RESULT:      -7.6     26.591     27.966
REMARK  Name = 40780204
REMARK  7 active torsions:
REMARK  status: ('A' for Active; 'I' for Inactive)
REMARK    1  A    between atoms: N_5  and  C_15
REMARK    2  A    between atoms: N_7  and  C_22
REMARK    3  A    between atoms: N_8  and  C_30
REMARK    4  A    between atoms: C_10  and  C_15
REMARK    5  A    between atoms: C_12  and  C_22
REMARK    6  A    between atoms: C_35  and  C_36
REMARK    7  A    between atoms: C_36  and  C_37
REMARK                            x       y       z     vdW  Elec       q    Type
REMARK                         _______ _______ _______ _____ _____    ______ ____
ROOT
ATOM      4  N   UNL     1      12.439   9.013   6.568  0.00  0.00    -0.298 NA
ATOM      9  C   UNL     1      11.654   6.542   6.364  0.00  0.00    -0.003 C 
ATOM     10  C   UNL     1      11.751   7.206   4.972  0.00  0.00    +0.020 C 
ATOM     11  C   UNL     1      10.695   7.357   7.252  0.00  0.00    +0.024 C 
ATOM     12  C   UNL     1      11.276   8.773   7.462  0.00  0.00    +0.074 C 
ATOM     13  C   UNL     1      12.079   8.704   5.163  0.00  0.00    +0.089 C 
ATOM     14  C   UNL     1      13.053   6.631   7.001  0.00  0.00    +0.019 C 
ATOM     16  C   UNL     1      13.528   8.095   6.978  0.00  0.00    +0.085 C 
ENDROOT
BRANCH  10  15
ATOM     15  C   UNL     1      10.509   7.010   4.127  0.00  0.00    +0.089 C 
BRANCH  15   5
ATOM      1  O   UNL     1      14.449   6.477  -0.571  0.00  0.00    -0.268 OA
ATOM      5  N   UNL     1      10.813   6.302   2.886  0.00  0.00    -0.301 NA
ATOM      6  N   UNL     1      12.722   5.332   0.521  0.00  0.00    -0.312 N 
ATOM     17  C   UNL     1      10.272   6.077   0.448  0.00  0.00    +0.024 C 
ATOM     18  C   UNL     1      10.899   4.087   1.732  0.00  0.00    +0.050 C 
ATOM     19  C   UNL     1      10.022   6.834   1.768  0.00  0.00    +0.089 C 
ATOM     20  C   UNL     1      10.612   4.853   3.044  0.00  0.00    +0.094 C 
ATOM     21  C   UNL     1       9.972   4.594   0.632  0.00  0.00    +0.017 C 
ATOM     23  C   UNL     1      11.714   6.231  -0.056  0.00  0.00    +0.130 C 
ATOM     24  C   UNL     1      12.353   4.250   1.328  0.00  0.00    +0.026 A 
ATOM     25  C   UNL     1      13.282   3.379   1.756  0.00  0.00    +0.022 A 
ATOM     26  C   UNL     1      14.060   5.555   0.147  0.00  0.00    +0.251 A 
ATOM     27  C   UNL     1      14.665   3.552   1.412  0.00  0.00    +0.007 A 
ATOM     28  C   UNL     1      15.063   4.580   0.659  0.00  0.00    +0.070 A 
ENDBRANCH  15   5
ENDBRANCH  10  15
BRANCH  12  22
ATOM     22  C   UNL     1      10.201   9.854   7.326  0.00  0.00    +0.124 C 
BRANCH  22   7
ATOM      2  O   UNL     1       9.152  10.988   4.915  0.00  0.00    -0.253 OA
ATOM      7  N   UNL     1       9.087   9.374   6.569  0.00  0.00    -0.298 N 
ATOM      8  N   UNL     1       7.526   9.296   4.871  0.00  0.00    -0.269 N 
ATOM     29  C   UNL     1       8.626   9.984   5.389  0.00  0.00    +0.304 C 
ATOM     38  H   UNL     1       8.600   8.547   6.903  0.00  0.00    +0.150 HD
ATOM     39  H   UNL     1       7.213   8.479   5.390  0.00  0.00    +0.156 HD
BRANCH   8  30
ATOM     30  C   UNL     1       6.785   9.596   3.704  0.00  0.00    +0.035 A 
ATOM     31  C   UNL     1       7.272   9.215   2.453  0.00  0.00    +0.024 A 
ATOM     32  C   UNL     1       5.570  10.273   3.803  0.00  0.00    +0.024 A 
ATOM     33  C   UNL     1       6.542   9.512   1.302  0.00  0.00    +0.013 A 
ATOM     34  C   UNL     1       4.841  10.569   2.652  0.00  0.00    +0.013 A 
ATOM     35  C   UNL     1       5.327  10.188   1.401  0.00  0.00    +0.017 A 
BRANCH  35  36
ATOM      3  O   UNL     1       4.163  11.653  -0.035  0.00  0.00    -0.292 OA
ATOM     36  C   UNL     1       4.566  10.497   0.200  0.00  0.00    +0.160 C 
ATOM     37  C   UNL     1       4.242   9.399  -0.808  0.00  0.00    +0.091 C 
ENDBRANCH  35  36
ENDBRANCH   8  30
ENDBRANCH  22   7
ENDBRANCH  12  22
TORSDOF 6
ENDMDL
MODEL 8
REMARK VINA RESULT:      -7.6     27.967     31.009
REMARK  Name = 40780204
REMARK  7 active torsions:
REMARK  status: ('A' for Active; 'I' for Inactive)
REMARK    1  A    between atoms: N_5  and  C_15
REMARK    2  A    between atoms: N_7  and  C_22
REMARK    3  A    between atoms: N_8  and  C_30
REMARK    4  A    between atoms: C_10  and  C_15
REMARK    5  A    between atoms: C_12  and  C_22
REMARK    6  A    between atoms: C_35  and  C_36
REMARK    7  A    between atoms: C_36  and  C_37
REMARK                            x       y       z     vdW  Elec       q    Type
REMARK                         _______ _______ _______ _____ _____    ______ ____
ROOT
ATOM      4  N   UNL     1      22.289  -2.884  28.048  0.00  0.00    -0.298 NA
ATOM      9  C   UNL     1      20.950  -3.537  25.916  0.00  0.00    -0.003 C 
ATOM     10  C   UNL     1      20.822  -2.024  26.206  0.00  0.00    +0.020 C 
ATOM     11  C   UNL     1      20.464  -4.333  27.142  0.00  0.00    +0.024 C 
ATOM     12  C   UNL     1      21.379  -4.022  28.347  0.00  0.00    +0.074 C 
ATOM     13  C   UNL     1      21.513  -1.721  27.555  0.00  0.00    +0.089 C 
ATOM     14  C   UNL     1      22.451  -3.834  25.744  0.00  0.00    +0.019 C 
ATOM     16  C   UNL     1      23.216  -3.310  26.972  0.00  0.00    +0.085 C 
ENDROOT
BRANCH  10  15
ATOM     15  C   UNL     1      19.390  -1.530  26.189  0.00  0.00    +0.089 C 
BRANCH  15   5
ATOM      1  O   UNL     1      19.602  -5.199  21.252  0.00  0.00    -0.268 OA
ATOM      5  N   UNL     1      18.608  -2.195  25.149  0.00  0.00    -0.301 NA
ATOM      6  N   UNL     1      18.120  -4.365  22.862  0.00  0.00    -0.312 N 
ATOM     17  C   UNL     1      17.397  -1.909  22.973  0.00  0.00    +0.024 C 
ATOM     18  C   UNL     1      16.543  -3.502  24.627  0.00  0.00    +0.050 C 
ATOM     19  C   UNL     1      18.271  -1.261  24.066  0.00  0.00    +0.089 C 
ATOM     20  C   UNL     1      17.402  -2.819  25.715  0.00  0.00    +0.094 C 
ATOM     21  C   UNL     1      16.120  -2.468  23.587  0.00  0.00    +0.017 C 
ATOM     23  C   UNL     1      18.124  -3.039  22.229  0.00  0.00    +0.130 C 
ATOM     24  C   UNL     1      17.315  -4.635  23.974  0.00  0.00    +0.026 A 
ATOM     25  C   UNL     1      17.245  -5.883  24.469  0.00  0.00    +0.022 A 
ATOM     26  C   UNL     1      18.887  -5.367  22.240  0.00  0.00    +0.251 A 
ATOM     27  C   UNL     1      18.005  -6.950  23.883  0.00  0.00    +0.007 A 
ATOM     28  C   UNL     1      18.798  -6.731  22.832  0.00  0.00    +0.070 A 
ENDBRANCH  15   5
ENDBRANCH  10  15
BRANCH  12  22
ATOM     22  C   UNL     1      20.574  -3.805  29.630  0.00  0.00    +0.124 C 
BRANCH  22   7
ATOM      2  O   UNL     1      18.537  -4.857  31.346  0.00  0.00    -0.253 OA
ATOM      7  N   UNL     1      19.170  -3.845  29.365  0.00  0.00    -0.298 N 
ATOM      8  N   UNL     1      16.933  -4.283  29.731  0.00  0.00    -0.269 N 
ATOM     29  C   UNL     1      18.224  -4.379  30.257  0.00  0.00    +0.304 C 
ATOM     38  H   UNL     1      18.837  -3.470  28.481  0.00  0.00    +0.150 HD
ATOM     39  H   UNL     1      16.848  -3.859  28.810  0.00  0.00    +0.156 HD
BRANCH   8  30
ATOM     30  C   UNL     1      15.720  -4.706  30.322  0.00  0.00    +0.035 A 
ATOM     31  C   UNL     1      15.172  -3.982  31.381  0.00  0.00    +0.024 A 
ATOM     32  C   UNL     1      15.072  -5.846  29.848  0.00  0.00    +0.024 A 
ATOM     33  C   UNL     1      13.976  -4.399  31.966  0.00  0.00    +0.013 A 
ATOM     34  C   UNL     1      13.876  -6.262  30.432  0.00  0.00    +0.013 A 
ATOM     35  C   UNL     1      13.328  -5.538  31.491  0.00  0.00    +0.017 A 
BRANCH  35  36
ATOM      3  O   UNL     1      11.531  -7.041  31.767  0.00  0.00    -0.292 OA
ATOM     36  C   UNL     1      12.081  -5.973  32.101  0.00  0.00    +0.160 C 
ATOM     37  C   UNL     1      11.411  -5.120  33.173  0.00  0.00    +0.091 C 
ENDBRANCH  35  36
ENDBRANCH   8  30
ENDBRANCH  22   7
ENDBRANCH  12  22
TORSDOF 6
ENDMDL
MODEL 9
REMARK VINA RESULT:      -7.6      3.415      8.113
REMARK  Name = 40780204
REMARK  7 active torsions:
REMARK  status: ('A' for Active; 'I' for Inactive)
REMARK    1  A    between atoms: N_5  and  C_15
REMARK    2  A    between atoms: N_7  and  C_22
REMARK    3  A    between atoms: N_8  and  C_30
REMARK    4  A    between atoms: C_10  and  C_15
REMARK    5  A    between atoms: C_12  and  C_22
REMARK    6  A    between atoms: C_35  and  C_36
REMARK    7  A    between atoms: C_36  and  C_37
REMARK                            x       y       z     vdW  Elec       q    Type
REMARK                         _______ _______ _______ _____ _____    ______ ____
ROOT
ATOM      4  N   UNL     1      -5.754 -12.672  17.108  0.00  0.00    -0.298 NA
ATOM      9  C   UNL     1      -6.243 -10.232  17.863  0.00  0.00    -0.003 C 
ATOM     10  C   UNL     1      -7.386 -10.774  16.975  0.00  0.00    +0.020 C 
ATOM     11  C   UNL     1      -4.914 -10.318  17.090  0.00  0.00    +0.024 C 
ATOM     12  C   UNL     1      -4.594 -11.799  16.789  0.00  0.00    +0.074 C 
ATOM     13  C   UNL     1      -6.978 -12.165  16.441  0.00  0.00    +0.089 C 
ATOM     14  C   UNL     1      -6.129 -11.177  19.073  0.00  0.00    +0.019 C 
ATOM     16  C   UNL     1      -5.973 -12.624  18.573  0.00  0.00    +0.085 C 
ENDROOT
BRANCH  10  15
ATOM     15  C   UNL     1      -7.768  -9.834  15.850  0.00  0.00    +0.089 C 
BRANCH  15   5
ATOM      1  O   UNL     1     -11.775  -5.506  14.090  0.00  0.00    -0.268 OA
ATOM      5  N   UNL     1      -9.107  -9.282  16.046  0.00  0.00    -0.301 NA
ATOM      6  N   UNL     1     -11.659  -7.560  15.209  0.00  0.00    -0.312 N 
ATOM     17  C   UNL     1     -10.562  -7.853  17.505  0.00  0.00    +0.024 C 
ATOM     18  C   UNL     1     -11.532  -9.793  16.366  0.00  0.00    +0.050 C 
ATOM     19  C   UNL     1      -9.151  -8.413  17.230  0.00  0.00    +0.089 C 
ATOM     20  C   UNL     1     -10.111 -10.354  16.129  0.00  0.00    +0.094 C 
ATOM     21  C   UNL     1     -11.555  -8.997  17.668  0.00  0.00    +0.017 C 
ATOM     23  C   UNL     1     -11.055  -6.924  16.388  0.00  0.00    +0.130 C 
ATOM     24  C   UNL     1     -11.964  -8.926  15.198  0.00  0.00    +0.026 A 
ATOM     25  C   UNL     1     -12.614  -9.464  14.152  0.00  0.00    +0.022 A 
ATOM     26  C   UNL     1     -12.000  -6.716  14.136  0.00  0.00    +0.251 A 
ATOM     27  C   UNL     1     -12.988  -8.658  13.025  0.00  0.00    +0.007 A 
ATOM     28  C   UNL     1     -12.700  -7.355  12.987  0.00  0.00    +0.070 A 
ENDBRANCH  15   5
ENDBRANCH  10  15
BRANCH  12  22
ATOM     22  C   UNL     1      -4.092 -11.993  15.357  0.00  0.00    +0.124 C 
BRANCH  22   7
ATOM      2  O   UNL     1      -5.493 -11.894  12.861  0.00  0.00    -0.253 OA
ATOM      7  N   UNL     1      -4.348 -10.829  14.565  0.00  0.00    -0.298 N 
ATOM      8  N   UNL     1      -5.142  -9.574  12.798  0.00  0.00    -0.269 N 
ATOM     29  C   UNL     1      -5.046 -10.856  13.344  0.00  0.00    +0.304 C 
ATOM     38  H   UNL     1      -4.005  -9.934  14.901  0.00  0.00    +0.150 HD
ATOM     39  H   UNL     1      -4.713  -8.820  13.329  0.00  0.00    +0.156 HD
BRANCH   8  30
ATOM     30  C   UNL     1      -5.765  -9.190  11.588  0.00  0.00    +0.035 A 
ATOM     31  C   UNL     1      -7.155  -9.228  11.478  0.00  0.00    +0.024 A 
ATOM     32  C   UNL     1      -4.991  -8.774  10.505  0.00  0.00    +0.024 A 
ATOM     33  C   UNL     1      -7.771  -8.850  10.284  0.00  0.00    +0.013 A 
ATOM     34  C   UNL     1      -5.606  -8.397   9.312  0.00  0.00    +0.013 A 
ATOM     35  C   UNL     1      -6.997  -8.434   9.202  0.00  0.00    +0.017 A 
BRANCH  35  36
ATOM      3  O   UNL     1      -7.748  -8.835   7.002  0.00  0.00    -0.292 OA
ATOM     36  C   UNL     1      -7.639  -8.040   7.957  0.00  0.00    +0.160 C 
ATOM     37  C   UNL     1      -8.198  -6.631   7.793  0.00  0.00    +0.091 C 
ENDBRANCH  35  36
ENDBRANCH   8  30
ENDBRANCH  22   7
ENDBRANCH  12  22
TORSDOF 6
ENDMDL
MODEL 10
REMARK VINA RESULT:      -7.3      4.307      6.113
REMARK  Name = 40780204
REMARK  7 active torsions:
REMARK  status: ('A' for Active; 'I' for Inactive)
REMARK    1  A    between atoms: N_5  and  C_15
REMARK    2  A    between atoms: N_7  and  C_22
REMARK    3  A    between atoms: N_8  and  C_30
REMARK    4  A    between atoms: C_10  and  C_15
REMARK    5  A    between atoms: C_12  and  C_22
REMARK    6  A    between atoms: C_35  and  C_36
REMARK    7  A    between atoms: C_36  and  C_37
REMARK                            x       y       z     vdW  Elec       q    Type
REMARK                         _______ _______ _______ _____ _____    ______ ____
ROOT
ATOM      4  N   UNL     1      -9.695  -8.089  15.403  0.00  0.00    -0.298 NA
ATOM      9  C   UNL     1     -11.678  -8.290  17.073  0.00  0.00    -0.003 C 
ATOM     10  C   UNL     1     -10.333  -8.577  17.778  0.00  0.00    +0.020 C 
ATOM     11  C   UNL     1     -11.850  -9.260  15.889  0.00  0.00    +0.024 C 
ATOM     12  C   UNL     1     -10.731  -9.005  14.855  0.00  0.00    +0.074 C 
ATOM     13  C   UNL     1      -9.212  -8.587  16.714  0.00  0.00    +0.089 C 
ATOM     14  C   UNL     1     -11.583  -6.869  16.489  0.00  0.00    +0.019 C 
ATOM     16  C   UNL     1     -10.321  -6.763  15.614  0.00  0.00    +0.085 C 
ENDROOT
BRANCH  10  15
ATOM     15  C   UNL     1     -10.343  -9.856  18.590  0.00  0.00    +0.089 C 
BRANCH  15   5
ATOM      1  O   UNL     1      -6.389 -11.264  14.088  0.00  0.00    -0.268 OA
ATOM      5  N   UNL     1      -9.295 -10.775  18.152  0.00  0.00    -0.301 NA
ATOM      6  N   UNL     1      -6.811 -11.661  16.357  0.00  0.00    -0.312 N 
ATOM     17  C   UNL     1      -8.797 -13.041  17.200  0.00  0.00    +0.024 C 
ATOM     18  C   UNL     1      -7.243 -12.042  18.809  0.00  0.00    +0.050 C 
ATOM     19  C   UNL     1      -9.872 -12.018  17.622  0.00  0.00    +0.089 C 
ATOM     20  C   UNL     1      -8.344 -11.046  19.241  0.00  0.00    +0.094 C 
ATOM     21  C   UNL     1      -7.886 -13.358  18.379  0.00  0.00    +0.017 C 
ATOM     23  C   UNL     1      -7.938 -12.543  16.029  0.00  0.00    +0.130 C 
ATOM     24  C   UNL     1      -6.410 -11.457  17.682  0.00  0.00    +0.026 A 
ATOM     25  C   UNL     1      -5.310 -10.733  17.952  0.00  0.00    +0.022 A 
ATOM     26  C   UNL     1      -6.099 -11.110  15.275  0.00  0.00    +0.251 A 
ATOM     27  C   UNL     1      -4.542 -10.142  16.893  0.00  0.00    +0.007 A 
ATOM     28  C   UNL     1      -4.899 -10.297  15.616  0.00  0.00    +0.070 A 
ENDBRANCH  15   5
ENDBRANCH  10  15
BRANCH  12  22
ATOM     22  C   UNL     1     -10.136 -10.312  14.328  0.00  0.00    +0.124 C 
BRANCH  22   7
ATOM      2  O   UNL     1     -10.138 -10.349  11.464  0.00  0.00    -0.253 OA
ATOM      7  N   UNL     1      -9.022 -10.056  13.468  0.00  0.00    -0.298 N 
ATOM      8  N   UNL     1      -7.855  -9.801  11.493  0.00  0.00    -0.269 N 
ATOM     29  C   UNL     1      -9.097 -10.091  12.065  0.00  0.00    +0.304 C 
ATOM     38  H   UNL     1      -8.126  -9.838  13.895  0.00  0.00    +0.150 HD
ATOM     39  H   UNL     1      -7.091  -9.610  12.137  0.00  0.00    +0.156 HD
BRANCH   8  30
ATOM     30  C   UNL     1      -7.525  -9.739  10.120  0.00  0.00    +0.035 A 
ATOM     31  C   UNL     1      -7.900  -8.628   9.363  0.00  0.00    +0.024 A 
ATOM     32  C   UNL     1      -6.826 -10.786   9.521  0.00  0.00    +0.024 A 
ATOM     33  C   UNL     1      -7.575  -8.566   8.007  0.00  0.00    +0.013 A 
ATOM     34  C   UNL     1      -6.501 -10.725   8.166  0.00  0.00    +0.013 A 
ATOM     35  C   UNL     1      -6.876  -9.614   7.409  0.00  0.00    +0.017 A 
BRANCH  35  36
ATOM      3  O   UNL     1      -5.801 -10.404   5.464  0.00  0.00    -0.292 OA
ATOM     36  C   UNL     1      -6.537  -9.549   5.996  0.00  0.00    +0.160 C 
ATOM     37  C   UNL     1      -7.082  -8.422   5.126  0.00  0.00    +0.091 C 
ENDBRANCH  35  36
ENDBRANCH   8  30
ENDBRANCH  22   7
ENDBRANCH  12  22
TORSDOF 6
ENDMDL
