MODEL 1
REMARK VINA RESULT:      -7.8      0.000      0.000
REMARK  Name = 45784235
REMARK  3 active torsions:
REMARK  status: ('A' for Active; 'I' for Inactive)
REMARK    1  A    between atoms: N_4  and  C_12
REMARK    2  A    between atoms: C_7  and  C_11
REMARK    3  A    between atoms: C_12  and  C_13
REMARK                            x       y       z     vdW  Elec       q    Type
REMARK                         _______ _______ _______ _____ _____    ______ ____
ROOT
ATOM      4  N   UNL     1      13.313   7.955  19.919  0.00  0.00    -0.297 NA
ATOM      7  C   UNL     1      12.033   8.783  21.701  0.00  0.00    +0.070 C 
ATOM      8  C   UNL     1      11.102   8.352  20.555  0.00  0.00    +0.028 C 
ATOM      9  C   UNL     1      13.425   8.865  21.060  0.00  0.00    +0.096 C 
ATOM     10  C   UNL     1      12.004   8.244  19.332  0.00  0.00    +0.085 C 
ENDROOT
BRANCH   7  11
ATOM      1  F   UNL     1      10.311  14.006  26.447  0.00  0.00    -0.205 F 
ATOM      5  N   UNL     1      11.557  10.128  23.766  0.00  0.00    -0.341 N 
ATOM      6  N   UNL     1      11.315  11.202  21.835  0.00  0.00    -0.232 NA
ATOM     11  C   UNL     1      11.630  10.059  22.402  0.00  0.00    +0.113 A 
ATOM     14  C   UNL     1      11.169  11.400  24.100  0.00  0.00    +0.069 A 
ATOM     15  C   UNL     1      11.024  12.051  22.878  0.00  0.00    +0.089 A 
ATOM     19  C   UNL     1      10.940  12.019  25.330  0.00  0.00    +0.066 A 
ATOM     20  C   UNL     1      10.627  13.398  22.862  0.00  0.00    +0.032 A 
ATOM     23  C   UNL     1      10.546  13.361  25.296  0.00  0.00    +0.125 A 
ATOM     24  C   UNL     1      10.391  14.040  24.084  0.00  0.00    +0.040 A 
ATOM     26  H   UNL     1      11.754   9.377  24.415  0.00  0.00    +0.167 HD
ENDBRANCH   7  11
BRANCH   4  12
ATOM     12  C   UNL     1      14.397   8.126  18.964  0.00  0.00    +0.119 C 
BRANCH  12  13
ATOM      2  O   UNL     1      18.434   8.341  21.821  0.00  0.00    -0.453 OA
ATOM      3  O   UNL     1      19.262   6.227  21.014  0.00  0.00    -0.453 OA
ATOM     13  C   UNL     1      15.700   7.587  19.492  0.00  0.00    -0.030 A 
ATOM     16  C   UNL     1      16.417   8.314  20.445  0.00  0.00    +0.054 A 
ATOM     17  C   UNL     1      16.184   6.352  19.021  0.00  0.00    +0.009 A 
ATOM     18  C   UNL     1      17.605   7.778  20.900  0.00  0.00    +0.167 A 
ATOM     21  C   UNL     1      17.390   5.832  19.498  0.00  0.00    +0.050 A 
ATOM     22  C   UNL     1      18.078   6.571  20.439  0.00  0.00    +0.166 A 
ATOM     25  C   UNL     1      19.481   7.352  21.888  0.00  0.00    +0.466 C 
ENDBRANCH  12  13
ENDBRANCH   4  12
TORSDOF 3
ENDMDL
MODEL 2
REMARK VINA RESULT:      -7.8     17.520     19.684
REMARK  Name = 45784235
REMARK  3 active torsions:
REMARK  status: ('A' for Active; 'I' for Inactive)
REMARK    1  A    between atoms: N_4  and  C_12
REMARK    2  A    between atoms: C_7  and  C_11
REMARK    3  A    between atoms: C_12  and  C_13
REMARK                            x       y       z     vdW  Elec       q    Type
REMARK                         _______ _______ _______ _____ _____    ______ ____
ROOT
ATOM      4  N   UNL     1      11.799   4.145   1.791  0.00  0.00    -0.297 NA
ATOM      7  C   UNL     1      10.242   5.052   3.291  0.00  0.00    +0.070 C 
ATOM      8  C   UNL     1      11.022   6.189   2.609  0.00  0.00    +0.028 C 
ATOM      9  C   UNL     1      11.068   3.790   3.008  0.00  0.00    +0.096 C 
ATOM     10  C   UNL     1      12.252   5.519   2.009  0.00  0.00    +0.085 C 
ENDROOT
BRANCH   7  11
ATOM      1  F   UNL     1       9.386   4.459  10.480  0.00  0.00    -0.205 F 
ATOM      5  N   UNL     1      10.139   4.250   5.667  0.00  0.00    -0.341 N 
ATOM      6  N   UNL     1       9.558   6.370   5.336  0.00  0.00    -0.232 NA
ATOM     11  C   UNL     1       9.969   5.261   4.762  0.00  0.00    +0.113 A 
ATOM     14  C   UNL     1       9.816   4.738   6.906  0.00  0.00    +0.069 A 
ATOM     15  C   UNL     1       9.456   6.063   6.673  0.00  0.00    +0.089 A 
ATOM     19  C   UNL     1       9.808   4.154   8.174  0.00  0.00    +0.066 A 
ATOM     20  C   UNL     1       9.063   6.867   7.756  0.00  0.00    +0.032 A 
ATOM     23  C   UNL     1       9.414   4.968   9.240  0.00  0.00    +0.125 A 
ATOM     24  C   UNL     1       9.047   6.301   9.037  0.00  0.00    +0.040 A 
ATOM     26  H   UNL     1      10.447   3.308   5.461  0.00  0.00    +0.167 HD
ENDBRANCH   7  11
BRANCH   4  12
ATOM     12  C   UNL     1      12.903   3.236   1.520  0.00  0.00    +0.119 C 
BRANCH  12  13
ATOM      2  O   UNL     1      16.991   4.720  -0.843  0.00  0.00    -0.453 OA
ATOM      3  O   UNL     1      15.886   4.747  -2.985  0.00  0.00    -0.453 OA
ATOM     13  C   UNL     1      13.672   3.637   0.290  0.00  0.00    -0.030 A 
ATOM     16  C   UNL     1      15.020   3.989   0.400  0.00  0.00    +0.054 A 
ATOM     17  C   UNL     1      13.028   3.653  -0.960  0.00  0.00    +0.009 A 
ATOM     18  C   UNL     1      15.684   4.348  -0.756  0.00  0.00    +0.167 A 
ATOM     21  C   UNL     1      13.724   4.020  -2.114  0.00  0.00    +0.050 A 
ATOM     22  C   UNL     1      15.053   4.364  -1.979  0.00  0.00    +0.166 A 
ATOM     25  C   UNL     1      17.111   4.971  -2.258  0.00  0.00    +0.466 C 
ENDBRANCH  12  13
ENDBRANCH   4  12
TORSDOF 3
ENDMDL
MODEL 3
REMARK VINA RESULT:      -7.7      2.949      3.731
REMARK  Name = 45784235
REMARK  3 active torsions:
REMARK  status: ('A' for Active; 'I' for Inactive)
REMARK    1  A    between atoms: N_4  and  C_12
REMARK    2  A    between atoms: C_7  and  C_11
REMARK    3  A    between atoms: C_12  and  C_13
REMARK                            x       y       z     vdW  Elec       q    Type
REMARK                         _______ _______ _______ _____ _____    ______ ____
ROOT
ATOM      4  N   UNL     1      12.879   7.084  20.824  0.00  0.00    -0.297 NA
ATOM      7  C   UNL     1      11.566   8.358  22.291  0.00  0.00    +0.070 C 
ATOM      8  C   UNL     1      10.722   7.941  21.074  0.00  0.00    +0.028 C 
ATOM      9  C   UNL     1      13.017   8.109  21.859  0.00  0.00    +0.096 C 
ATOM     10  C   UNL     1      11.734   7.512  20.020  0.00  0.00    +0.085 C 
ENDROOT
BRANCH   7  11
ATOM      1  F   UNL     1      10.472  14.428  26.128  0.00  0.00    -0.205 F 
ATOM      5  N   UNL     1      11.230  10.055  24.110  0.00  0.00    -0.341 N 
ATOM      6  N   UNL     1      11.192  10.844  22.032  0.00  0.00    -0.232 NA
ATOM     11  C   UNL     1      11.328   9.769  22.777  0.00  0.00    +0.113 A 
ATOM     14  C   UNL     1      11.017  11.403  24.235  0.00  0.00    +0.069 A 
ATOM     15  C   UNL     1      10.996  11.873  22.925  0.00  0.00    +0.089 A 
ATOM     19  C   UNL     1      10.844  12.228  25.347  0.00  0.00    +0.066 A 
ATOM     20  C   UNL     1      10.794  13.244  22.691  0.00  0.00    +0.032 A 
ATOM     23  C   UNL     1      10.645  13.589  25.097  0.00  0.00    +0.125 A 
ATOM     24  C   UNL     1      10.619  14.090  23.793  0.00  0.00    +0.040 A 
ATOM     26  H   UNL     1      11.302   9.392  24.871  0.00  0.00    +0.167 HD
ENDBRANCH   7  11
BRANCH   4  12
ATOM     12  C   UNL     1      14.087   6.932  20.028  0.00  0.00    +0.119 C 
BRANCH  12  13
ATOM      2  O   UNL     1      13.698   8.754  15.442  0.00  0.00    -0.453 OA
ATOM      3  O   UNL     1      14.545  10.912  16.101  0.00  0.00    -0.453 OA
ATOM     13  C   UNL     1      14.224   8.023  19.000  0.00  0.00    -0.030 A 
ATOM     16  C   UNL     1      13.858   7.776  17.674  0.00  0.00    +0.054 A 
ATOM     17  C   UNL     1      14.718   9.283  19.384  0.00  0.00    +0.009 A 
ATOM     18  C   UNL     1      14.000   8.808  16.768  0.00  0.00    +0.167 A 
ATOM     21  C   UNL     1      14.852  10.310  18.447  0.00  0.00    +0.050 A 
ATOM     22  C   UNL     1      14.484  10.041  17.145  0.00  0.00    +0.166 A 
ATOM     25  C   UNL     1      14.045  10.090  15.026  0.00  0.00    +0.466 C 
ENDBRANCH  12  13
ENDBRANCH   4  12
TORSDOF 3
ENDMDL
MODEL 4
REMARK VINA RESULT:      -7.5      4.356      8.741
REMARK  Name = 45784235
REMARK  3 active torsions:
REMARK  status: ('A' for Active; 'I' for Inactive)
REMARK    1  A    between atoms: N_4  and  C_12
REMARK    2  A    between atoms: C_7  and  C_11
REMARK    3  A    between atoms: C_12  and  C_13
REMARK                            x       y       z     vdW  Elec       q    Type
REMARK                         _______ _______ _______ _____ _____    ______ ____
ROOT
ATOM      4  N   UNL     1      13.648   8.247  20.598  0.00  0.00    -0.297 NA
ATOM      7  C   UNL     1      15.894   7.964  19.989  0.00  0.00    +0.070 C 
ATOM      8  C   UNL     1      15.000   7.112  19.071  0.00  0.00    +0.028 C 
ATOM      9  C   UNL     1      14.991   8.337  21.172  0.00  0.00    +0.096 C 
ATOM     10  C   UNL     1      13.662   7.026  19.793  0.00  0.00    +0.085 C 
ENDROOT
BRANCH   7  11
ATOM      1  F   UNL     1      21.919   5.743  23.385  0.00  0.00    -0.205 F 
ATOM      5  N   UNL     1      17.784   7.614  21.603  0.00  0.00    -0.341 N 
ATOM      6  N   UNL     1      17.856   6.389  19.750  0.00  0.00    -0.232 NA
ATOM     11  C   UNL     1      17.182   7.300  20.416  0.00  0.00    +0.113 A 
ATOM     14  C   UNL     1      18.922   6.857  21.710  0.00  0.00    +0.069 A 
ATOM     15  C   UNL     1      18.945   6.101  20.541  0.00  0.00    +0.089 A 
ATOM     19  C   UNL     1      19.903   6.769  22.698  0.00  0.00    +0.066 A 
ATOM     20  C   UNL     1      20.002   5.200  20.328  0.00  0.00    +0.032 A 
ATOM     23  C   UNL     1      20.947   5.868  22.470  0.00  0.00    +0.125 A 
ATOM     24  C   UNL     1      20.998   5.096  21.307  0.00  0.00    +0.040 A 
ATOM     26  H   UNL     1      17.452   8.285  22.283  0.00  0.00    +0.167 HD
ENDBRANCH   7  11
BRANCH   4  12
ATOM     12  C   UNL     1      12.609   8.226  21.617  0.00  0.00    +0.119 C 
BRANCH  12  13
ATOM      2  O   UNL     1      10.494  11.595  24.563  0.00  0.00    -0.453 OA
ATOM      3  O   UNL     1      10.677  13.334  22.904  0.00  0.00    -0.453 OA
ATOM     13  C   UNL     1      12.099   9.608  21.928  0.00  0.00    -0.030 A 
ATOM     16  C   UNL     1      11.528   9.872  23.175  0.00  0.00    +0.054 A 
ATOM     17  C   UNL     1      12.206  10.623  20.960  0.00  0.00    +0.009 A 
ATOM     18  C   UNL     1      11.077  11.154  23.415  0.00  0.00    +0.167 A 
ATOM     21  C   UNL     1      11.742  11.913  21.229  0.00  0.00    +0.050 A 
ATOM     22  C   UNL     1      11.181  12.147  22.467  0.00  0.00    +0.166 A 
ATOM     25  C   UNL     1      10.244  12.976  24.233  0.00  0.00    +0.466 C 
ENDBRANCH  12  13
ENDBRANCH   4  12
TORSDOF 3
ENDMDL
MODEL 5
REMARK VINA RESULT:      -7.5     15.068     16.470
REMARK  Name = 45784235
REMARK  3 active torsions:
REMARK  status: ('A' for Active; 'I' for Inactive)
REMARK    1  A    between atoms: N_4  and  C_12
REMARK    2  A    between atoms: C_7  and  C_11
REMARK    3  A    between atoms: C_12  and  C_13
REMARK                            x       y       z     vdW  Elec       q    Type
REMARK                         _______ _______ _______ _____ _____    ______ ____
ROOT
ATOM      4  N   UNL     1      16.151   8.590   5.201  0.00  0.00    -0.297 NA
ATOM      7  C   UNL     1      14.073   7.505   5.169  0.00  0.00    +0.070 C 
ATOM      8  C   UNL     1      14.067   8.659   4.153  0.00  0.00    +0.028 C 
ATOM      9  C   UNL     1      15.288   7.783   6.065  0.00  0.00    +0.096 C 
ATOM     10  C   UNL     1      15.250   9.536   4.543  0.00  0.00    +0.085 C 
ENDROOT
BRANCH   7  11
ATOM      1  F   UNL     1       8.659   5.336   9.500  0.00  0.00    -0.205 F 
ATOM      5  N   UNL     1      12.605   6.279   6.794  0.00  0.00    -0.341 N 
ATOM      6  N   UNL     1      11.747   8.137   5.928  0.00  0.00    -0.232 NA
ATOM     11  C   UNL     1      12.790   7.338   5.951  0.00  0.00    +0.113 A 
ATOM     14  C   UNL     1      11.358   6.401   7.353  0.00  0.00    +0.069 A 
ATOM     15  C   UNL     1      10.843   7.568   6.796  0.00  0.00    +0.089 A 
ATOM     19  C   UNL     1      10.658   5.616   8.269  0.00  0.00    +0.066 A 
ATOM     20  C   UNL     1       9.555   7.992   7.163  0.00  0.00    +0.032 A 
ATOM     23  C   UNL     1       9.378   6.052   8.625  0.00  0.00    +0.125 A 
ATOM     24  C   UNL     1       8.834   7.219   8.082  0.00  0.00    +0.040 A 
ATOM     26  H   UNL     1      13.266   5.535   6.976  0.00  0.00    +0.167 HD
ENDBRANCH   7  11
BRANCH   4  12
ATOM     12  C   UNL     1      17.210   9.258   5.943  0.00  0.00    +0.119 C 
BRANCH  12  13
ATOM      2  O   UNL     1      20.614   7.162   3.026  0.00  0.00    -0.453 OA
ATOM      3  O   UNL     1      22.196   6.941   4.831  0.00  0.00    -0.453 OA
ATOM     13  C   UNL     1      18.557   8.640   5.681  0.00  0.00    -0.030 A 
ATOM     16  C   UNL     1      18.880   8.202   4.394  0.00  0.00    +0.054 A 
ATOM     17  C   UNL     1      19.480   8.511   6.734  0.00  0.00    +0.009 A 
ATOM     18  C   UNL     1      20.127   7.643   4.202  0.00  0.00    +0.167 A 
ATOM     21  C   UNL     1      20.737   7.942   6.512  0.00  0.00    +0.050 A 
ATOM     22  C   UNL     1      21.030   7.517   5.233  0.00  0.00    +0.166 A 
ATOM     25  C   UNL     1      21.925   6.719   3.432  0.00  0.00    +0.466 C 
ENDBRANCH  12  13
ENDBRANCH   4  12
TORSDOF 3
ENDMDL
MODEL 6
REMARK VINA RESULT:      -7.5     27.193     28.891
REMARK  Name = 45784235
REMARK  3 active torsions:
REMARK  status: ('A' for Active; 'I' for Inactive)
REMARK    1  A    between atoms: N_4  and  C_12
REMARK    2  A    between atoms: C_7  and  C_11
REMARK    3  A    between atoms: C_12  and  C_13
REMARK                            x       y       z     vdW  Elec       q    Type
REMARK                         _______ _______ _______ _____ _____    ______ ____
ROOT
ATOM      4  N   UNL     1      -2.146 -11.033  13.675  0.00  0.00    -0.297 NA
ATOM      7  C   UNL     1      -3.224 -10.268  15.612  0.00  0.00    +0.070 C 
ATOM      8  C   UNL     1      -1.832 -10.811  15.978  0.00  0.00    +0.028 C 
ATOM      9  C   UNL     1      -3.493 -10.810  14.201  0.00  0.00    +0.096 C 
ATOM     10  C   UNL     1      -1.406 -11.647  14.778  0.00  0.00    +0.085 C 
ENDROOT
BRANCH   7  11
ATOM      1  F   UNL     1      -9.271 -10.641  19.620  0.00  0.00    -0.205 F 
ATOM      5  N   UNL     1      -5.485  -9.900  16.638  0.00  0.00    -0.341 N 
ATOM      6  N   UNL     1      -4.302 -11.581  17.484  0.00  0.00    -0.232 NA
ATOM     11  C   UNL     1      -4.319 -10.613  16.595  0.00  0.00    +0.113 A 
ATOM     14  C   UNL     1      -6.272 -10.444  17.620  0.00  0.00    +0.069 A 
ATOM     15  C   UNL     1      -5.512 -11.491  18.133  0.00  0.00    +0.089 A 
ATOM     19  C   UNL     1      -7.546 -10.120  18.090  0.00  0.00    +0.066 A 
ATOM     20  C   UNL     1      -6.036 -12.272  19.177  0.00  0.00    +0.032 A 
ATOM     23  C   UNL     1      -8.053 -10.907  19.128  0.00  0.00    +0.125 A 
ATOM     24  C   UNL     1      -7.313 -11.964  19.664  0.00  0.00    +0.040 A 
ATOM     26  H   UNL     1      -5.727  -9.112  16.052  0.00  0.00    +0.167 HD
ENDBRANCH   7  11
BRANCH   4  12
ATOM     12  C   UNL     1      -2.146 -11.862  12.480  0.00  0.00    +0.119 C 
BRANCH  12  13
ATOM      2  O   UNL     1      -5.249 -11.797   8.624  0.00  0.00    -0.453 OA
ATOM      3  O   UNL     1      -4.819  -9.471   8.166  0.00  0.00    -0.453 OA
ATOM     13  C   UNL     1      -2.845 -11.189  11.329  0.00  0.00    -0.030 A 
ATOM     16  C   UNL     1      -3.738 -11.916  10.538  0.00  0.00    +0.054 A 
ATOM     17  C   UNL     1      -2.595  -9.830  11.062  0.00  0.00    +0.009 A 
ATOM     18  C   UNL     1      -4.356 -11.255   9.496  0.00  0.00    +0.167 A 
ATOM     21  C   UNL     1      -3.234  -9.185  10.000  0.00  0.00    +0.050 A 
ATOM     22  C   UNL     1      -4.110  -9.926   9.234  0.00  0.00    +0.166 A 
ATOM     25  C   UNL     1      -5.538 -10.661   7.784  0.00  0.00    +0.466 C 
ENDBRANCH  12  13
ENDBRANCH   4  12
TORSDOF 3
ENDMDL
MODEL 7
REMARK VINA RESULT:      -7.4      5.887     10.094
REMARK  Name = 45784235
REMARK  3 active torsions:
REMARK  status: ('A' for Active; 'I' for Inactive)
REMARK    1  A    between atoms: N_4  and  C_12
REMARK    2  A    between atoms: C_7  and  C_11
REMARK    3  A    between atoms: C_12  and  C_13
REMARK                            x       y       z     vdW  Elec       q    Type
REMARK                         _______ _______ _______ _____ _____    ______ ____
ROOT
ATOM      4  N   UNL     1      16.870   7.449  20.418  0.00  0.00    -0.297 NA
ATOM      7  C   UNL     1      19.028   6.575  20.139  0.00  0.00    +0.070 C 
ATOM      8  C   UNL     1      18.035   5.779  19.276  0.00  0.00    +0.028 C 
ATOM      9  C   UNL     1      18.147   7.353  21.127  0.00  0.00    +0.096 C 
ATOM     10  C   UNL     1      16.661   6.123  19.835  0.00  0.00    +0.085 C 
ENDROOT
BRANCH   7  11
ATOM      1  F   UNL     1      24.043   1.670  22.028  0.00  0.00    -0.205 F 
ATOM      5  N   UNL     1      20.628   4.642  20.217  0.00  0.00    -0.341 N 
ATOM      6  N   UNL     1      20.598   5.945  22.017  0.00  0.00    -0.232 NA
ATOM     11  C   UNL     1      20.087   5.741  20.824  0.00  0.00    +0.113 A 
ATOM     14  C   UNL     1      21.549   4.100  21.075  0.00  0.00    +0.069 A 
ATOM     15  C   UNL     1      21.512   4.931  22.192  0.00  0.00    +0.089 A 
ATOM     19  C   UNL     1      22.387   2.989  20.975  0.00  0.00    +0.066 A 
ATOM     20  C   UNL     1      22.353   4.652  23.282  0.00  0.00    +0.032 A 
ATOM     23  C   UNL     1      23.218   2.726  22.069  0.00  0.00    +0.125 A 
ATOM     24  C   UNL     1      23.202   3.541  23.203  0.00  0.00    +0.040 A 
ATOM     26  H   UNL     1      20.392   4.289  19.299  0.00  0.00    +0.167 HD
ENDBRANCH   7  11
BRANCH   4  12
ATOM     12  C   UNL     1      15.778   7.847  21.294  0.00  0.00    +0.119 C 
BRANCH  12  13
ATOM      2  O   UNL     1      12.968   9.089  17.413  0.00  0.00    -0.453 OA
ATOM      3  O   UNL     1      10.966   8.221  18.435  0.00  0.00    -0.453 OA
ATOM     13  C   UNL     1      14.469   7.932  20.555  0.00  0.00    -0.030 A 
ATOM     16  C   UNL     1      14.426   8.511  19.285  0.00  0.00    +0.054 A 
ATOM     17  C   UNL     1      13.300   7.425  21.151  0.00  0.00    +0.009 A 
ATOM     18  C   UNL     1      13.203   8.564  18.646  0.00  0.00    +0.167 A 
ATOM     21  C   UNL     1      12.075   7.492  20.483  0.00  0.00    +0.050 A 
ATOM     22  C   UNL     1      12.059   8.069  19.230  0.00  0.00    +0.166 A 
ATOM     25  C   UNL     1      11.549   8.868  17.286  0.00  0.00    +0.466 C 
ENDBRANCH  12  13
ENDBRANCH   4  12
TORSDOF 3
ENDMDL
MODEL 8
REMARK VINA RESULT:      -7.4     26.876     29.056
REMARK  Name = 45784235
REMARK  3 active torsions:
REMARK  status: ('A' for Active; 'I' for Inactive)
REMARK    1  A    between atoms: N_4  and  C_12
REMARK    2  A    between atoms: C_7  and  C_11
REMARK    3  A    between atoms: C_12  and  C_13
REMARK                            x       y       z     vdW  Elec       q    Type
REMARK                         _______ _______ _______ _____ _____    ______ ____
ROOT
ATOM      4  N   UNL     1     -14.849   6.584  22.123  0.00  0.00    -0.297 NA
ATOM      7  C   UNL     1     -15.515   4.462  22.866  0.00  0.00    +0.070 C 
ATOM      8  C   UNL     1     -16.710   5.178  22.215  0.00  0.00    +0.028 C 
ATOM      9  C   UNL     1     -14.488   5.575  23.119  0.00  0.00    +0.096 C 
ATOM     10  C   UNL     1     -16.311   6.647  22.162  0.00  0.00    +0.085 C 
ENDROOT
BRANCH   7  11
ATOM      1  F   UNL     1     -16.672   2.071  29.628  0.00  0.00    -0.205 F 
ATOM      5  N   UNL     1     -15.722   4.223  25.356  0.00  0.00    -0.341 N 
ATOM      6  N   UNL     1     -16.276   2.431  24.164  0.00  0.00    -0.232 NA
ATOM     11  C   UNL     1     -15.847   3.673  24.111  0.00  0.00    +0.113 A 
ATOM     14  C   UNL     1     -16.092   3.274  26.273  0.00  0.00    +0.069 A 
ATOM     15  C   UNL     1     -16.433   2.164  25.504  0.00  0.00    +0.089 A 
ATOM     19  C   UNL     1     -16.157   3.289  27.667  0.00  0.00    +0.066 A 
ATOM     20  C   UNL     1     -16.867   0.992  26.146  0.00  0.00    +0.032 A 
ATOM     23  C   UNL     1     -16.591   2.114  28.290  0.00  0.00    +0.125 A 
ATOM     24  C   UNL     1     -16.939   0.985  27.545  0.00  0.00    +0.040 A 
ATOM     26  H   UNL     1     -15.410   5.162  25.567  0.00  0.00    +0.167 HD
ENDBRANCH   7  11
BRANCH   4  12
ATOM     12  C   UNL     1     -14.234   7.875  22.392  0.00  0.00    +0.119 C 
BRANCH  12  13
ATOM      2  O   UNL     1     -11.514  10.988  19.669  0.00  0.00    -0.453 OA
ATOM      3  O   UNL     1     -10.204   9.202  18.721  0.00  0.00    -0.453 OA
ATOM     13  C   UNL     1     -13.145   8.195  21.403  0.00  0.00    -0.030 A 
ATOM     16  C   UNL     1     -12.902   9.523  21.045  0.00  0.00    +0.054 A 
ATOM     17  C   UNL     1     -12.380   7.152  20.849  0.00  0.00    +0.009 A 
ATOM     18  C   UNL     1     -11.892   9.767  20.135  0.00  0.00    +0.167 A 
ATOM     21  C   UNL     1     -11.363   7.426  19.931  0.00  0.00    +0.050 A 
ATOM     22  C   UNL     1     -11.144   8.746  19.593  0.00  0.00    +0.166 A 
ATOM     25  C   UNL     1     -10.445  10.622  18.774  0.00  0.00    +0.466 C 
ENDBRANCH  12  13
ENDBRANCH   4  12
TORSDOF 3
ENDMDL
MODEL 9
REMARK VINA RESULT:      -7.2     27.600     28.854
REMARK  Name = 45784235
REMARK  3 active torsions:
REMARK  status: ('A' for Active; 'I' for Inactive)
REMARK    1  A    between atoms: N_4  and  C_12
REMARK    2  A    between atoms: C_7  and  C_11
REMARK    3  A    between atoms: C_12  and  C_13
REMARK                            x       y       z     vdW  Elec       q    Type
REMARK                         _______ _______ _______ _____ _____    ______ ____
ROOT
ATOM      4  N   UNL     1      -2.368 -11.263  12.678  0.00  0.00    -0.297 NA
ATOM      7  C   UNL     1      -2.664 -10.605  14.909  0.00  0.00    +0.070 C 
ATOM      8  C   UNL     1      -1.559 -11.672  14.830  0.00  0.00    +0.028 C 
ATOM      9  C   UNL     1      -3.389 -10.696  13.560  0.00  0.00    +0.096 C 
ATOM     10  C   UNL     1      -1.736 -12.324  13.464  0.00  0.00    +0.085 C 
ENDROOT
BRANCH   7  11
ATOM      1  F   UNL     1      -8.184 -10.383  19.627  0.00  0.00    -0.205 F 
ATOM      5  N   UNL     1      -4.851 -10.198  16.072  0.00  0.00    -0.341 N 
ATOM      6  N   UNL     1      -3.346 -11.362  17.222  0.00  0.00    -0.232 NA
ATOM     11  C   UNL     1      -3.597 -10.742  16.090  0.00  0.00    +0.113 A 
ATOM     14  C   UNL     1      -5.449 -10.485  17.272  0.00  0.00    +0.069 A 
ATOM     15  C   UNL     1      -4.490 -11.212  17.972  0.00  0.00    +0.089 A 
ATOM     19  C   UNL     1      -6.709 -10.182  17.789  0.00  0.00    +0.066 A 
ATOM     20  C   UNL     1      -4.788 -11.671  19.266  0.00  0.00    +0.032 A 
ATOM     23  C   UNL     1      -6.989 -10.646  19.078  0.00  0.00    +0.125 A 
ATOM     24  C   UNL     1      -6.046 -11.377  19.806  0.00  0.00    +0.040 A 
ATOM     26  H   UNL     1      -5.266  -9.676  15.312  0.00  0.00    +0.167 HD
ENDBRANCH   7  11
BRANCH   4  12
ATOM     12  C   UNL     1      -2.925 -11.758  11.428  0.00  0.00    +0.119 C 
BRANCH  12  13
ATOM      2  O   UNL     1      -7.397 -10.007  10.232  0.00  0.00    -0.453 OA
ATOM      3  O   UNL     1      -6.474  -8.094   9.093  0.00  0.00    -0.453 OA
ATOM     13  C   UNL     1      -3.848 -10.755  10.789  0.00  0.00    -0.030 A 
ATOM     16  C   UNL     1      -5.231 -10.940  10.863  0.00  0.00    +0.054 A 
ATOM     17  C   UNL     1      -3.309  -9.638  10.124  0.00  0.00    +0.009 A 
ATOM     18  C   UNL     1      -6.037  -9.993  10.263  0.00  0.00    +0.167 A 
ATOM     21  C   UNL     1      -4.148  -8.695   9.526  0.00  0.00    +0.050 A 
ATOM     22  C   UNL     1      -5.509  -8.901   9.613  0.00  0.00    +0.166 A 
ATOM     25  C   UNL     1      -7.667  -8.800   9.489  0.00  0.00    +0.466 C 
ENDBRANCH  12  13
ENDBRANCH   4  12
TORSDOF 3
ENDMDL
MODEL 10
REMARK VINA RESULT:      -7.2     18.803     21.881
REMARK  Name = 45784235
REMARK  3 active torsions:
REMARK  status: ('A' for Active; 'I' for Inactive)
REMARK    1  A    between atoms: N_4  and  C_12
REMARK    2  A    between atoms: C_7  and  C_11
REMARK    3  A    between atoms: C_12  and  C_13
REMARK                            x       y       z     vdW  Elec       q    Type
REMARK                         _______ _______ _______ _____ _____    ______ ____
ROOT
ATOM      4  N   UNL     1      10.775   5.656   3.413  0.00  0.00    -0.297 NA
ATOM      7  C   UNL     1      11.610   4.286   1.703  0.00  0.00    +0.070 C 
ATOM      8  C   UNL     1      12.686   5.303   2.120  0.00  0.00    +0.028 C 
ATOM      9  C   UNL     1      10.306   4.838   2.294  0.00  0.00    +0.096 C 
ATOM     10  C   UNL     1      11.935   6.380   2.891  0.00  0.00    +0.085 C 
ENDROOT
BRANCH   7  11
ATOM      1  F   UNL     1      12.757   2.532  -5.252  0.00  0.00    -0.205 F 
ATOM      5  N   UNL     1      12.583   3.522  -0.481  0.00  0.00    -0.341 N 
ATOM      6  N   UNL     1      10.480   4.238  -0.557  0.00  0.00    -0.232 NA
ATOM     11  C   UNL     1      11.522   4.027   0.217  0.00  0.00    +0.113 A 
ATOM     14  C   UNL     1      12.202   3.399  -1.792  0.00  0.00    +0.069 A 
ATOM     15  C   UNL     1      10.886   3.853  -1.814  0.00  0.00    +0.089 A 
ATOM     19  C   UNL     1      12.874   2.943  -2.927  0.00  0.00    +0.066 A 
ATOM     20  C   UNL     1      10.184   3.860  -3.031  0.00  0.00    +0.032 A 
ATOM     23  C   UNL     1      12.161   2.957  -4.129  0.00  0.00    +0.125 A 
ATOM     24  C   UNL     1      10.839   3.407  -4.183  0.00  0.00    +0.040 A 
ATOM     26  H   UNL     1      13.489   3.281  -0.101  0.00  0.00    +0.167 HD
ENDBRANCH   7  11
BRANCH   4  12
ATOM     12  C   UNL     1       9.744   6.551   3.917  0.00  0.00    +0.119 C 
BRANCH  12  13
ATOM      2  O   UNL     1       9.894   3.959   8.130  0.00  0.00    -0.453 OA
ATOM      3  O   UNL     1       8.972   5.775   9.419  0.00  0.00    -0.453 OA
ATOM     13  C   UNL     1       9.523   6.377   5.395  0.00  0.00    -0.030 A 
ATOM     16  C   UNL     1       9.855   5.166   6.008  0.00  0.00    +0.054 A 
ATOM     17  C   UNL     1       8.985   7.437   6.148  0.00  0.00    +0.009 A 
ATOM     18  C   UNL     1       9.635   5.055   7.367  0.00  0.00    +0.167 A 
ATOM     21  C   UNL     1       8.773   7.298   7.522  0.00  0.00    +0.050 A 
ATOM     22  C   UNL     1       9.108   6.092   8.102  0.00  0.00    +0.166 A 
ATOM     25  C   UNL     1       9.472   4.422   9.429  0.00  0.00    +0.466 C 
ENDBRANCH  12  13
ENDBRANCH   4  12
TORSDOF 3
ENDMDL
