MODEL 1
REMARK VINA RESULT:      -7.3      0.000      0.000
REMARK  Name = 45784059
REMARK  3 active torsions:
REMARK  status: ('A' for Active; 'I' for Inactive)
REMARK    1  A    between atoms: C_8  and  C_12
REMARK    2  A    between atoms: C_13  and  C_17
REMARK    3  A    between atoms: C_19  and  C_21
REMARK                            x       y       z     vdW  Elec       q    Type
REMARK                         _______ _______ _______ _____ _____    ______ ____
ROOT
ATOM      6  N   UNL     1      15.683   8.447  20.636  0.00  0.00    -0.342 N 
ATOM      7  N   UNL     1      14.835   7.231  18.980  0.00  0.00    -0.232 NA
ATOM     12  C   UNL     1      14.619   8.230  19.807  0.00  0.00    +0.113 A 
ATOM     14  C   UNL     1      16.652   7.526  20.325  0.00  0.00    +0.067 A 
ATOM     15  C   UNL     1      16.097   6.779  19.289  0.00  0.00    +0.089 A 
ATOM     16  C   UNL     1      17.923   7.289  20.845  0.00  0.00    +0.040 A 
ATOM     18  C   UNL     1      16.844   5.730  18.726  0.00  0.00    +0.030 A 
ATOM     19  C   UNL     1      18.653   6.242  20.274  0.00  0.00    +0.057 A 
ATOM     20  C   UNL     1      18.124   5.475  19.233  0.00  0.00    +0.014 A 
ATOM     22  H   UNL     1      15.749   9.160  21.351  0.00  0.00    +0.167 HD
ENDROOT
BRANCH  12   8
ATOM      4  O   UNL     1      10.608   7.858  16.824  0.00  0.00    -0.276 OA
ATOM      5  N   UNL     1      12.215   9.194  17.813  0.00  0.00    -0.301 N 
ATOM      8  C   UNL     1      13.367   9.086  19.890  0.00  0.00    +0.074 C 
ATOM      9  C   UNL     1      13.583  10.468  19.253  0.00  0.00    +0.032 C 
ATOM     10  C   UNL     1      12.136   8.575  19.131  0.00  0.00    +0.119 C 
ATOM     11  C   UNL     1      13.204  10.264  17.790  0.00  0.00    +0.108 C 
ATOM     13  C   UNL     1      11.433   8.771  16.752  0.00  0.00    +0.212 C 
ATOM     17  C   UNL     1      11.642   9.511  15.455  0.00  0.00    +0.109 C 
ENDBRANCH  12   8
BRANCH  19  21
ATOM      1  F   UNL     1      20.433   4.677  20.470  0.00  0.00    -0.166 F 
ATOM      2  F   UNL     1      20.985   6.773  20.298  0.00  0.00    -0.166 F 
ATOM      3  F   UNL     1      20.127   6.028  22.146  0.00  0.00    -0.166 F 
ATOM     21  C   UNL     1      20.022   5.939  20.787  0.00  0.00    +0.417 C 
ENDBRANCH  19  21
TORSDOF 2
ENDMDL
MODEL 2
REMARK VINA RESULT:      -7.2      1.945      3.099
REMARK  Name = 45784059
REMARK  3 active torsions:
REMARK  status: ('A' for Active; 'I' for Inactive)
REMARK    1  A    between atoms: C_8  and  C_12
REMARK    2  A    between atoms: C_13  and  C_17
REMARK    3  A    between atoms: C_19  and  C_21
REMARK                            x       y       z     vdW  Elec       q    Type
REMARK                         _______ _______ _______ _____ _____    ______ ____
ROOT
ATOM      6  N   UNL     1      15.817   6.694  19.111  0.00  0.00    -0.342 N 
ATOM      7  N   UNL     1      15.664   8.552  20.320  0.00  0.00    -0.232 NA
ATOM     12  C   UNL     1      15.054   7.773  19.454  0.00  0.00    +0.113 A 
ATOM     14  C   UNL     1      16.999   6.780  19.801  0.00  0.00    +0.067 A 
ATOM     15  C   UNL     1      16.879   7.949  20.547  0.00  0.00    +0.089 A 
ATOM     16  C   UNL     1      18.128   5.962  19.834  0.00  0.00    +0.040 A 
ATOM     18  C   UNL     1      17.939   8.339  21.383  0.00  0.00    +0.030 A 
ATOM     19  C   UNL     1      19.174   6.365  20.670  0.00  0.00    +0.057 A 
ATOM     20  C   UNL     1      19.083   7.532  21.432  0.00  0.00    +0.014 A 
ATOM     22  H   UNL     1      15.558   5.958  18.466  0.00  0.00    +0.167 HD
ENDROOT
BRANCH  12   8
ATOM      4  O   UNL     1      11.579  10.954  21.167  0.00  0.00    -0.276 OA
ATOM      5  N   UNL     1      12.126   8.822  20.464  0.00  0.00    -0.301 N 
ATOM      8  C   UNL     1      13.670   7.983  18.862  0.00  0.00    +0.074 C 
ATOM      9  C   UNL     1      12.702   6.865  19.278  0.00  0.00    +0.032 C 
ATOM     10  C   UNL     1      12.915   9.240  19.311  0.00  0.00    +0.119 C 
ATOM     11  C   UNL     1      12.092   7.370  20.581  0.00  0.00    +0.108 C 
ATOM     13  C   UNL     1      11.519   9.732  21.311  0.00  0.00    +0.212 C 
ATOM     17  C   UNL     1      10.746   9.135  22.460  0.00  0.00    +0.109 C 
ENDBRANCH  12   8
BRANCH  19  21
ATOM      1  F   UNL     1      20.794   5.284  22.035  0.00  0.00    -0.166 F 
ATOM      2  F   UNL     1      20.281   4.306  20.162  0.00  0.00    -0.166 F 
ATOM      3  F   UNL     1      21.493   6.104  20.147  0.00  0.00    -0.166 F 
ATOM     21  C   UNL     1      20.410   5.531  20.749  0.00  0.00    +0.417 C 
ENDBRANCH  19  21
TORSDOF 2
ENDMDL
MODEL 3
REMARK VINA RESULT:      -7.1      1.462      2.179
REMARK  Name = 45784059
REMARK  3 active torsions:
REMARK  status: ('A' for Active; 'I' for Inactive)
REMARK    1  A    between atoms: C_8  and  C_12
REMARK    2  A    between atoms: C_13  and  C_17
REMARK    3  A    between atoms: C_19  and  C_21
REMARK                            x       y       z     vdW  Elec       q    Type
REMARK                         _______ _______ _______ _____ _____    ______ ____
ROOT
ATOM      6  N   UNL     1      15.848   6.539  19.313  0.00  0.00    -0.342 N 
ATOM      7  N   UNL     1      15.690   8.380  20.547  0.00  0.00    -0.232 NA
ATOM     12  C   UNL     1      15.066   7.589  19.702  0.00  0.00    +0.113 A 
ATOM     14  C   UNL     1      17.058   6.658  19.949  0.00  0.00    +0.067 A 
ATOM     15  C   UNL     1      16.934   7.816  20.713  0.00  0.00    +0.089 A 
ATOM     16  C   UNL     1      18.214   5.879  19.922  0.00  0.00    +0.040 A 
ATOM     18  C   UNL     1      18.017   8.234  21.503  0.00  0.00    +0.030 A 
ATOM     19  C   UNL     1      19.283   6.309  20.714  0.00  0.00    +0.057 A 
ATOM     20  C   UNL     1      19.188   7.466  21.492  0.00  0.00    +0.014 A 
ATOM     22  H   UNL     1      15.585   5.801  18.673  0.00  0.00    +0.167 HD
ENDROOT
BRANCH  12   8
ATOM      4  O   UNL     1      13.794   8.483  14.937  0.00  0.00    -0.276 OA
ATOM      5  N   UNL     1      13.584   9.034  17.172  0.00  0.00    -0.301 N 
ATOM      8  C   UNL     1      13.651   7.757  19.176  0.00  0.00    +0.074 C 
ATOM      9  C   UNL     1      13.098   9.159  19.477  0.00  0.00    +0.032 C 
ATOM     10  C   UNL     1      13.469   7.664  17.656  0.00  0.00    +0.119 C 
ATOM     11  C   UNL     1      13.519   9.990  18.271  0.00  0.00    +0.108 C 
ATOM     13  C   UNL     1      13.745   9.331  15.830  0.00  0.00    +0.212 C 
ATOM     17  C   UNL     1      13.856  10.797  15.497  0.00  0.00    +0.109 C 
ENDBRANCH  12   8
BRANCH  19  21
ATOM      1  F   UNL     1      20.993   5.263  21.992  0.00  0.00    -0.166 F 
ATOM      2  F   UNL     1      20.436   4.298  20.125  0.00  0.00    -0.166 F 
ATOM      3  F   UNL     1      21.586   6.136  20.092  0.00  0.00    -0.166 F 
ATOM     21  C   UNL     1      20.549   5.517  20.728  0.00  0.00    +0.417 C 
ENDBRANCH  19  21
TORSDOF 2
ENDMDL
MODEL 4
REMARK VINA RESULT:      -7.0     13.316     16.162
REMARK  Name = 45784059
REMARK  3 active torsions:
REMARK  status: ('A' for Active; 'I' for Inactive)
REMARK    1  A    between atoms: C_8  and  C_12
REMARK    2  A    between atoms: C_13  and  C_17
REMARK    3  A    between atoms: C_19  and  C_21
REMARK                            x       y       z     vdW  Elec       q    Type
REMARK                         _______ _______ _______ _____ _____    ______ ____
ROOT
ATOM      6  N   UNL     1      10.149   4.991   4.534  0.00  0.00    -0.342 N 
ATOM      7  N   UNL     1       9.628   7.141   4.315  0.00  0.00    -0.232 NA
ATOM     12  C   UNL     1      10.008   6.051   3.684  0.00  0.00    +0.113 A 
ATOM     14  C   UNL     1       9.840   5.424   5.799  0.00  0.00    +0.067 A 
ATOM     15  C   UNL     1       9.519   6.769   5.635  0.00  0.00    +0.089 A 
ATOM     16  C   UNL     1       9.816   4.776   7.033  0.00  0.00    +0.040 A 
ATOM     18  C   UNL     1       9.149   7.526   6.759  0.00  0.00    +0.030 A 
ATOM     19  C   UNL     1       9.445   5.543   8.142  0.00  0.00    +0.057 A 
ATOM     20  C   UNL     1       9.117   6.895   8.009  0.00  0.00    +0.014 A 
ATOM     22  H   UNL     1      10.428   4.053   4.280  0.00  0.00    +0.167 HD
ENDROOT
BRANCH  12   8
ATOM      4  O   UNL     1      13.007   2.649   1.552  0.00  0.00    -0.276 OA
ATOM      5  N   UNL     1      12.362   4.859   1.755  0.00  0.00    -0.301 N 
ATOM      8  C   UNL     1      10.276   5.911   2.196  0.00  0.00    +0.074 C 
ATOM      9  C   UNL     1      11.286   6.958   1.702  0.00  0.00    +0.032 C 
ATOM     10  C   UNL     1      10.928   4.600   1.737  0.00  0.00    +0.119 C 
ATOM     11  C   UNL     1      12.640   6.283   1.890  0.00  0.00    +0.108 C 
ATOM     13  C   UNL     1      13.296   3.841   1.665  0.00  0.00    +0.212 C 
ATOM     17  C   UNL     1      14.739   4.278   1.706  0.00  0.00    +0.109 C 
ENDBRANCH  12   8
BRANCH  19  21
ATOM      1  F   UNL     1       9.346   3.545   9.426  0.00  0.00    -0.166 F 
ATOM      2  F   UNL     1      10.486   5.195  10.267  0.00  0.00    -0.166 F 
ATOM      3  F   UNL     1       8.319   5.282  10.235  0.00  0.00    -0.166 F 
ATOM     21  C   UNL     1       9.400   4.906   9.491  0.00  0.00    +0.417 C 
ENDBRANCH  19  21
TORSDOF 2
ENDMDL
MODEL 5
REMARK VINA RESULT:      -6.8     26.967     28.092
REMARK  Name = 45784059
REMARK  3 active torsions:
REMARK  status: ('A' for Active; 'I' for Inactive)
REMARK    1  A    between atoms: C_8  and  C_12
REMARK    2  A    between atoms: C_13  and  C_17
REMARK    3  A    between atoms: C_19  and  C_21
REMARK                            x       y       z     vdW  Elec       q    Type
REMARK                         _______ _______ _______ _____ _____    ______ ____
ROOT
ATOM      6  N   UNL     1      -2.891 -11.625  15.592  0.00  0.00    -0.342 N 
ATOM      7  N   UNL     1      -4.194 -10.423  14.251  0.00  0.00    -0.232 NA
ATOM     12  C   UNL     1      -3.080 -11.116  14.338  0.00  0.00    +0.113 A 
ATOM     14  C   UNL     1      -3.954 -11.235  16.367  0.00  0.00    +0.067 A 
ATOM     15  C   UNL     1      -4.752 -10.486  15.506  0.00  0.00    +0.089 A 
ATOM     16  C   UNL     1      -4.275 -11.466  17.704  0.00  0.00    +0.040 A 
ATOM     18  C   UNL     1      -5.946  -9.928  15.993  0.00  0.00    +0.030 A 
ATOM     19  C   UNL     1      -5.467 -10.903  18.172  0.00  0.00    +0.057 A 
ATOM     20  C   UNL     1      -6.289 -10.147  17.333  0.00  0.00    +0.014 A 
ATOM     22  H   UNL     1      -2.110 -12.190  15.897  0.00  0.00    +0.167 HD
ENDROOT
BRANCH  12   8
ATOM      4  O   UNL     1      -3.214  -9.088   9.756  0.00  0.00    -0.276 OA
ATOM      5  N   UNL     1      -3.005 -10.977  11.073  0.00  0.00    -0.301 N 
ATOM      8  C   UNL     1      -2.075 -11.363  13.226  0.00  0.00    +0.074 C 
ATOM      9  C   UNL     1      -2.326 -12.707  12.525  0.00  0.00    +0.032 C 
ATOM     10  C   UNL     1      -2.100 -10.381  12.048  0.00  0.00    +0.119 C 
ATOM     11  C   UNL     1      -3.302 -12.364  11.406  0.00  0.00    +0.108 C 
ATOM     13  C   UNL     1      -3.498 -10.264   9.994  0.00  0.00    +0.212 C 
ATOM     17  C   UNL     1      -4.429 -11.024   9.084  0.00  0.00    +0.109 C 
ENDBRANCH  12   8
BRANCH  19  21
ATOM      1  F   UNL     1      -6.210  -9.952  20.221  0.00  0.00    -0.166 F 
ATOM      2  F   UNL     1      -6.940 -11.944  19.743  0.00  0.00    -0.166 F 
ATOM      3  F   UNL     1      -4.880 -11.666  20.362  0.00  0.00    -0.166 F 
ATOM     21  C   UNL     1      -5.866 -11.114  19.595  0.00  0.00    +0.417 C 
ENDBRANCH  19  21
TORSDOF 2
ENDMDL
MODEL 6
REMARK VINA RESULT:      -6.5     26.845     28.409
REMARK  Name = 45784059
REMARK  3 active torsions:
REMARK  status: ('A' for Active; 'I' for Inactive)
REMARK    1  A    between atoms: C_8  and  C_12
REMARK    2  A    between atoms: C_13  and  C_17
REMARK    3  A    between atoms: C_19  and  C_21
REMARK                            x       y       z     vdW  Elec       q    Type
REMARK                         _______ _______ _______ _____ _____    ______ ____
ROOT
ATOM      6  N   UNL     1      -4.357 -10.301  15.195  0.00  0.00    -0.342 N 
ATOM      7  N   UNL     1      -3.320 -11.044  17.014  0.00  0.00    -0.232 NA
ATOM     12  C   UNL     1      -3.201 -10.794  15.729  0.00  0.00    +0.113 A 
ATOM     14  C   UNL     1      -5.286 -10.227  16.201  0.00  0.00    +0.067 A 
ATOM     15  C   UNL     1      -4.615 -10.698  17.327  0.00  0.00    +0.089 A 
ATOM     16  C   UNL     1      -6.615  -9.805  16.223  0.00  0.00    +0.040 A 
ATOM     18  C   UNL     1      -5.294 -10.755  18.555  0.00  0.00    +0.030 A 
ATOM     19  C   UNL     1      -7.276  -9.868  17.453  0.00  0.00    +0.057 A 
ATOM     20  C   UNL     1      -6.629 -10.334  18.600  0.00  0.00    +0.014 A 
ATOM     22  H   UNL     1      -4.504 -10.034  14.230  0.00  0.00    +0.167 HD
ENDROOT
BRANCH  12   8
ATOM      4  O   UNL     1      -2.735  -9.576  10.890  0.00  0.00    -0.276 OA
ATOM      5  N   UNL     1      -2.483 -11.153  12.560  0.00  0.00    -0.301 N 
ATOM      8  C   UNL     1      -1.962 -11.002  14.875  0.00  0.00    +0.074 C 
ATOM      9  C   UNL     1      -1.832 -12.462  14.413  0.00  0.00    +0.032 C 
ATOM     10  C   UNL     1      -1.911 -10.242  13.544  0.00  0.00    +0.119 C 
ATOM     11  C   UNL     1      -2.602 -12.502  13.097  0.00  0.00    +0.108 C 
ATOM     13  C   UNL     1      -2.857 -10.732  11.296  0.00  0.00    +0.212 C 
ATOM     17  C   UNL     1      -3.439 -11.799  10.403  0.00  0.00    +0.109 C 
ENDBRANCH  12   8
BRANCH  19  21
ATOM      1  F   UNL     1      -9.319  -9.881  18.671  0.00  0.00    -0.166 F 
ATOM      2  F   UNL     1      -8.854  -8.073  17.556  0.00  0.00    -0.166 F 
ATOM      3  F   UNL     1      -9.471  -9.866  16.503  0.00  0.00    -0.166 F 
ATOM     21  C   UNL     1      -8.701  -9.429  17.542  0.00  0.00    +0.417 C 
ENDBRANCH  19  21
TORSDOF 2
ENDMDL
MODEL 7
REMARK VINA RESULT:      -6.3     26.569     28.250
REMARK  Name = 45784059
REMARK  3 active torsions:
REMARK  status: ('A' for Active; 'I' for Inactive)
REMARK    1  A    between atoms: C_8  and  C_12
REMARK    2  A    between atoms: C_13  and  C_17
REMARK    3  A    between atoms: C_19  and  C_21
REMARK                            x       y       z     vdW  Elec       q    Type
REMARK                         _______ _______ _______ _____ _____    ______ ____
ROOT
ATOM      6  N   UNL     1      -4.939 -11.750  15.974  0.00  0.00    -0.342 N 
ATOM      7  N   UNL     1      -3.286 -11.203  17.355  0.00  0.00    -0.232 NA
ATOM     12  C   UNL     1      -4.501 -11.698  17.267  0.00  0.00    +0.113 A 
ATOM     14  C   UNL     1      -3.941 -11.255  15.173  0.00  0.00    +0.067 A 
ATOM     15  C   UNL     1      -2.920 -10.921  16.059  0.00  0.00    +0.089 A 
ATOM     16  C   UNL     1      -3.846 -11.076  13.794  0.00  0.00    +0.040 A 
ATOM     18  C   UNL     1      -1.728 -10.375  15.556  0.00  0.00    +0.030 A 
ATOM     19  C   UNL     1      -2.653 -10.532  13.309  0.00  0.00    +0.057 A 
ATOM     20  C   UNL     1      -1.611 -10.187  14.173  0.00  0.00    +0.014 A 
ATOM     22  H   UNL     1      -5.837 -12.093  15.660  0.00  0.00    +0.167 HD
ENDROOT
BRANCH  12   8
ATOM      4  O   UNL     1      -9.482 -12.240  17.141  0.00  0.00    -0.276 OA
ATOM      5  N   UNL     1      -7.615 -11.408  18.219  0.00  0.00    -0.301 N 
ATOM      8  C   UNL     1      -5.373 -12.175  18.416  0.00  0.00    +0.074 C 
ATOM      9  C   UNL     1      -5.625 -11.055  19.437  0.00  0.00    +0.032 C 
ATOM     10  C   UNL     1      -6.801 -12.607  18.059  0.00  0.00    +0.119 C 
ATOM     11  C   UNL     1      -6.883 -10.364  18.925  0.00  0.00    +0.108 C 
ATOM     13  C   UNL     1      -8.907 -11.324  17.732  0.00  0.00    +0.212 C 
ATOM     17  C   UNL     1      -9.609 -10.012  17.975  0.00  0.00    +0.109 C 
ENDBRANCH  12   8
BRANCH  19  21
ATOM      1  F   UNL     1      -1.290  -9.751  11.523  0.00  0.00    -0.166 F 
ATOM      2  F   UNL     1      -2.560 -11.467  11.109  0.00  0.00    -0.166 F 
ATOM      3  F   UNL     1      -3.437  -9.492  11.302  0.00  0.00    -0.166 F 
ATOM     21  C   UNL     1      -2.490 -10.316  11.840  0.00  0.00    +0.417 C 
ENDBRANCH  19  21
TORSDOF 2
ENDMDL
MODEL 8
REMARK VINA RESULT:      -6.3     23.924     26.443
REMARK  Name = 45784059
REMARK  3 active torsions:
REMARK  status: ('A' for Active; 'I' for Inactive)
REMARK    1  A    between atoms: C_8  and  C_12
REMARK    2  A    between atoms: C_13  and  C_17
REMARK    3  A    between atoms: C_19  and  C_21
REMARK                            x       y       z     vdW  Elec       q    Type
REMARK                         _______ _______ _______ _____ _____    ______ ____
ROOT
ATOM      6  N   UNL     1     -10.774  11.735  17.911  0.00  0.00    -0.342 N 
ATOM      7  N   UNL     1     -10.078  10.557  16.160  0.00  0.00    -0.232 NA
ATOM     12  C   UNL     1     -10.249  11.765  16.651  0.00  0.00    +0.113 A 
ATOM     14  C   UNL     1     -10.955  10.420  18.259  0.00  0.00    +0.067 A 
ATOM     15  C   UNL     1     -10.513   9.706  17.149  0.00  0.00    +0.089 A 
ATOM     16  C   UNL     1     -11.452   9.815  19.413  0.00  0.00    +0.040 A 
ATOM     18  C   UNL     1     -10.563   8.302  17.175  0.00  0.00    +0.030 A 
ATOM     19  C   UNL     1     -11.495   8.417  19.422  0.00  0.00    +0.057 A 
ATOM     20  C   UNL     1     -11.058   7.672  18.324  0.00  0.00    +0.014 A 
ATOM     22  H   UNL     1     -10.989  12.538  18.489  0.00  0.00    +0.167 HD
ENDROOT
BRANCH  12   8
ATOM      4  O   UNL     1      -5.655  13.575  15.786  0.00  0.00    -0.276 OA
ATOM      5  N   UNL     1      -7.794  13.923  16.590  0.00  0.00    -0.301 N 
ATOM      8  C   UNL     1      -9.926  13.079  15.961  0.00  0.00    +0.074 C 
ATOM      9  C   UNL     1     -10.105  14.275  16.910  0.00  0.00    +0.032 C 
ATOM     10  C   UNL     1      -8.480  13.267  15.484  0.00  0.00    +0.119 C 
ATOM     11  C   UNL     1      -8.742  14.426  17.576  0.00  0.00    +0.108 C 
ATOM     13  C   UNL     1      -6.414  14.018  16.649  0.00  0.00    +0.212 C 
ATOM     17  C   UNL     1      -5.863  14.721  17.864  0.00  0.00    +0.109 C 
ENDBRANCH  12   8
BRANCH  19  21
ATOM      1  F   UNL     1     -12.376   8.568  21.626  0.00  0.00    -0.166 F 
ATOM      2  F   UNL     1     -13.124   6.951  20.379  0.00  0.00    -0.166 F 
ATOM      3  F   UNL     1     -11.115   6.851  21.190  0.00  0.00    -0.166 F 
ATOM     21  C   UNL     1     -12.017   7.709  20.628  0.00  0.00    +0.417 C 
ENDBRANCH  19  21
TORSDOF 2
ENDMDL
MODEL 9
REMARK VINA RESULT:      -6.2      5.239      8.599
REMARK  Name = 45784059
REMARK  3 active torsions:
REMARK  status: ('A' for Active; 'I' for Inactive)
REMARK    1  A    between atoms: C_8  and  C_12
REMARK    2  A    between atoms: C_13  and  C_17
REMARK    3  A    between atoms: C_19  and  C_21
REMARK                            x       y       z     vdW  Elec       q    Type
REMARK                         _______ _______ _______ _____ _____    ______ ____
ROOT
ATOM      6  N   UNL     1      19.327   6.891  21.969  0.00  0.00    -0.342 N 
ATOM      7  N   UNL     1      20.062   5.646  20.282  0.00  0.00    -0.232 NA
ATOM     12  C   UNL     1      20.385   6.228  21.415  0.00  0.00    +0.113 A 
ATOM     14  C   UNL     1      18.248   6.727  21.138  0.00  0.00    +0.067 A 
ATOM     15  C   UNL     1      18.733   5.946  20.092  0.00  0.00    +0.089 A 
ATOM     16  C   UNL     1      16.931   7.180  21.209  0.00  0.00    +0.040 A 
ATOM     18  C   UNL     1      17.865   5.586  19.048  0.00  0.00    +0.030 A 
ATOM     19  C   UNL     1      16.081   6.813  20.161  0.00  0.00    +0.057 A 
ATOM     20  C   UNL     1      16.538   6.030  19.098  0.00  0.00    +0.014 A 
ATOM     22  H   UNL     1      19.334   7.410  22.838  0.00  0.00    +0.167 HD
ENDROOT
BRANCH  12   8
ATOM      4  O   UNL     1      24.523   4.046  19.616  0.00  0.00    -0.276 OA
ATOM      5  N   UNL     1      23.072   4.367  21.386  0.00  0.00    -0.301 N 
ATOM      8  C   UNL     1      21.746   6.211  22.089  0.00  0.00    +0.074 C 
ATOM      9  C   UNL     1      21.808   5.164  23.212  0.00  0.00    +0.032 C 
ATOM     10  C   UNL     1      22.940   5.809  21.214  0.00  0.00    +0.119 C 
ATOM     11  C   UNL     1      22.272   3.894  22.508  0.00  0.00    +0.108 C 
ATOM     13  C   UNL     1      23.863   3.595  20.554  0.00  0.00    +0.212 C 
ATOM     17  C   UNL     1      23.885   2.119  20.864  0.00  0.00    +0.109 C 
ENDBRANCH  12   8
BRANCH  19  21
ATOM      1  F   UNL     1      14.540   8.612  20.384  0.00  0.00    -0.166 F 
ATOM      2  F   UNL     1      13.989   7.012  19.017  0.00  0.00    -0.166 F 
ATOM      3  F   UNL     1      13.911   6.680  21.159  0.00  0.00    -0.166 F 
ATOM     21  C   UNL     1      14.659   7.268  20.179  0.00  0.00    +0.417 C 
ENDBRANCH  19  21
TORSDOF 2
ENDMDL
MODEL 10
REMARK VINA RESULT:      -6.0     27.529     29.289
REMARK  Name = 45784059
REMARK  3 active torsions:
REMARK  status: ('A' for Active; 'I' for Inactive)
REMARK    1  A    between atoms: C_8  and  C_12
REMARK    2  A    between atoms: C_13  and  C_17
REMARK    3  A    between atoms: C_19  and  C_21
REMARK                            x       y       z     vdW  Elec       q    Type
REMARK                         _______ _______ _______ _____ _____    ______ ____
ROOT
ATOM      6  N   UNL     1      -7.158  -9.166  16.186  0.00  0.00    -0.342 N 
ATOM      7  N   UNL     1      -7.427  -9.950  18.248  0.00  0.00    -0.232 NA
ATOM     12  C   UNL     1      -7.978  -9.261  17.274  0.00  0.00    +0.113 A 
ATOM     14  C   UNL     1      -5.998  -9.840  16.477  0.00  0.00    +0.067 A 
ATOM     15  C   UNL     1      -6.191 -10.319  17.769  0.00  0.00    +0.089 A 
ATOM     16  C   UNL     1      -4.833 -10.062  15.743  0.00  0.00    +0.040 A 
ATOM     18  C   UNL     1      -5.172 -11.068  18.381  0.00  0.00    +0.030 A 
ATOM     19  C   UNL     1      -3.829 -10.809  16.366  0.00  0.00    +0.057 A 
ATOM     20  C   UNL     1      -3.994 -11.304  17.662  0.00  0.00    +0.014 A 
ATOM     22  H   UNL     1      -7.366  -8.688  15.319  0.00  0.00    +0.167 HD
ENDROOT
BRANCH  12   8
ATOM      4  O   UNL     1     -12.266 -11.521  18.552  0.00  0.00    -0.276 OA
ATOM      5  N   UNL     1     -11.096 -10.219  17.043  0.00  0.00    -0.301 N 
ATOM      8  C   UNL     1      -9.355  -8.618  17.283  0.00  0.00    +0.074 C 
ATOM      9  C   UNL     1      -9.946  -8.527  15.867  0.00  0.00    +0.032 C 
ATOM     10  C   UNL     1     -10.458  -9.368  18.040  0.00  0.00    +0.119 C 
ATOM     11  C   UNL     1     -10.693  -9.844  15.693  0.00  0.00    +0.108 C 
ATOM     13  C   UNL     1     -11.957 -11.245  17.391  0.00  0.00    +0.212 C 
ATOM     17  C   UNL     1     -12.526 -12.035  16.240  0.00  0.00    +0.109 C 
ENDBRANCH  12   8
BRANCH  19  21
ATOM      1  F   UNL     1      -1.459 -10.998  16.437  0.00  0.00    -0.166 F 
ATOM      2  F   UNL     1      -2.508 -12.325  15.070  0.00  0.00    -0.166 F 
ATOM      3  F   UNL     1      -2.325 -10.215  14.603  0.00  0.00    -0.166 F 
ATOM     21  C   UNL     1      -2.558 -11.082  15.632  0.00  0.00    +0.417 C 
ENDBRANCH  19  21
TORSDOF 2
ENDMDL
