MODEL 1
REMARK VINA RESULT:      -7.3      0.000      0.000
REMARK  Name = 56774928
REMARK  10 active torsions:
REMARK  status: ('A' for Active; 'I' for Inactive)
REMARK    1  A    between atoms: O_2  and  C_10
REMARK    2  A    between atoms: O_3  and  C_16
REMARK    3  A    between atoms: O_3  and  C_22
REMARK    4  A    between atoms: N_6  and  C_12
REMARK    5  A    between atoms: N_7  and  C_21
REMARK    6  A    between atoms: C_9  and  C_10
REMARK    7  A    between atoms: C_10  and  C_14
REMARK    8  A    between atoms: C_12  and  C_16
REMARK    9  A    between atoms: C_22  and  C_23
REMARK   10  A    between atoms: C_24  and  C_25
REMARK                            x       y       z     vdW  Elec       q    Type
REMARK                         _______ _______ _______ _____ _____    ______ ____
ROOT
ATOM     14  C   UNL     1      15.606   6.563  20.051  0.00  0.00    -0.017 A 
ATOM     17  C   UNL     1      16.281   6.059  18.939  0.00  0.00    +0.008 A 
ATOM     18  C   UNL     1      16.312   6.873  21.214  0.00  0.00    +0.008 A 
ATOM     19  C   UNL     1      17.661   5.866  18.989  0.00  0.00    +0.023 A 
ATOM     20  C   UNL     1      17.692   6.681  21.264  0.00  0.00    +0.023 A 
ATOM     21  C   UNL     1      18.367   6.177  20.152  0.00  0.00    +0.034 A 
ENDROOT
BRANCH  21   7
ATOM      5  O   UNL     1      20.558   8.060  20.954  0.00  0.00    -0.270 OA
ATOM      7  N   UNL     1      19.747   5.985  20.202  0.00  0.00    -0.281 N 
ATOM     24  C   UNL     1      20.734   6.903  20.586  0.00  0.00    +0.250 C 
ATOM     31  H   UNL     1      20.041   5.043  19.958  0.00  0.00    +0.155 HD
BRANCH  24  25
ATOM      8  N   UNL     1      24.501   6.852  20.597  0.00  0.00    -0.263 NA
ATOM     25  C   UNL     1      22.128   6.389  20.562  0.00  0.00    +0.055 A 
ATOM     26  C   UNL     1      22.388   5.025  20.489  0.00  0.00    +0.016 A 
ATOM     27  C   UNL     1      23.209   7.253  20.613  0.00  0.00    +0.123 A 
ATOM     28  C   UNL     1      23.703   4.574  20.470  0.00  0.00    +0.020 A 
ATOM     29  C   UNL     1      24.714   5.519  20.525  0.00  0.00    +0.111 A 
ENDBRANCH  24  25
ENDBRANCH  21   7
BRANCH  14  10
ATOM     10  C   UNL     1      14.114   6.772  19.997  0.00  0.00    +0.167 C 
BRANCH  10   9
ATOM      1  O   UNL     1      14.174   8.409  17.563  0.00  0.00    -0.369 OA
ATOM      4  O   UNL     1      10.602   8.464  18.083  0.00  0.00    -0.273 OA
ATOM      6  N   UNL     1      12.313   8.425  19.660  0.00  0.00    -0.289 N 
ATOM      9  C   UNL     1      13.750   8.258  19.911  0.00  0.00    +0.135 C 
ATOM     11  C   UNL     1      14.555   8.956  18.820  0.00  0.00    +0.185 C 
ATOM     13  C   UNL     1      11.801   8.497  18.366  0.00  0.00    +0.242 C 
ATOM     15  C   UNL     1      12.831   8.714  17.264  0.00  0.00    +0.255 C 
BRANCH   6  12
ATOM     12  C   UNL     1      11.416   8.328  20.803  0.00  0.00    +0.136 C 
BRANCH  12  16
ATOM     16  C   UNL     1      11.896   9.182  21.962  0.00  0.00    +0.178 C 
BRANCH  16   3
ATOM      3  O   UNL     1      11.069  10.332  22.076  0.00  0.00    -0.378 OA
BRANCH   3  22
ATOM     22  C   UNL     1      11.662  11.465  21.458  0.00  0.00    +0.156 C 
ATOM     23  C   UNL     1      11.008  12.720  21.996  0.00  0.00    +0.034 C 
ENDBRANCH   3  22
ENDBRANCH  16   3
ENDBRANCH  12  16
ENDBRANCH   6  12
ENDBRANCH  10   9
BRANCH  10   2
ATOM      2  O   UNL     1      13.513   6.208  21.159  0.00  0.00    -0.385 OA
ATOM     30  H   UNL     1      12.553   6.138  21.022  0.00  0.00    +0.210 HD
ENDBRANCH  10   2
ENDBRANCH  14  10
TORSDOF 9
ENDMDL
MODEL 2
REMARK VINA RESULT:      -6.9      1.569      1.986
REMARK  Name = 56774928
REMARK  10 active torsions:
REMARK  status: ('A' for Active; 'I' for Inactive)
REMARK    1  A    between atoms: O_2  and  C_10
REMARK    2  A    between atoms: O_3  and  C_16
REMARK    3  A    between atoms: O_3  and  C_22
REMARK    4  A    between atoms: N_6  and  C_12
REMARK    5  A    between atoms: N_7  and  C_21
REMARK    6  A    between atoms: C_9  and  C_10
REMARK    7  A    between atoms: C_10  and  C_14
REMARK    8  A    between atoms: C_12  and  C_16
REMARK    9  A    between atoms: C_22  and  C_23
REMARK   10  A    between atoms: C_24  and  C_25
REMARK                            x       y       z     vdW  Elec       q    Type
REMARK                         _______ _______ _______ _____ _____    ______ ____
ROOT
ATOM     14  C   UNL     1      16.007   6.555  19.904  0.00  0.00    -0.017 A 
ATOM     17  C   UNL     1      16.613   7.123  21.025  0.00  0.00    +0.008 A 
ATOM     18  C   UNL     1      16.767   5.804  19.006  0.00  0.00    +0.008 A 
ATOM     19  C   UNL     1      17.977   6.941  21.248  0.00  0.00    +0.023 A 
ATOM     20  C   UNL     1      18.131   5.621  19.230  0.00  0.00    +0.023 A 
ATOM     21  C   UNL     1      18.737   6.189  20.351  0.00  0.00    +0.034 A 
ENDROOT
BRANCH  21   7
ATOM      5  O   UNL     1      20.267   5.979  22.921  0.00  0.00    -0.270 OA
ATOM      7  N   UNL     1      20.101   6.006  20.575  0.00  0.00    -0.281 N 
ATOM     24  C   UNL     1      20.769   5.915  21.803  0.00  0.00    +0.250 C 
ATOM     31  H   UNL     1      20.646   5.894  19.726  0.00  0.00    +0.155 HD
BRANCH  24  25
ATOM      8  N   UNL     1      24.347   5.373  22.850  0.00  0.00    -0.263 NA
ATOM     25  C   UNL     1      22.236   5.689  21.716  0.00  0.00    +0.055 A 
ATOM     26  C   UNL     1      22.872   5.578  20.485  0.00  0.00    +0.016 A 
ATOM     27  C   UNL     1      23.011   5.580  22.859  0.00  0.00    +0.123 A 
ATOM     28  C   UNL     1      24.245   5.366  20.435  0.00  0.00    +0.020 A 
ATOM     29  C   UNL     1      24.931   5.272  21.635  0.00  0.00    +0.111 A 
ENDBRANCH  24  25
ENDBRANCH  21   7
BRANCH  14  10
ATOM     10  C   UNL     1      14.532   6.752  19.662  0.00  0.00    +0.167 C 
BRANCH  10   9
ATOM      1  O   UNL     1      13.283   7.782  17.214  0.00  0.00    -0.369 OA
ATOM      4  O   UNL     1      10.557   8.491  19.473  0.00  0.00    -0.273 OA
ATOM      6  N   UNL     1      12.848   8.542  19.878  0.00  0.00    -0.289 N 
ATOM      9  C   UNL     1      14.192   8.219  19.382  0.00  0.00    +0.135 C 
ATOM     11  C   UNL     1      14.287   8.529  17.892  0.00  0.00    +0.185 C 
ATOM     13  C   UNL     1      11.719   8.404  19.073  0.00  0.00    +0.242 C 
ATOM     15  C   UNL     1      11.994   8.214  17.586  0.00  0.00    +0.255 C 
BRANCH   6  12
ATOM     12  C   UNL     1      12.709   8.837  21.298  0.00  0.00    +0.136 C 
BRANCH  12  16
ATOM     16  C   UNL     1      13.810   9.761  21.785  0.00  0.00    +0.178 C 
BRANCH  16   3
ATOM      3  O   UNL     1      13.581  11.072  21.288  0.00  0.00    -0.378 OA
BRANCH   3  22
ATOM     22  C   UNL     1      14.771  11.646  20.763  0.00  0.00    +0.156 C 
ATOM     23  C   UNL     1      15.963  10.864  21.273  0.00  0.00    +0.034 C 
ENDBRANCH   3  22
ENDBRANCH  16   3
ENDBRANCH  12  16
ENDBRANCH   6  12
ENDBRANCH  10   9
BRANCH  10   2
ATOM      2  O   UNL     1      13.801   6.308  20.800  0.00  0.00    -0.385 OA
ATOM     30  H   UNL     1      12.954   6.783  20.842  0.00  0.00    +0.210 HD
ENDBRANCH  10   2
ENDBRANCH  14  10
TORSDOF 9
ENDMDL
MODEL 3
REMARK VINA RESULT:      -6.4      2.414      9.358
REMARK  Name = 56774928
REMARK  10 active torsions:
REMARK  status: ('A' for Active; 'I' for Inactive)
REMARK    1  A    between atoms: O_2  and  C_10
REMARK    2  A    between atoms: O_3  and  C_16
REMARK    3  A    between atoms: O_3  and  C_22
REMARK    4  A    between atoms: N_6  and  C_12
REMARK    5  A    between atoms: N_7  and  C_21
REMARK    6  A    between atoms: C_9  and  C_10
REMARK    7  A    between atoms: C_10  and  C_14
REMARK    8  A    between atoms: C_12  and  C_16
REMARK    9  A    between atoms: C_22  and  C_23
REMARK   10  A    between atoms: C_24  and  C_25
REMARK                            x       y       z     vdW  Elec       q    Type
REMARK                         _______ _______ _______ _____ _____    ______ ____
ROOT
ATOM     14  C   UNL     1      19.329   5.713  20.435  0.00  0.00    -0.017 A 
ATOM     17  C   UNL     1      18.713   5.119  19.333  0.00  0.00    +0.008 A 
ATOM     18  C   UNL     1      18.705   6.772  21.096  0.00  0.00    +0.008 A 
ATOM     19  C   UNL     1      17.474   5.583  18.892  0.00  0.00    +0.023 A 
ATOM     20  C   UNL     1      17.466   7.235  20.655  0.00  0.00    +0.023 A 
ATOM     21  C   UNL     1      16.850   6.641  19.553  0.00  0.00    +0.034 A 
ENDROOT
BRANCH  21   7
ATOM      5  O   UNL     1      14.191   6.679  20.938  0.00  0.00    -0.270 OA
ATOM      7  N   UNL     1      15.611   7.105  19.112  0.00  0.00    -0.281 N 
ATOM     24  C   UNL     1      14.391   7.099  19.803  0.00  0.00    +0.250 C 
ATOM     31  H   UNL     1      15.634   7.525  18.188  0.00  0.00    +0.155 HD
BRANCH  24  25
ATOM      8  N   UNL     1      10.913   8.342  19.064  0.00  0.00    -0.263 NA
ATOM     25  C   UNL     1      13.242   7.694  19.072  0.00  0.00    +0.055 A 
ATOM     26  C   UNL     1      13.381   8.153  17.767  0.00  0.00    +0.016 A 
ATOM     27  C   UNL     1      11.998   7.810  19.671  0.00  0.00    +0.123 A 
ATOM     28  C   UNL     1      12.288   8.705  17.110  0.00  0.00    +0.020 A 
ATOM     29  C   UNL     1      11.087   8.777  17.796  0.00  0.00    +0.111 A 
ENDBRANCH  24  25
ENDBRANCH  21   7
BRANCH  14  10
ATOM     10  C   UNL     1      20.668   5.212  20.912  0.00  0.00    +0.167 C 
BRANCH  10   9
ATOM      1  O   UNL     1      22.955   4.666  22.668  0.00  0.00    -0.369 OA
ATOM      4  O   UNL     1      24.657   6.825  20.326  0.00  0.00    -0.273 OA
ATOM      6  N   UNL     1      22.452   6.910  21.063  0.00  0.00    -0.289 N 
ATOM      9  C   UNL     1      21.375   6.239  21.803  0.00  0.00    +0.135 C 
ATOM     11  C   UNL     1      21.937   5.580  23.058  0.00  0.00    +0.185 C 
ATOM     13  C   UNL     1      23.754   6.414  21.056  0.00  0.00    +0.242 C 
ATOM     15  C   UNL     1      24.053   5.344  22.100  0.00  0.00    +0.255 C 
BRANCH   6  12
ATOM     12  C   UNL     1      22.078   8.011  20.185  0.00  0.00    +0.136 C 
BRANCH  12  16
ATOM     16  C   UNL     1      21.515   9.182  20.968  0.00  0.00    +0.178 C 
BRANCH  16   3
ATOM      3  O   UNL     1      22.394   9.501  22.038  0.00  0.00    -0.378 OA
BRANCH   3  22
ATOM     22  C   UNL     1      21.682   9.964  23.178  0.00  0.00    +0.156 C 
ATOM     23  C   UNL     1      20.229   9.561  23.050  0.00  0.00    +0.034 C 
ENDBRANCH   3  22
ENDBRANCH  16   3
ENDBRANCH  12  16
ENDBRANCH   6  12
ENDBRANCH  10   9
BRANCH  10   2
ATOM      2  O   UNL     1      21.492   4.915  19.790  0.00  0.00    -0.385 OA
ATOM     30  H   UNL     1      21.826   5.745  19.409  0.00  0.00    +0.210 HD
ENDBRANCH  10   2
ENDBRANCH  14  10
TORSDOF 9
ENDMDL
MODEL 4
REMARK VINA RESULT:      -6.1      2.156      3.463
REMARK  Name = 56774928
REMARK  10 active torsions:
REMARK  status: ('A' for Active; 'I' for Inactive)
REMARK    1  A    between atoms: O_2  and  C_10
REMARK    2  A    between atoms: O_3  and  C_16
REMARK    3  A    between atoms: O_3  and  C_22
REMARK    4  A    between atoms: N_6  and  C_12
REMARK    5  A    between atoms: N_7  and  C_21
REMARK    6  A    between atoms: C_9  and  C_10
REMARK    7  A    between atoms: C_10  and  C_14
REMARK    8  A    between atoms: C_12  and  C_16
REMARK    9  A    between atoms: C_22  and  C_23
REMARK   10  A    between atoms: C_24  and  C_25
REMARK                            x       y       z     vdW  Elec       q    Type
REMARK                         _______ _______ _______ _____ _____    ______ ____
ROOT
ATOM     14  C   UNL     1      15.968   8.786  20.738  0.00  0.00    -0.017 A 
ATOM     17  C   UNL     1      15.936   7.411  20.508  0.00  0.00    +0.008 A 
ATOM     18  C   UNL     1      17.180   9.419  21.015  0.00  0.00    +0.008 A 
ATOM     19  C   UNL     1      17.115   6.667  20.556  0.00  0.00    +0.023 A 
ATOM     20  C   UNL     1      18.360   8.676  21.062  0.00  0.00    +0.023 A 
ATOM     21  C   UNL     1      18.327   7.300  20.832  0.00  0.00    +0.034 A 
ENDROOT
BRANCH  21   7
ATOM      5  O   UNL     1      19.905   6.316  23.183  0.00  0.00    -0.270 OA
ATOM      7  N   UNL     1      19.506   6.557  20.879  0.00  0.00    -0.281 N 
ATOM     24  C   UNL     1      20.208   6.120  22.011  0.00  0.00    +0.250 C 
ATOM     31  H   UNL     1      19.857   6.284  19.965  0.00  0.00    +0.155 HD
BRANCH  24  25
ATOM      8  N   UNL     1      23.282   4.815  20.268  0.00  0.00    -0.263 NA
ATOM     25  C   UNL     1      21.427   5.316  21.735  0.00  0.00    +0.055 A 
ATOM     26  C   UNL     1      21.863   4.345  22.630  0.00  0.00    +0.016 A 
ATOM     27  C   UNL     1      22.165   5.510  20.579  0.00  0.00    +0.123 A 
ATOM     28  C   UNL     1      23.007   3.610  22.346  0.00  0.00    +0.020 A 
ATOM     29  C   UNL     1      23.675   3.880  21.163  0.00  0.00    +0.111 A 
ENDBRANCH  24  25
ENDBRANCH  21   7
BRANCH  14  10
ATOM     10  C   UNL     1      14.694   9.590  20.687  0.00  0.00    +0.167 C 
BRANCH  10   9
ATOM      1  O   UNL     1      14.664  11.753  22.670  0.00  0.00    -0.369 OA
ATOM      4  O   UNL     1      11.180  11.917  21.736  0.00  0.00    -0.273 OA
ATOM      6  N   UNL     1      12.578  10.061  21.866  0.00  0.00    -0.289 N 
ATOM      9  C   UNL     1      13.950   9.564  22.026  0.00  0.00    +0.135 C 
ATOM     11  C   UNL     1      14.685  10.390  23.076  0.00  0.00    +0.185 C 
ATOM     13  C   UNL     1      12.266  11.410  22.022  0.00  0.00    +0.242 C 
ATOM     15  C   UNL     1      13.350  12.263  22.673  0.00  0.00    +0.255 C 
BRANCH   6  12
ATOM     12  C   UNL     1      11.581   9.129  21.356  0.00  0.00    +0.136 C 
BRANCH  12  16
ATOM     16  C   UNL     1      10.846   8.429  22.484  0.00  0.00    +0.178 C 
BRANCH  16   3
ATOM      3  O   UNL     1      10.306   7.204  22.007  0.00  0.00    -0.378 OA
BRANCH   3  22
ATOM     22  C   UNL     1      11.323   6.339  21.521  0.00  0.00    +0.156 C 
ATOM     23  C   UNL     1      10.841   4.907  21.616  0.00  0.00    +0.034 C 
ENDBRANCH   3  22
ENDBRANCH  16   3
ENDBRANCH  12  16
ENDBRANCH   6  12
ENDBRANCH  10   9
BRANCH  10   2
ATOM      2  O   UNL     1      13.846   9.072  19.668  0.00  0.00    -0.385 OA
ATOM     30  H   UNL     1      14.001   8.117  19.576  0.00  0.00    +0.210 HD
ENDBRANCH  10   2
ENDBRANCH  14  10
TORSDOF 9
ENDMDL
MODEL 5
REMARK VINA RESULT:      -5.9     27.333     31.271
REMARK  Name = 56774928
REMARK  10 active torsions:
REMARK  status: ('A' for Active; 'I' for Inactive)
REMARK    1  A    between atoms: O_2  and  C_10
REMARK    2  A    between atoms: O_3  and  C_16
REMARK    3  A    between atoms: O_3  and  C_22
REMARK    4  A    between atoms: N_6  and  C_12
REMARK    5  A    between atoms: N_7  and  C_21
REMARK    6  A    between atoms: C_9  and  C_10
REMARK    7  A    between atoms: C_10  and  C_14
REMARK    8  A    between atoms: C_12  and  C_16
REMARK    9  A    between atoms: C_22  and  C_23
REMARK   10  A    between atoms: C_24  and  C_25
REMARK                            x       y       z     vdW  Elec       q    Type
REMARK                         _______ _______ _______ _____ _____    ______ ____
ROOT
ATOM     14  C   UNL     1      -5.064 -10.426  16.969  0.00  0.00    -0.017 A 
ATOM     17  C   UNL     1      -5.480 -11.129  18.099  0.00  0.00    +0.008 A 
ATOM     18  C   UNL     1      -5.946  -9.558  16.324  0.00  0.00    +0.008 A 
ATOM     19  C   UNL     1      -6.777 -10.966  18.585  0.00  0.00    +0.023 A 
ATOM     20  C   UNL     1      -7.243  -9.394  16.810  0.00  0.00    +0.023 A 
ATOM     21  C   UNL     1      -7.658 -10.098  17.941  0.00  0.00    +0.034 A 
ENDROOT
BRANCH  21   7
ATOM      5  O   UNL     1     -10.204 -11.485  17.178  0.00  0.00    -0.270 OA
ATOM      7  N   UNL     1      -8.955  -9.933  18.427  0.00  0.00    -0.281 N 
ATOM     24  C   UNL     1     -10.117 -10.611  18.034  0.00  0.00    +0.250 C 
ATOM     31  H   UNL     1      -9.029  -9.258  19.183  0.00  0.00    +0.155 HD
BRANCH  24  25
ATOM      8  N   UNL     1     -13.675  -9.559  18.684  0.00  0.00    -0.263 NA
ATOM     25  C   UNL     1     -11.355 -10.232  18.764  0.00  0.00    +0.055 A 
ATOM     26  C   UNL     1     -11.383 -10.190  20.154  0.00  0.00    +0.016 A 
ATOM     27  C   UNL     1     -12.517  -9.910  18.082  0.00  0.00    +0.123 A 
ATOM     28  C   UNL     1     -12.556  -9.833  20.809  0.00  0.00    +0.020 A 
ATOM     29  C   UNL     1     -13.664  -9.529  20.036  0.00  0.00    +0.111 A 
ENDBRANCH  24  25
ENDBRANCH  21   7
BRANCH  14  10
ATOM     10  C   UNL     1      -3.662 -10.602  16.443  0.00  0.00    +0.167 C 
BRANCH  10   9
ATOM      1  O   UNL     1      -1.294 -11.216  14.823  0.00  0.00    -0.369 OA
ATOM      4  O   UNL     1      -3.049 -14.328  14.297  0.00  0.00    -0.273 OA
ATOM      6  N   UNL     1      -3.913 -12.184  14.566  0.00  0.00    -0.289 N 
ATOM      9  C   UNL     1      -3.644 -10.785  14.922  0.00  0.00    +0.135 C 
ATOM     11  C   UNL     1      -2.307 -10.345  14.334  0.00  0.00    +0.185 C 
ATOM     13  C   UNL     1      -2.885 -13.113  14.423  0.00  0.00    +0.242 C 
ATOM     15  C   UNL     1      -1.479 -12.528  14.342  0.00  0.00    +0.255 C 
BRANCH   6  12
ATOM     12  C   UNL     1      -5.304 -12.616  14.546  0.00  0.00    +0.136 C 
BRANCH  12  16
ATOM     16  C   UNL     1      -6.055 -12.021  13.369  0.00  0.00    +0.178 C 
BRANCH  16   3
ATOM      3  O   UNL     1      -5.450 -12.449  12.157  0.00  0.00    -0.378 OA
BRANCH   3  22
ATOM     22  C   UNL     1      -5.029 -11.346  11.366  0.00  0.00    +0.156 C 
ATOM     23  C   UNL     1      -3.575 -11.535  10.989  0.00  0.00    +0.034 C 
ENDBRANCH   3  22
ENDBRANCH  16   3
ENDBRANCH  12  16
ENDBRANCH   6  12
ENDBRANCH  10   9
BRANCH  10   2
ATOM      2  O   UNL     1      -3.062 -11.736  17.060  0.00  0.00    -0.385 OA
ATOM     30  H   UNL     1      -2.764 -11.495  17.954  0.00  0.00    +0.210 HD
ENDBRANCH  10   2
ENDBRANCH  14  10
TORSDOF 9
ENDMDL
MODEL 6
REMARK VINA RESULT:      -5.9     29.119     32.062
REMARK  Name = 56774928
REMARK  10 active torsions:
REMARK  status: ('A' for Active; 'I' for Inactive)
REMARK    1  A    between atoms: O_2  and  C_10
REMARK    2  A    between atoms: O_3  and  C_16
REMARK    3  A    between atoms: O_3  and  C_22
REMARK    4  A    between atoms: N_6  and  C_12
REMARK    5  A    between atoms: N_7  and  C_21
REMARK    6  A    between atoms: C_9  and  C_10
REMARK    7  A    between atoms: C_10  and  C_14
REMARK    8  A    between atoms: C_12  and  C_16
REMARK    9  A    between atoms: C_22  and  C_23
REMARK   10  A    between atoms: C_24  and  C_25
REMARK                            x       y       z     vdW  Elec       q    Type
REMARK                         _______ _______ _______ _____ _____    ______ ____
ROOT
ATOM     14  C   UNL     1     -12.406  -6.568  14.263  0.00  0.00    -0.017 A 
ATOM     17  C   UNL     1     -11.593  -5.858  15.148  0.00  0.00    +0.008 A 
ATOM     18  C   UNL     1     -12.072  -7.874  13.905  0.00  0.00    +0.008 A 
ATOM     19  C   UNL     1     -10.448  -6.454  15.675  0.00  0.00    +0.023 A 
ATOM     20  C   UNL     1     -10.927  -8.471  14.432  0.00  0.00    +0.023 A 
ATOM     21  C   UNL     1     -10.114  -7.761  15.317  0.00  0.00    +0.034 A 
ENDROOT
BRANCH  21   7
ATOM      5  O   UNL     1      -9.710  -9.234  17.897  0.00  0.00    -0.270 OA
ATOM      7  N   UNL     1      -8.970  -8.357  15.845  0.00  0.00    -0.281 N 
ATOM     24  C   UNL     1      -8.833  -9.037  17.062  0.00  0.00    +0.250 C 
ATOM     31  H   UNL     1      -8.160  -8.307  15.233  0.00  0.00    +0.155 HD
BRANCH  24  25
ATOM      8  N   UNL     1      -5.230 -10.018  16.565  0.00  0.00    -0.263 NA
ATOM     25  C   UNL     1      -7.481  -9.591  17.336  0.00  0.00    +0.055 A 
ATOM     26  C   UNL     1      -7.182 -10.182  18.559  0.00  0.00    +0.016 A 
ATOM     27  C   UNL     1      -6.479  -9.535  16.380  0.00  0.00    +0.123 A 
ATOM     28  C   UNL     1      -5.909 -10.690  18.785  0.00  0.00    +0.020 A 
ATOM     29  C   UNL     1      -4.977 -10.585  17.766  0.00  0.00    +0.111 A 
ENDBRANCH  24  25
ENDBRANCH  21   7
BRANCH  14  10
ATOM     10  C   UNL     1     -13.644  -5.924  13.693  0.00  0.00    +0.167 C 
BRANCH  10   9
ATOM      1  O   UNL     1     -16.064  -5.346  12.137  0.00  0.00    -0.369 OA
ATOM      4  O   UNL     1     -13.755  -3.387  10.170  0.00  0.00    -0.273 OA
ATOM      6  N   UNL     1     -13.389  -5.390  11.298  0.00  0.00    -0.289 N 
ATOM      9  C   UNL     1     -13.909  -6.376  12.253  0.00  0.00    +0.135 C 
ATOM     11  C   UNL     1     -15.398  -6.598  12.015  0.00  0.00    +0.185 C 
ATOM     13  C   UNL     1     -14.175  -4.339  10.831  0.00  0.00    +0.242 C 
ATOM     15  C   UNL     1     -15.668  -4.461  11.114  0.00  0.00    +0.255 C 
BRANCH   6  12
ATOM     12  C   UNL     1     -11.965  -5.436  10.992  0.00  0.00    +0.136 C 
BRANCH  12  16
ATOM     16  C   UNL     1     -11.658  -6.475   9.930  0.00  0.00    +0.178 C 
BRANCH  16   3
ATOM      3  O   UNL     1     -11.548  -5.838   8.664  0.00  0.00    -0.378 OA
BRANCH   3  22
ATOM     22  C   UNL     1     -10.543  -4.835   8.669  0.00  0.00    +0.156 C 
ATOM     23  C   UNL     1      -9.194  -5.485   8.443  0.00  0.00    +0.034 C 
ENDBRANCH   3  22
ENDBRANCH  16   3
ENDBRANCH  12  16
ENDBRANCH   6  12
ENDBRANCH  10   9
BRANCH  10   2
ATOM      2  O   UNL     1     -13.499  -4.508  13.723  0.00  0.00    -0.385 OA
ATOM     30  H   UNL     1     -13.348  -4.182  12.820  0.00  0.00    +0.210 HD
ENDBRANCH  10   2
ENDBRANCH  14  10
TORSDOF 9
ENDMDL
MODEL 7
REMARK VINA RESULT:      -5.9     27.618     30.538
REMARK  Name = 56774928
REMARK  10 active torsions:
REMARK  status: ('A' for Active; 'I' for Inactive)
REMARK    1  A    between atoms: O_2  and  C_10
REMARK    2  A    between atoms: O_3  and  C_16
REMARK    3  A    between atoms: O_3  and  C_22
REMARK    4  A    between atoms: N_6  and  C_12
REMARK    5  A    between atoms: N_7  and  C_21
REMARK    6  A    between atoms: C_9  and  C_10
REMARK    7  A    between atoms: C_10  and  C_14
REMARK    8  A    between atoms: C_12  and  C_16
REMARK    9  A    between atoms: C_22  and  C_23
REMARK   10  A    between atoms: C_24  and  C_25
REMARK                            x       y       z     vdW  Elec       q    Type
REMARK                         _______ _______ _______ _____ _____    ______ ____
ROOT
ATOM     14  C   UNL     1      -3.464 -10.594  10.481  0.00  0.00    -0.017 A 
ATOM     17  C   UNL     1      -4.427 -11.447   9.940  0.00  0.00    +0.008 A 
ATOM     18  C   UNL     1      -3.364  -9.278  10.026  0.00  0.00    +0.008 A 
ATOM     19  C   UNL     1      -5.289 -10.985   8.946  0.00  0.00    +0.023 A 
ATOM     20  C   UNL     1      -4.227  -8.817   9.032  0.00  0.00    +0.023 A 
ATOM     21  C   UNL     1      -5.189  -9.670   8.492  0.00  0.00    +0.034 A 
ENDROOT
BRANCH  21   7
ATOM      5  O   UNL     1      -7.698  -8.042   8.706  0.00  0.00    -0.270 OA
ATOM      7  N   UNL     1      -6.052  -9.208   7.498  0.00  0.00    -0.281 N 
ATOM     24  C   UNL     1      -7.218  -8.447   7.652  0.00  0.00    +0.250 C 
ATOM     31  H   UNL     1      -5.753  -9.438   6.555  0.00  0.00    +0.155 HD
BRANCH  24  25
ATOM      8  N   UNL     1      -9.827  -7.083   5.302  0.00  0.00    -0.263 NA
ATOM     25  C   UNL     1      -7.913  -8.082   6.391  0.00  0.00    +0.055 A 
ATOM     26  C   UNL     1      -7.350  -8.369   5.152  0.00  0.00    +0.016 A 
ATOM     27  C   UNL     1      -9.143  -7.444   6.411  0.00  0.00    +0.123 A 
ATOM     28  C   UNL     1      -8.023  -8.014   3.989  0.00  0.00    +0.020 A 
ATOM     29  C   UNL     1      -9.248  -7.379   4.116  0.00  0.00    +0.111 A 
ENDBRANCH  24  25
ENDBRANCH  21   7
BRANCH  14  10
ATOM     10  C   UNL     1      -2.532 -11.092  11.556  0.00  0.00    +0.167 C 
BRANCH  10   9
ATOM      1  O   UNL     1      -1.260 -12.757  13.610  0.00  0.00    -0.369 OA
ATOM      4  O   UNL     1      -2.756 -10.330  15.826  0.00  0.00    -0.273 OA
ATOM      6  N   UNL     1      -3.553 -11.155  13.801  0.00  0.00    -0.289 N 
ATOM      9  C   UNL     1      -3.267 -11.943  12.596  0.00  0.00    +0.135 C 
ATOM     11  C   UNL     1      -2.455 -13.181  12.963  0.00  0.00    +0.185 C 
ATOM     13  C   UNL     1      -2.659 -11.100  14.868  0.00  0.00    +0.242 C 
ATOM     15  C   UNL     1      -1.545 -12.140  14.845  0.00  0.00    +0.255 C 
BRANCH   6  12
ATOM     12  C   UNL     1      -4.720 -10.283  13.772  0.00  0.00    +0.136 C 
BRANCH  12  16
ATOM     16  C   UNL     1      -5.851 -10.838  14.618  0.00  0.00    +0.178 C 
BRANCH  16   3
ATOM      3  O   UNL     1      -5.988 -10.056  15.796  0.00  0.00    -0.378 OA
BRANCH   3  22
ATOM     22  C   UNL     1      -6.417 -10.844  16.898  0.00  0.00    +0.156 C 
ATOM     23  C   UNL     1      -5.455 -10.648  18.051  0.00  0.00    +0.034 C 
ENDBRANCH   3  22
ENDBRANCH  16   3
ENDBRANCH  12  16
ENDBRANCH   6  12
ENDBRANCH  10   9
BRANCH  10   2
ATOM      2  O   UNL     1      -1.919  -9.982  12.204  0.00  0.00    -0.385 OA
ATOM     30  H   UNL     1      -1.019 -10.227  12.477  0.00  0.00    +0.210 HD
ENDBRANCH  10   2
ENDBRANCH  14  10
TORSDOF 9
ENDMDL
MODEL 8
REMARK VINA RESULT:      -5.8     27.926     31.912
REMARK  Name = 56774928
REMARK  10 active torsions:
REMARK  status: ('A' for Active; 'I' for Inactive)
REMARK    1  A    between atoms: O_2  and  C_10
REMARK    2  A    between atoms: O_3  and  C_16
REMARK    3  A    between atoms: O_3  and  C_22
REMARK    4  A    between atoms: N_6  and  C_12
REMARK    5  A    between atoms: N_7  and  C_21
REMARK    6  A    between atoms: C_9  and  C_10
REMARK    7  A    between atoms: C_10  and  C_14
REMARK    8  A    between atoms: C_12  and  C_16
REMARK    9  A    between atoms: C_22  and  C_23
REMARK   10  A    between atoms: C_24  and  C_25
REMARK                            x       y       z     vdW  Elec       q    Type
REMARK                         _______ _______ _______ _____ _____    ______ ____
ROOT
ATOM     14  C   UNL     1      -7.364 -10.232  15.935  0.00  0.00    -0.017 A 
ATOM     17  C   UNL     1      -7.795  -9.150  16.703  0.00  0.00    +0.008 A 
ATOM     18  C   UNL     1      -8.074 -11.432  15.962  0.00  0.00    +0.008 A 
ATOM     19  C   UNL     1      -8.934  -9.268  17.498  0.00  0.00    +0.023 A 
ATOM     20  C   UNL     1      -9.214 -11.550  16.756  0.00  0.00    +0.023 A 
ATOM     21  C   UNL     1      -9.645 -10.468  17.524  0.00  0.00    +0.034 A 
ENDROOT
BRANCH  21   7
ATOM      5  O   UNL     1      -9.929 -10.540  20.508  0.00  0.00    -0.270 OA
ATOM      7  N   UNL     1     -10.785 -10.586  18.319  0.00  0.00    -0.281 N 
ATOM     24  C   UNL     1     -10.864 -10.616  19.717  0.00  0.00    +0.250 C 
ATOM     31  H   UNL     1     -11.652 -10.618  17.791  0.00  0.00    +0.155 HD
BRANCH  24  25
ATOM      8  N   UNL     1     -13.921 -12.065  21.373  0.00  0.00    -0.263 NA
ATOM     25  C   UNL     1     -12.236 -10.722  20.277  0.00  0.00    +0.055 A 
ATOM     26  C   UNL     1     -13.109  -9.639  20.248  0.00  0.00    +0.016 A 
ATOM     27  C   UNL     1     -12.687 -11.902  20.846  0.00  0.00    +0.123 A 
ATOM     28  C   UNL     1     -14.386  -9.768  20.780  0.00  0.00    +0.020 A 
ATOM     29  C   UNL     1     -14.741 -10.991  21.326  0.00  0.00    +0.111 A 
ENDBRANCH  24  25
ENDBRANCH  21   7
BRANCH  14  10
ATOM     10  C   UNL     1      -6.132 -10.105  15.076  0.00  0.00    +0.167 C 
BRANCH  10   9
ATOM      1  O   UNL     1      -4.518 -10.845  12.739  0.00  0.00    -0.369 OA
ATOM      4  O   UNL     1      -1.863 -10.898  15.186  0.00  0.00    -0.273 OA
ATOM      6  N   UNL     1      -4.106 -11.465  15.443  0.00  0.00    -0.289 N 
ATOM      9  C   UNL     1      -5.451 -11.459  14.854  0.00  0.00    +0.135 C 
ATOM     11  C   UNL     1      -5.371 -11.795  13.368  0.00  0.00    +0.185 C 
ATOM     13  C   UNL     1      -2.985 -11.080  14.710  0.00  0.00    +0.242 C 
ATOM     15  C   UNL     1      -3.193 -10.970  13.203  0.00  0.00    +0.255 C 
BRANCH   6  12
ATOM     12  C   UNL     1      -4.001 -11.709  16.875  0.00  0.00    +0.136 C 
BRANCH  12  16
ATOM     16  C   UNL     1      -4.914 -12.838  17.316  0.00  0.00    +0.178 C 
BRANCH  16   3
ATOM      3  O   UNL     1      -5.765 -12.378  18.357  0.00  0.00    -0.378 OA
BRANCH   3  22
ATOM     22  C   UNL     1      -5.311 -11.144  18.896  0.00  0.00    +0.156 C 
ATOM     23  C   UNL     1      -6.370 -10.591  19.826  0.00  0.00    +0.034 C 
ENDBRANCH   3  22
ENDBRANCH  16   3
ENDBRANCH  12  16
ENDBRANCH   6  12
ENDBRANCH  10   9
BRANCH  10   2
ATOM      2  O   UNL     1      -5.212  -9.211  15.694  0.00  0.00    -0.385 OA
ATOM     30  H   UNL     1      -4.732  -9.681  16.397  0.00  0.00    +0.210 HD
ENDBRANCH  10   2
ENDBRANCH  14  10
TORSDOF 9
ENDMDL
MODEL 9
REMARK VINA RESULT:      -5.8     27.936     31.195
REMARK  Name = 56774928
REMARK  10 active torsions:
REMARK  status: ('A' for Active; 'I' for Inactive)
REMARK    1  A    between atoms: O_2  and  C_10
REMARK    2  A    between atoms: O_3  and  C_16
REMARK    3  A    between atoms: O_3  and  C_22
REMARK    4  A    between atoms: N_6  and  C_12
REMARK    5  A    between atoms: N_7  and  C_21
REMARK    6  A    between atoms: C_9  and  C_10
REMARK    7  A    between atoms: C_10  and  C_14
REMARK    8  A    between atoms: C_12  and  C_16
REMARK    9  A    between atoms: C_22  and  C_23
REMARK   10  A    between atoms: C_24  and  C_25
REMARK                            x       y       z     vdW  Elec       q    Type
REMARK                         _______ _______ _______ _____ _____    ______ ____
ROOT
ATOM     14  C   UNL     1      -8.953 -11.253  19.058  0.00  0.00    -0.017 A 
ATOM     17  C   UNL     1      -8.889 -12.085  17.939  0.00  0.00    +0.008 A 
ATOM     18  C   UNL     1      -7.984 -10.268  19.250  0.00  0.00    +0.008 A 
ATOM     19  C   UNL     1      -7.857 -11.932  17.014  0.00  0.00    +0.023 A 
ATOM     20  C   UNL     1      -6.952 -10.115  18.325  0.00  0.00    +0.023 A 
ATOM     21  C   UNL     1      -6.888 -10.947  17.207  0.00  0.00    +0.034 A 
ENDROOT
BRANCH  21   7
ATOM      5  O   UNL     1      -3.948 -11.465  17.480  0.00  0.00    -0.270 OA
ATOM      7  N   UNL     1      -5.856 -10.794  16.281  0.00  0.00    -0.281 N 
ATOM     24  C   UNL     1      -4.490 -11.051  16.460  0.00  0.00    +0.250 C 
ATOM     31  H   UNL     1      -6.168 -10.490  15.363  0.00  0.00    +0.155 HD
BRANCH  24  25
ATOM      8  N   UNL     1      -3.454 -10.600  12.867  0.00  0.00    -0.263 NA
ATOM     25  C   UNL     1      -3.635 -10.816  15.268  0.00  0.00    +0.055 A 
ATOM     26  C   UNL     1      -2.268 -10.594  15.398  0.00  0.00    +0.016 A 
ATOM     27  C   UNL     1      -4.174 -10.809  13.992  0.00  0.00    +0.123 A 
ATOM     28  C   UNL     1      -1.494 -10.376  14.265  0.00  0.00    +0.020 A 
ATOM     29  C   UNL     1      -2.129 -10.389  13.033  0.00  0.00    +0.111 A 
ENDBRANCH  24  25
ENDBRANCH  21   7
BRANCH  14  10
ATOM     10  C   UNL     1     -10.069 -11.417  20.058  0.00  0.00    +0.167 C 
BRANCH  10   9
ATOM      1  O   UNL     1     -12.400 -12.634  21.361  0.00  0.00    -0.369 OA
ATOM      4  O   UNL     1     -13.867  -9.406  20.680  0.00  0.00    -0.273 OA
ATOM      6  N   UNL     1     -12.312 -10.603  19.430  0.00  0.00    -0.289 N 
ATOM      9  C   UNL     1     -11.400 -11.752  19.376  0.00  0.00    +0.135 C 
ATOM     11  C   UNL     1     -12.054 -12.968  20.022  0.00  0.00    +0.185 C 
ATOM     13  C   UNL     1     -13.203 -10.425  20.486  0.00  0.00    +0.242 C 
ATOM     15  C   UNL     1     -13.395 -11.636  21.393  0.00  0.00    +0.255 C 
BRANCH   6  12
ATOM     12  C   UNL     1     -12.129  -9.554  18.436  0.00  0.00    +0.136 C 
BRANCH  12  16
ATOM     16  C   UNL     1     -11.929 -10.131  17.047  0.00  0.00    +0.178 C 
BRANCH  16   3
ATOM      3  O   UNL     1     -10.777  -9.547  16.454  0.00  0.00    -0.378 OA
BRANCH   3  22
ATOM     22  C   UNL     1     -10.378  -8.369  17.140  0.00  0.00    +0.156 C 
ATOM     23  C   UNL     1      -9.962  -7.324  16.126  0.00  0.00    +0.034 C 
ENDBRANCH   3  22
ENDBRANCH  16   3
ENDBRANCH  12  16
ENDBRANCH   6  12
ENDBRANCH  10   9
BRANCH  10   2
ATOM      2  O   UNL     1     -10.214 -10.216  20.809  0.00  0.00    -0.385 OA
ATOM     30  H   UNL     1      -9.354  -9.767  20.865  0.00  0.00    +0.210 HD
ENDBRANCH  10   2
ENDBRANCH  14  10
TORSDOF 9
ENDMDL
MODEL 10
REMARK VINA RESULT:      -5.7     27.681     31.559
REMARK  Name = 56774928
REMARK  10 active torsions:
REMARK  status: ('A' for Active; 'I' for Inactive)
REMARK    1  A    between atoms: O_2  and  C_10
REMARK    2  A    between atoms: O_3  and  C_16
REMARK    3  A    between atoms: O_3  and  C_22
REMARK    4  A    between atoms: N_6  and  C_12
REMARK    5  A    between atoms: N_7  and  C_21
REMARK    6  A    between atoms: C_9  and  C_10
REMARK    7  A    between atoms: C_10  and  C_14
REMARK    8  A    between atoms: C_12  and  C_16
REMARK    9  A    between atoms: C_22  and  C_23
REMARK   10  A    between atoms: C_24  and  C_25
REMARK                            x       y       z     vdW  Elec       q    Type
REMARK                         _______ _______ _______ _____ _____    ______ ____
ROOT
ATOM     14  C   UNL     1      -5.091 -10.566  16.958  0.00  0.00    -0.017 A 
ATOM     17  C   UNL     1      -5.280 -11.294  18.133  0.00  0.00    +0.008 A 
ATOM     18  C   UNL     1      -6.142  -9.820  16.423  0.00  0.00    +0.008 A 
ATOM     19  C   UNL     1      -6.518 -11.276  18.774  0.00  0.00    +0.023 A 
ATOM     20  C   UNL     1      -7.380  -9.801  17.065  0.00  0.00    +0.023 A 
ATOM     21  C   UNL     1      -7.569 -10.529  18.240  0.00  0.00    +0.034 A 
ENDROOT
BRANCH  21   7
ATOM      5  O   UNL     1      -9.549 -12.734  18.695  0.00  0.00    -0.270 OA
ATOM      7  N   UNL     1      -8.807 -10.510  18.881  0.00  0.00    -0.281 N 
ATOM     24  C   UNL     1      -9.699 -11.575  19.068  0.00  0.00    +0.250 C 
ATOM     31  H   UNL     1      -9.049  -9.609  19.283  0.00  0.00    +0.155 HD
BRANCH  24  25
ATOM      8  N   UNL     1     -12.842 -12.010  21.098  0.00  0.00    -0.263 NA
ATOM     25  C   UNL     1     -10.936 -11.245  19.822  0.00  0.00    +0.055 A 
ATOM     26  C   UNL     1     -11.355  -9.928  19.973  0.00  0.00    +0.016 A 
ATOM     27  C   UNL     1     -11.708 -12.241  20.398  0.00  0.00    +0.123 A 
ATOM     28  C   UNL     1     -12.516  -9.651  20.685  0.00  0.00    +0.020 A 
ATOM     29  C   UNL     1     -13.218 -10.717  21.223  0.00  0.00    +0.111 A 
ENDBRANCH  24  25
ENDBRANCH  21   7
BRANCH  14  10
ATOM     10  C   UNL     1      -3.753 -10.585  16.264  0.00  0.00    +0.167 C 
BRANCH  10   9
ATOM      1  O   UNL     1      -1.518 -11.041  14.417  0.00  0.00    -0.369 OA
ATOM      4  O   UNL     1      -2.710 -14.446  14.571  0.00  0.00    -0.273 OA
ATOM      6  N   UNL     1      -3.922 -12.462  14.671  0.00  0.00    -0.289 N 
ATOM      9  C   UNL     1      -3.879 -11.000  14.794  0.00  0.00    +0.135 C 
ATOM     11  C   UNL     1      -2.727 -10.440  13.967  0.00  0.00    +0.185 C 
ATOM     13  C   UNL     1      -2.762 -13.217  14.508  0.00  0.00    +0.242 C 
ATOM     15  C   UNL     1      -1.510 -12.425  14.148  0.00  0.00    +0.255 C 
BRANCH   6  12
ATOM     12  C   UNL     1      -5.201 -13.119  14.909  0.00  0.00    +0.136 C 
BRANCH  12  16
ATOM     16  C   UNL     1      -6.281 -12.585  13.987  0.00  0.00    +0.178 C 
BRANCH  16   3
ATOM      3  O   UNL     1      -7.475 -13.333  14.175  0.00  0.00    -0.378 OA
BRANCH   3  22
ATOM     22  C   UNL     1      -8.094 -13.026  15.417  0.00  0.00    +0.156 C 
ATOM     23  C   UNL     1      -9.359 -12.237  15.156  0.00  0.00    +0.034 C 
ENDBRANCH   3  22
ENDBRANCH  16   3
ENDBRANCH  12  16
ENDBRANCH   6  12
ENDBRANCH  10   9
BRANCH  10   2
ATOM      2  O   UNL     1      -2.883 -11.492  16.935  0.00  0.00    -0.385 OA
ATOM     30  H   UNL     1      -2.588 -11.093  17.771  0.00  0.00    +0.210 HD
ENDBRANCH  10   2
ENDBRANCH  14  10
TORSDOF 9
ENDMDL
