MODEL 1
REMARK VINA RESULT:      -7.2      0.000      0.000
REMARK  Name = 44716358
REMARK  13 active torsions:
REMARK  status: ('A' for Active; 'I' for Inactive)
REMARK    1  A    between atoms: O_1  and  C_27
REMARK    2  A    between atoms: O_1  and  C_33
REMARK    3  A    between atoms: O_2  and  C_31
REMARK    4  A    between atoms: O_2  and  C_34
REMARK    5  A    between atoms: O_3  and  C_32
REMARK    6  A    between atoms: O_3  and  C_35
REMARK    7  A    between atoms: N_5  and  C_20
REMARK    8  A    between atoms: N_6  and  C_15
REMARK    9  A    between atoms: N_6  and  C_19
REMARK   10  A    between atoms: C_9  and  C_16
REMARK   11  A    between atoms: C_10  and  C_15
REMARK   12  A    between atoms: C_18  and  C_21
REMARK   13  A    between atoms: C_19  and  C_22
REMARK                            x       y       z     vdW  Elec       q    Type
REMARK                         _______ _______ _______ _____ _____    ______ ____
ROOT
ATOM      4  N   UNL     1      -6.022 -10.440  18.411  0.00  0.00    -0.298 NA
ATOM      8  C   UNL     1      -4.981 -12.423  17.081  0.00  0.00    +0.002 C 
ATOM      9  C   UNL     1      -4.266 -11.091  16.720  0.00  0.00    +0.055 C 
ATOM     10  C   UNL     1      -7.095 -11.233  17.757  0.00  0.00    +0.071 C 
ATOM     11  C   UNL     1      -6.492 -12.283  16.800  0.00  0.00    +0.024 C 
ATOM     12  C   UNL     1      -4.819 -12.617  18.604  0.00  0.00    +0.019 C 
ATOM     13  C   UNL     1      -5.066  -9.939  17.391  0.00  0.00    +0.094 C 
ATOM     14  C   UNL     1      -5.286 -11.343  19.329  0.00  0.00    +0.085 C 
ENDROOT
BRANCH   9  16
ATOM      5  N   UNL     1      -2.701 -10.724  14.756  0.00  0.00    -0.270 N 
ATOM      7  N   UNL     1      -2.652 -10.468  13.438  0.00  0.00    -0.171 NA
ATOM     16  C   UNL     1      -3.968 -10.810  15.254  0.00  0.00    +0.044 A 
ATOM     17  C   UNL     1      -4.806 -10.596  14.188  0.00  0.00    +0.053 A 
ATOM     18  C   UNL     1      -3.941 -10.391  13.097  0.00  0.00    +0.093 A 
ATOM     20  C   UNL     1      -1.467 -10.875  15.492  0.00  0.00    +0.172 C 
BRANCH  18  21
ATOM     21  C   UNL     1      -4.322 -10.122  11.734  0.00  0.00    +0.006 A 
ATOM     23  C   UNL     1      -5.661 -10.217  11.353  0.00  0.00    +0.059 A 
ATOM     24  C   UNL     1      -3.353  -9.766  10.796  0.00  0.00    +0.014 A 
ATOM     27  C   UNL     1      -6.030  -9.957  10.032  0.00  0.00    +0.162 A 
ATOM     28  C   UNL     1      -3.722  -9.507   9.475  0.00  0.00    +0.050 A 
ATOM     31  C   UNL     1      -5.061  -9.602   9.095  0.00  0.00    +0.162 A 
BRANCH  27   1
ATOM      1  O   UNL     1      -7.340 -10.053   9.672  0.00  0.00    -0.491 OA
ATOM     33  C   UNL     1      -8.165  -8.915   9.918  0.00  0.00    +0.277 C 
ENDBRANCH  27   1
BRANCH  31   2
ATOM      2  O   UNL     1      -5.409  -9.346   7.802  0.00  0.00    -0.491 OA
ATOM     34  C   UNL     1      -5.393 -10.449   6.897  0.00  0.00    +0.277 C 
ENDBRANCH  31   2
ENDBRANCH  18  21
ENDBRANCH   9  16
BRANCH  10  15
ATOM     15  C   UNL     1      -8.127 -10.348  17.055  0.00  0.00    +0.100 C 
BRANCH  15   6
ATOM      6  N   UNL     1      -8.674  -9.362  17.974  0.00  0.00    -0.311 NA
ATOM     36  H   UNL     1      -8.500  -8.429  17.597  0.00  0.00    +0.122 HD
BRANCH   6  19
ATOM     19  C   UNL     1     -10.109  -9.547  18.146  0.00  0.00    +0.116 C 
BRANCH  19  22
ATOM     22  C   UNL     1     -10.903  -8.556  17.335  0.00  0.00    -0.033 A 
ATOM     25  C   UNL     1     -12.183  -8.885  16.892  0.00  0.00    +0.008 A 
ATOM     26  C   UNL     1     -10.356  -7.311  17.026  0.00  0.00    +0.008 A 
ATOM     29  C   UNL     1     -12.918  -7.969  16.140  0.00  0.00    +0.046 A 
ATOM     30  C   UNL     1     -11.091  -6.394  16.274  0.00  0.00    +0.046 A 
ATOM     32  C   UNL     1     -12.372  -6.723  15.832  0.00  0.00    +0.120 A 
BRANCH  32   3
ATOM      3  O   UNL     1     -13.089  -5.829  15.097  0.00  0.00    -0.495 OA
ATOM     35  C   UNL     1     -12.461  -5.291  13.934  0.00  0.00    +0.277 C 
ENDBRANCH  32   3
ENDBRANCH  19  22
ENDBRANCH   6  19
ENDBRANCH  15   6
ENDBRANCH  10  15
TORSDOF 9
ENDMDL
MODEL 2
REMARK VINA RESULT:      -7.1      3.557      7.784
REMARK  Name = 44716358
REMARK  13 active torsions:
REMARK  status: ('A' for Active; 'I' for Inactive)
REMARK    1  A    between atoms: O_1  and  C_27
REMARK    2  A    between atoms: O_1  and  C_33
REMARK    3  A    between atoms: O_2  and  C_31
REMARK    4  A    between atoms: O_2  and  C_34
REMARK    5  A    between atoms: O_3  and  C_32
REMARK    6  A    between atoms: O_3  and  C_35
REMARK    7  A    between atoms: N_5  and  C_20
REMARK    8  A    between atoms: N_6  and  C_15
REMARK    9  A    between atoms: N_6  and  C_19
REMARK   10  A    between atoms: C_9  and  C_16
REMARK   11  A    between atoms: C_10  and  C_15
REMARK   12  A    between atoms: C_18  and  C_21
REMARK   13  A    between atoms: C_19  and  C_22
REMARK                            x       y       z     vdW  Elec       q    Type
REMARK                         _______ _______ _______ _____ _____    ______ ____
ROOT
ATOM      4  N   UNL     1      -5.913 -10.436   9.295  0.00  0.00    -0.298 NA
ATOM      8  C   UNL     1      -4.348  -8.845  10.638  0.00  0.00    +0.002 C 
ATOM      9  C   UNL     1      -4.332 -10.271  11.255  0.00  0.00    +0.055 C 
ATOM     10  C   UNL     1      -6.634  -9.182   9.638  0.00  0.00    +0.071 C 
ATOM     11  C   UNL     1      -5.798  -8.318  10.606  0.00  0.00    +0.024 C 
ATOM     12  C   UNL     1      -3.884  -8.989   9.172  0.00  0.00    +0.019 C 
ATOM     13  C   UNL     1      -5.432 -11.100  10.533  0.00  0.00    +0.094 C 
ATOM     14  C   UNL     1      -4.731 -10.070   8.478  0.00  0.00    +0.085 C 
ENDROOT
BRANCH   9  16
ATOM      5  N   UNL     1      -3.314 -10.558  13.562  0.00  0.00    -0.270 N 
ATOM      7  N   UNL     1      -3.598 -10.653  14.872  0.00  0.00    -0.171 NA
ATOM     16  C   UNL     1      -4.413 -10.400  12.770  0.00  0.00    +0.044 A 
ATOM     17  C   UNL     1      -5.491 -10.390  13.620  0.00  0.00    +0.053 A 
ATOM     18  C   UNL     1      -4.930 -10.550  14.901  0.00  0.00    +0.093 A 
ATOM     20  C   UNL     1      -1.937 -10.630  13.132  0.00  0.00    +0.172 C 
BRANCH  18  21
ATOM     21  C   UNL     1      -5.641 -10.608  16.152  0.00  0.00    +0.006 A 
ATOM     23  C   UNL     1      -5.026 -11.150  17.280  0.00  0.00    +0.059 A 
ATOM     24  C   UNL     1      -6.946 -10.122  16.235  0.00  0.00    +0.014 A 
ATOM     27  C   UNL     1      -5.716 -11.206  18.492  0.00  0.00    +0.162 A 
ATOM     28  C   UNL     1      -7.636 -10.179  17.446  0.00  0.00    +0.050 A 
ATOM     31  C   UNL     1      -7.020 -10.721  18.574  0.00  0.00    +0.162 A 
BRANCH  27   1
ATOM      1  O   UNL     1      -5.104 -11.737  19.586  0.00  0.00    -0.491 OA
ATOM     33  C   UNL     1      -3.733 -12.105  19.449  0.00  0.00    +0.277 C 
ENDBRANCH  27   1
BRANCH  31   2
ATOM      2  O   UNL     1      -7.704 -10.770  19.752  0.00  0.00    -0.491 OA
ATOM     34  C   UNL     1      -9.026 -11.304  19.710  0.00  0.00    +0.277 C 
ENDBRANCH  31   2
ENDBRANCH  18  21
ENDBRANCH   9  16
BRANCH  10  15
ATOM     15  C   UNL     1      -8.039  -9.449  10.182  0.00  0.00    +0.100 C 
BRANCH  15   6
ATOM      6  N   UNL     1      -9.038  -9.281   9.138  0.00  0.00    -0.311 NA
ATOM     36  H   UNL     1      -9.958  -9.200   9.573  0.00  0.00    +0.122 HD
BRANCH   6  19
ATOM     19  C   UNL     1      -8.776  -8.082   8.351  0.00  0.00    +0.116 C 
BRANCH  19  22
ATOM     22  C   UNL     1      -9.653  -6.933   8.774  0.00  0.00    -0.033 A 
ATOM     25  C   UNL     1     -10.856  -7.180   9.435  0.00  0.00    +0.008 A 
ATOM     26  C   UNL     1      -9.262  -5.622   8.503  0.00  0.00    +0.008 A 
ATOM     29  C   UNL     1     -11.668  -6.115   9.826  0.00  0.00    +0.046 A 
ATOM     30  C   UNL     1     -10.074  -4.557   8.893  0.00  0.00    +0.046 A 
ATOM     32  C   UNL     1     -11.277  -4.804   9.555  0.00  0.00    +0.120 A 
BRANCH  32   3
ATOM      3  O   UNL     1     -12.071  -3.766   9.936  0.00  0.00    -0.495 OA
ATOM     35  C   UNL     1     -12.103  -3.449  11.327  0.00  0.00    +0.277 C 
ENDBRANCH  32   3
ENDBRANCH  19  22
ENDBRANCH   6  19
ENDBRANCH  15   6
ENDBRANCH  10  15
TORSDOF 9
ENDMDL
MODEL 3
REMARK VINA RESULT:      -7.0      3.136      3.802
REMARK  Name = 44716358
REMARK  13 active torsions:
REMARK  status: ('A' for Active; 'I' for Inactive)
REMARK    1  A    between atoms: O_1  and  C_27
REMARK    2  A    between atoms: O_1  and  C_33
REMARK    3  A    between atoms: O_2  and  C_31
REMARK    4  A    between atoms: O_2  and  C_34
REMARK    5  A    between atoms: O_3  and  C_32
REMARK    6  A    between atoms: O_3  and  C_35
REMARK    7  A    between atoms: N_5  and  C_20
REMARK    8  A    between atoms: N_6  and  C_15
REMARK    9  A    between atoms: N_6  and  C_19
REMARK   10  A    between atoms: C_9  and  C_16
REMARK   11  A    between atoms: C_10  and  C_15
REMARK   12  A    between atoms: C_18  and  C_21
REMARK   13  A    between atoms: C_19  and  C_22
REMARK                            x       y       z     vdW  Elec       q    Type
REMARK                         _______ _______ _______ _____ _____    ______ ____
ROOT
ATOM      4  N   UNL     1      -6.502 -10.828  18.036  0.00  0.00    -0.298 NA
ATOM      8  C   UNL     1      -4.261 -12.059  17.543  0.00  0.00    +0.002 C 
ATOM      9  C   UNL     1      -4.321 -10.711  16.774  0.00  0.00    +0.055 C 
ATOM     10  C   UNL     1      -6.771 -12.237  17.650  0.00  0.00    +0.071 C 
ATOM     11  C   UNL     1      -5.479 -12.923  17.155  0.00  0.00    +0.024 C 
ATOM     12  C   UNL     1      -4.402 -11.722  19.044  0.00  0.00    +0.019 C 
ATOM     13  C   UNL     1      -5.755 -10.137  16.955  0.00  0.00    +0.094 C 
ATOM     14  C   UNL     1      -5.649 -10.844  19.249  0.00  0.00    +0.085 C 
ENDROOT
BRANCH   9  16
ATOM      5  N   UNL     1      -2.564 -10.579  14.947  0.00  0.00    -0.270 N 
ATOM      7  N   UNL     1      -2.376 -10.582  13.616  0.00  0.00    -0.171 NA
ATOM     16  C   UNL     1      -3.871 -10.692  15.320  0.00  0.00    +0.044 A 
ATOM     17  C   UNL     1      -4.588 -10.775  14.152  0.00  0.00    +0.053 A 
ATOM     18  C   UNL     1      -3.617 -10.702  13.136  0.00  0.00    +0.093 A 
ATOM     20  C   UNL     1      -1.420 -10.459  15.820  0.00  0.00    +0.172 C 
BRANCH  18  21
ATOM     21  C   UNL     1      -3.851 -10.743  11.716  0.00  0.00    +0.006 A 
ATOM     23  C   UNL     1      -4.235 -11.938  11.106  0.00  0.00    +0.059 A 
ATOM     24  C   UNL     1      -3.693  -9.589  10.949  0.00  0.00    +0.014 A 
ATOM     27  C   UNL     1      -4.461 -11.978   9.730  0.00  0.00    +0.162 A 
ATOM     28  C   UNL     1      -3.918  -9.629   9.573  0.00  0.00    +0.050 A 
ATOM     31  C   UNL     1      -4.303 -10.824   8.964  0.00  0.00    +0.162 A 
BRANCH  27   1
ATOM      1  O   UNL     1      -4.836 -13.150   9.147  0.00  0.00    -0.491 OA
ATOM     33  C   UNL     1      -5.487 -14.109   9.978  0.00  0.00    +0.277 C 
ENDBRANCH  27   1
BRANCH  31   2
ATOM      2  O   UNL     1      -4.520 -10.850   7.619  0.00  0.00    -0.491 OA
ATOM     34  C   UNL     1      -5.597 -10.058   7.122  0.00  0.00    +0.277 C 
ENDBRANCH  31   2
ENDBRANCH  18  21
ENDBRANCH   9  16
BRANCH  10  15
ATOM     15  C   UNL     1      -7.905 -12.356  16.629  0.00  0.00    +0.100 C 
BRANCH  15   6
ATOM      6  N   UNL     1      -7.383 -12.684  15.312  0.00  0.00    -0.311 NA
ATOM     36  H   UNL     1      -7.006 -13.633  15.335  0.00  0.00    +0.122 HD
BRANCH   6  19
ATOM     19  C   UNL     1      -8.431 -12.613  14.302  0.00  0.00    +0.116 C 
BRANCH  19  22
ATOM     22  C   UNL     1      -8.112 -11.598  13.235  0.00  0.00    -0.033 A 
ATOM     25  C   UNL     1      -8.037 -11.992  11.899  0.00  0.00    +0.008 A 
ATOM     26  C   UNL     1      -7.891 -10.266  13.584  0.00  0.00    +0.008 A 
ATOM     29  C   UNL     1      -7.741 -11.052  10.911  0.00  0.00    +0.046 A 
ATOM     30  C   UNL     1      -7.595  -9.326  12.596  0.00  0.00    +0.046 A 
ATOM     32  C   UNL     1      -7.520  -9.720  11.260  0.00  0.00    +0.120 A 
BRANCH  32   3
ATOM      3  O   UNL     1      -7.231  -8.804  10.296  0.00  0.00    -0.495 OA
ATOM     35  C   UNL     1      -8.248  -8.531   9.332  0.00  0.00    +0.277 C 
ENDBRANCH  32   3
ENDBRANCH  19  22
ENDBRANCH   6  19
ENDBRANCH  15   6
ENDBRANCH  10  15
TORSDOF 9
ENDMDL
MODEL 4
REMARK VINA RESULT:      -6.8      3.338      4.732
REMARK  Name = 44716358
REMARK  13 active torsions:
REMARK  status: ('A' for Active; 'I' for Inactive)
REMARK    1  A    between atoms: O_1  and  C_27
REMARK    2  A    between atoms: O_1  and  C_33
REMARK    3  A    between atoms: O_2  and  C_31
REMARK    4  A    between atoms: O_2  and  C_34
REMARK    5  A    between atoms: O_3  and  C_32
REMARK    6  A    between atoms: O_3  and  C_35
REMARK    7  A    between atoms: N_5  and  C_20
REMARK    8  A    between atoms: N_6  and  C_15
REMARK    9  A    between atoms: N_6  and  C_19
REMARK   10  A    between atoms: C_9  and  C_16
REMARK   11  A    between atoms: C_10  and  C_15
REMARK   12  A    between atoms: C_18  and  C_21
REMARK   13  A    between atoms: C_19  and  C_22
REMARK                            x       y       z     vdW  Elec       q    Type
REMARK                         _______ _______ _______ _____ _____    ______ ____
ROOT
ATOM      4  N   UNL     1      -6.601 -10.549  18.111  0.00  0.00    -0.298 NA
ATOM      8  C   UNL     1      -4.526 -12.027  17.574  0.00  0.00    +0.002 C 
ATOM      9  C   UNL     1      -4.428 -10.664  16.835  0.00  0.00    +0.055 C 
ATOM     10  C   UNL     1      -7.038 -11.907  17.695  0.00  0.00    +0.071 C 
ATOM     11  C   UNL     1      -5.840 -12.731  17.176  0.00  0.00    +0.024 C 
ATOM     12  C   UNL     1      -4.619 -11.710  19.082  0.00  0.00    +0.019 C 
ATOM     13  C   UNL     1      -5.783  -9.928  17.040  0.00  0.00    +0.094 C 
ATOM     14  C   UNL     1      -5.751 -10.695  19.317  0.00  0.00    +0.085 C 
ENDROOT
BRANCH   9  16
ATOM      5  N   UNL     1      -2.677 -10.654  14.998  0.00  0.00    -0.270 N 
ATOM      7  N   UNL     1      -2.498 -10.658  13.667  0.00  0.00    -0.171 NA
ATOM     16  C   UNL     1      -3.986 -10.666  15.378  0.00  0.00    +0.044 A 
ATOM     17  C   UNL     1      -4.715 -10.677  14.214  0.00  0.00    +0.053 A 
ATOM     18  C   UNL     1      -3.747 -10.671  13.193  0.00  0.00    +0.093 A 
ATOM     20  C   UNL     1      -1.522 -10.638  15.865  0.00  0.00    +0.172 C 
BRANCH  18  21
ATOM     21  C   UNL     1      -3.991 -10.678  11.774  0.00  0.00    +0.006 A 
ATOM     23  C   UNL     1      -4.657  -9.607  11.176  0.00  0.00    +0.059 A 
ATOM     24  C   UNL     1      -3.564 -11.754  10.997  0.00  0.00    +0.014 A 
ATOM     27  C   UNL     1      -4.895  -9.614   9.801  0.00  0.00    +0.162 A 
ATOM     28  C   UNL     1      -3.803 -11.761   9.622  0.00  0.00    +0.050 A 
ATOM     31  C   UNL     1      -4.468 -10.690   9.026  0.00  0.00    +0.162 A 
BRANCH  27   1
ATOM      1  O   UNL     1      -5.545  -8.563   9.229  0.00  0.00    -0.491 OA
ATOM     33  C   UNL     1      -6.948  -8.460   9.468  0.00  0.00    +0.277 C 
ENDBRANCH  27   1
BRANCH  31   2
ATOM      2  O   UNL     1      -4.695 -10.708   7.682  0.00  0.00    -0.491 OA
ATOM     34  C   UNL     1      -4.479 -11.946   7.005  0.00  0.00    +0.277 C 
ENDBRANCH  31   2
ENDBRANCH  18  21
ENDBRANCH   9  16
BRANCH  10  15
ATOM     15  C   UNL     1      -8.184 -11.866  16.681  0.00  0.00    +0.100 C 
BRANCH  15   6
ATOM      6  N   UNL     1      -7.758 -12.402  15.399  0.00  0.00    -0.311 NA
ATOM     36  H   UNL     1      -8.158 -13.334  15.283  0.00  0.00    +0.122 HD
BRANCH   6  19
ATOM     19  C   UNL     1      -8.204 -11.552  14.302  0.00  0.00    +0.116 C 
BRANCH  19  22
ATOM     22  C   UNL     1      -7.796 -12.107  12.962  0.00  0.00    -0.033 A 
ATOM     25  C   UNL     1      -7.077 -13.299  12.891  0.00  0.00    +0.008 A 
ATOM     26  C   UNL     1      -8.136 -11.427  11.793  0.00  0.00    +0.008 A 
ATOM     29  C   UNL     1      -6.698 -13.812  11.651  0.00  0.00    +0.046 A 
ATOM     30  C   UNL     1      -7.758 -11.939  10.552  0.00  0.00    +0.046 A 
ATOM     32  C   UNL     1      -7.038 -13.132  10.482  0.00  0.00    +0.120 A 
BRANCH  32   3
ATOM      3  O   UNL     1      -6.668 -13.633   9.271  0.00  0.00    -0.495 OA
ATOM     35  C   UNL     1      -5.903 -14.838   9.273  0.00  0.00    +0.277 C 
ENDBRANCH  32   3
ENDBRANCH  19  22
ENDBRANCH   6  19
ENDBRANCH  15   6
ENDBRANCH  10  15
TORSDOF 9
ENDMDL
MODEL 5
REMARK VINA RESULT:      -6.8     18.456     22.027
REMARK  Name = 44716358
REMARK  13 active torsions:
REMARK  status: ('A' for Active; 'I' for Inactive)
REMARK    1  A    between atoms: O_1  and  C_27
REMARK    2  A    between atoms: O_1  and  C_33
REMARK    3  A    between atoms: O_2  and  C_31
REMARK    4  A    between atoms: O_2  and  C_34
REMARK    5  A    between atoms: O_3  and  C_32
REMARK    6  A    between atoms: O_3  and  C_35
REMARK    7  A    between atoms: N_5  and  C_20
REMARK    8  A    between atoms: N_6  and  C_15
REMARK    9  A    between atoms: N_6  and  C_19
REMARK   10  A    between atoms: C_9  and  C_16
REMARK   11  A    between atoms: C_10  and  C_15
REMARK   12  A    between atoms: C_18  and  C_21
REMARK   13  A    between atoms: C_19  and  C_22
REMARK                            x       y       z     vdW  Elec       q    Type
REMARK                         _______ _______ _______ _____ _____    ______ ____
ROOT
ATOM      4  N   UNL     1     -16.771   5.546  22.768  0.00  0.00    -0.298 NA
ATOM      8  C   UNL     1     -17.744   3.580  24.173  0.00  0.00    +0.002 C 
ATOM      9  C   UNL     1     -17.756   4.897  24.998  0.00  0.00    +0.055 C 
ATOM     10  C   UNL     1     -15.850   4.380  22.718  0.00  0.00    +0.071 C 
ATOM     11  C   UNL     1     -16.303   3.284  23.706  0.00  0.00    +0.024 C 
ATOM     12  C   UNL     1     -18.587   3.841  22.906  0.00  0.00    +0.019 C 
ATOM     13  C   UNL     1     -16.982   5.966  24.176  0.00  0.00    +0.094 C 
ATOM     14  C   UNL     1     -18.077   5.117  22.212  0.00  0.00    +0.085 C 
ENDROOT
BRANCH   9  16
ATOM      5  N   UNL     1     -17.625   5.791  27.370  0.00  0.00    -0.270 N 
ATOM      7  N   UNL     1     -17.121   5.558  28.593  0.00  0.00    -0.171 NA
ATOM     16  C   UNL     1     -17.298   4.840  26.448  0.00  0.00    +0.044 A 
ATOM     17  C   UNL     1     -16.528   3.920  27.116  0.00  0.00    +0.053 A 
ATOM     18  C   UNL     1     -16.452   4.413  28.432  0.00  0.00    +0.093 A 
ATOM     20  C   UNL     1     -18.426   6.973  27.150  0.00  0.00    +0.172 C 
BRANCH  18  21
ATOM     21  C   UNL     1     -15.751   3.813  29.538  0.00  0.00    +0.006 A 
ATOM     23  C   UNL     1     -14.940   2.697  29.327  0.00  0.00    +0.059 A 
ATOM     24  C   UNL     1     -15.885   4.345  30.820  0.00  0.00    +0.014 A 
ATOM     27  C   UNL     1     -14.262   2.116  30.399  0.00  0.00    +0.162 A 
ATOM     28  C   UNL     1     -15.208   3.763  31.892  0.00  0.00    +0.050 A 
ATOM     31  C   UNL     1     -14.396   2.648  31.680  0.00  0.00    +0.162 A 
BRANCH  27   1
ATOM      1  O   UNL     1     -13.472   1.028  30.180  0.00  0.00    -0.491 OA
ATOM     33  C   UNL     1     -14.121  -0.241  30.112  0.00  0.00    +0.277 C 
ENDBRANCH  27   1
BRANCH  31   2
ATOM      2  O   UNL     1     -13.739   2.088  32.735  0.00  0.00    -0.491 OA
ATOM     34  C   UNL     1     -14.541   1.530  33.774  0.00  0.00    +0.277 C 
ENDBRANCH  31   2
ENDBRANCH  18  21
ENDBRANCH   9  16
BRANCH  10  15
ATOM     15  C   UNL     1     -14.390   4.781  22.942  0.00  0.00    +0.100 C 
BRANCH  15   6
ATOM      6  N   UNL     1     -13.776   5.212  21.696  0.00  0.00    -0.311 NA
ATOM     36  H   UNL     1     -14.423   5.028  20.929  0.00  0.00    +0.122 HD
BRANCH   6  19
ATOM     19  C   UNL     1     -13.469   6.636  21.729  0.00  0.00    +0.116 C 
BRANCH  19  22
ATOM     22  C   UNL     1     -13.025   7.145  20.383  0.00  0.00    -0.033 A 
ATOM     25  C   UNL     1     -13.964   7.657  19.487  0.00  0.00    +0.008 A 
ATOM     26  C   UNL     1     -11.676   7.103  20.032  0.00  0.00    +0.008 A 
ATOM     29  C   UNL     1     -13.553   8.127  18.240  0.00  0.00    +0.046 A 
ATOM     30  C   UNL     1     -11.265   7.573  18.784  0.00  0.00    +0.046 A 
ATOM     32  C   UNL     1     -12.204   8.086  17.889  0.00  0.00    +0.120 A 
BRANCH  32   3
ATOM      3  O   UNL     1     -11.804   8.544  16.671  0.00  0.00    -0.495 OA
ATOM     35  C   UNL     1     -10.546   9.216  16.612  0.00  0.00    +0.277 C 
ENDBRANCH  32   3
ENDBRANCH  19  22
ENDBRANCH   6  19
ENDBRANCH  15   6
ENDBRANCH  10  15
TORSDOF 9
ENDMDL
MODEL 6
REMARK VINA RESULT:      -6.8      3.132      6.422
REMARK  Name = 44716358
REMARK  13 active torsions:
REMARK  status: ('A' for Active; 'I' for Inactive)
REMARK    1  A    between atoms: O_1  and  C_27
REMARK    2  A    between atoms: O_1  and  C_33
REMARK    3  A    between atoms: O_2  and  C_31
REMARK    4  A    between atoms: O_2  and  C_34
REMARK    5  A    between atoms: O_3  and  C_32
REMARK    6  A    between atoms: O_3  and  C_35
REMARK    7  A    between atoms: N_5  and  C_20
REMARK    8  A    between atoms: N_6  and  C_15
REMARK    9  A    between atoms: N_6  and  C_19
REMARK   10  A    between atoms: C_9  and  C_16
REMARK   11  A    between atoms: C_10  and  C_15
REMARK   12  A    between atoms: C_18  and  C_21
REMARK   13  A    between atoms: C_19  and  C_22
REMARK                            x       y       z     vdW  Elec       q    Type
REMARK                         _______ _______ _______ _____ _____    ______ ____
ROOT
ATOM      4  N   UNL     1     -11.329 -11.500  18.530  0.00  0.00    -0.298 NA
ATOM      8  C   UNL     1     -10.990  -9.217  17.324  0.00  0.00    +0.002 C 
ATOM      9  C   UNL     1     -10.887 -10.388  16.309  0.00  0.00    +0.055 C 
ATOM     10  C   UNL     1     -10.320 -10.686  19.257  0.00  0.00    +0.071 C 
ATOM     11  C   UNL     1      -9.954  -9.422  18.449  0.00  0.00    +0.024 C 
ATOM     12  C   UNL     1     -12.389  -9.312  17.972  0.00  0.00    +0.019 C 
ATOM     13  C   UNL     1     -10.896 -11.711  17.126  0.00  0.00    +0.094 C 
ATOM     14  C   UNL     1     -12.601 -10.737  18.512  0.00  0.00    +0.085 C 
ENDROOT
BRANCH   9  16
ATOM      5  N   UNL     1      -9.858  -9.676  14.100  0.00  0.00    -0.270 N 
ATOM      7  N   UNL     1      -8.760  -9.769  13.333  0.00  0.00    -0.171 NA
ATOM     16  C   UNL     1      -9.764 -10.352  15.281  0.00  0.00    +0.044 A 
ATOM     17  C   UNL     1      -8.517 -10.927  15.287  0.00  0.00    +0.053 A 
ATOM     18  C   UNL     1      -7.944 -10.535  14.063  0.00  0.00    +0.093 A 
ATOM     20  C   UNL     1     -10.986  -8.908  13.628  0.00  0.00    +0.172 C 
BRANCH  18  21
ATOM     21  C   UNL     1      -6.632 -10.878  13.577  0.00  0.00    +0.006 A 
ATOM     23  C   UNL     1      -5.973 -10.027  12.689  0.00  0.00    +0.059 A 
ATOM     24  C   UNL     1      -6.022 -12.061  13.993  0.00  0.00    +0.014 A 
ATOM     27  C   UNL     1      -4.702 -10.360  12.218  0.00  0.00    +0.162 A 
ATOM     28  C   UNL     1      -4.752 -12.394  13.520  0.00  0.00    +0.050 A 
ATOM     31  C   UNL     1      -4.093 -11.543  12.633  0.00  0.00    +0.162 A 
BRANCH  27   1
ATOM      1  O   UNL     1      -4.068  -9.522  11.352  0.00  0.00    -0.491 OA
ATOM     33  C   UNL     1      -4.865  -8.522  10.716  0.00  0.00    +0.277 C 
ENDBRANCH  27   1
BRANCH  31   2
ATOM      2  O   UNL     1      -2.853 -11.879  12.179  0.00  0.00    -0.491 OA
ATOM     34  C   UNL     1      -2.272 -13.072  12.705  0.00  0.00    +0.277 C 
ENDBRANCH  31   2
ENDBRANCH  18  21
ENDBRANCH   9  16
BRANCH  10  15
ATOM     15  C   UNL     1      -9.081 -11.498  19.638  0.00  0.00    +0.100 C 
BRANCH  15   6
ATOM      6  N   UNL     1      -7.898 -10.653  19.666  0.00  0.00    -0.311 NA
ATOM     36  H   UNL     1      -7.967 -10.016  20.461  0.00  0.00    +0.122 HD
BRANCH   6  19
ATOM     19  C   UNL     1      -6.687 -11.452  19.801  0.00  0.00    +0.116 C 
BRANCH  19  22
ATOM     22  C   UNL     1      -5.688 -11.144  18.717  0.00  0.00    -0.033 A 
ATOM     25  C   UNL     1      -5.998 -10.210  17.729  0.00  0.00    +0.008 A 
ATOM     26  C   UNL     1      -4.453 -11.792  18.701  0.00  0.00    +0.008 A 
ATOM     29  C   UNL     1      -5.073  -9.924  16.724  0.00  0.00    +0.046 A 
ATOM     30  C   UNL     1      -3.528 -11.508  17.697  0.00  0.00    +0.046 A 
ATOM     32  C   UNL     1      -3.839 -10.573  16.708  0.00  0.00    +0.120 A 
BRANCH  32   3
ATOM      3  O   UNL     1      -2.937 -10.295  15.727  0.00  0.00    -0.495 OA
ATOM     35  C   UNL     1      -1.696 -10.999  15.767  0.00  0.00    +0.277 C 
ENDBRANCH  32   3
ENDBRANCH  19  22
ENDBRANCH   6  19
ENDBRANCH  15   6
ENDBRANCH  10  15
TORSDOF 9
ENDMDL
MODEL 7
REMARK VINA RESULT:      -6.8      1.324      7.983
REMARK  Name = 44716358
REMARK  13 active torsions:
REMARK  status: ('A' for Active; 'I' for Inactive)
REMARK    1  A    between atoms: O_1  and  C_27
REMARK    2  A    between atoms: O_1  and  C_33
REMARK    3  A    between atoms: O_2  and  C_31
REMARK    4  A    between atoms: O_2  and  C_34
REMARK    5  A    between atoms: O_3  and  C_32
REMARK    6  A    between atoms: O_3  and  C_35
REMARK    7  A    between atoms: N_5  and  C_20
REMARK    8  A    between atoms: N_6  and  C_15
REMARK    9  A    between atoms: N_6  and  C_19
REMARK   10  A    between atoms: C_9  and  C_16
REMARK   11  A    between atoms: C_10  and  C_15
REMARK   12  A    between atoms: C_18  and  C_21
REMARK   13  A    between atoms: C_19  and  C_22
REMARK                            x       y       z     vdW  Elec       q    Type
REMARK                         _______ _______ _______ _____ _____    ______ ____
ROOT
ATOM      4  N   UNL     1      -5.434 -12.825  17.268  0.00  0.00    -0.298 NA
ATOM      8  C   UNL     1      -5.696 -10.622  18.632  0.00  0.00    +0.002 C 
ATOM      9  C   UNL     1      -7.052 -11.378  18.553  0.00  0.00    +0.055 C 
ATOM     10  C   UNL     1      -4.854 -11.686  16.510  0.00  0.00    +0.071 C 
ATOM     11  C   UNL     1      -5.182 -10.346  17.204  0.00  0.00    +0.024 C 
ATOM     12  C   UNL     1      -4.689 -11.584  19.300  0.00  0.00    +0.019 C 
ATOM     13  C   UNL     1      -6.865 -12.563  17.564  0.00  0.00    +0.094 C 
ATOM     14  C   UNL     1      -4.707 -12.931  18.556  0.00  0.00    +0.085 C 
ENDROOT
BRANCH   9  16
ATOM      5  N   UNL     1      -9.476 -10.732  18.943  0.00  0.00    -0.270 N 
ATOM      7  N   UNL     1     -10.466  -9.925  18.528  0.00  0.00    -0.171 NA
ATOM     16  C   UNL     1      -8.308 -10.571  18.257  0.00  0.00    +0.044 A 
ATOM     17  C   UNL     1      -8.552  -9.589  17.328  0.00  0.00    +0.053 A 
ATOM     18  C   UNL     1      -9.896  -9.229  17.541  0.00  0.00    +0.093 A 
ATOM     20  C   UNL     1      -9.725 -11.656  20.025  0.00  0.00    +0.172 C 
BRANCH  18  21
ATOM     21  C   UNL     1     -10.645  -8.234  16.818  0.00  0.00    +0.006 A 
ATOM     23  C   UNL     1     -12.032  -8.347  16.711  0.00  0.00    +0.059 A 
ATOM     24  C   UNL     1      -9.985  -7.158  16.225  0.00  0.00    +0.014 A 
ATOM     27  C   UNL     1     -12.758  -7.383  16.011  0.00  0.00    +0.162 A 
ATOM     28  C   UNL     1     -10.711  -6.195  15.524  0.00  0.00    +0.050 A 
ATOM     31  C   UNL     1     -12.098  -6.308  15.418  0.00  0.00    +0.162 A 
BRANCH  27   1
ATOM      1  O   UNL     1     -14.111  -7.503  15.914  0.00  0.00    -0.491 OA
ATOM     33  C   UNL     1     -14.667  -8.794  16.162  0.00  0.00    +0.277 C 
ENDBRANCH  27   1
BRANCH  31   2
ATOM      2  O   UNL     1     -12.796  -5.361  14.731  0.00  0.00    -0.491 OA
ATOM     34  C   UNL     1     -12.417  -5.133  13.375  0.00  0.00    +0.277 C 
ENDBRANCH  31   2
ENDBRANCH  18  21
ENDBRANCH   9  16
BRANCH  10  15
ATOM     15  C   UNL     1      -5.280 -11.686  15.041  0.00  0.00    +0.100 C 
BRANCH  15   6
ATOM      6  N   UNL     1      -4.953 -10.419  14.408  0.00  0.00    -0.311 NA
ATOM     36  H   UNL     1      -4.735  -9.735  15.133  0.00  0.00    +0.122 HD
BRANCH   6  19
ATOM     19  C   UNL     1      -3.803 -10.557  13.523  0.00  0.00    +0.116 C 
BRANCH  19  22
ATOM     22  C   UNL     1      -4.144 -10.200  12.100  0.00  0.00    -0.033 A 
ATOM     25  C   UNL     1      -3.127  -9.914  11.190  0.00  0.00    +0.008 A 
ATOM     26  C   UNL     1      -5.477 -10.154  11.693  0.00  0.00    +0.008 A 
ATOM     29  C   UNL     1      -3.443  -9.582   9.873  0.00  0.00    +0.046 A 
ATOM     30  C   UNL     1      -5.794  -9.822  10.376  0.00  0.00    +0.046 A 
ATOM     32  C   UNL     1      -4.775  -9.536   9.466  0.00  0.00    +0.120 A 
BRANCH  32   3
ATOM      3  O   UNL     1      -5.083  -9.212   8.180  0.00  0.00    -0.495 OA
ATOM     35  C   UNL     1      -5.332 -10.291   7.279  0.00  0.00    +0.277 C 
ENDBRANCH  32   3
ENDBRANCH  19  22
ENDBRANCH   6  19
ENDBRANCH  15   6
ENDBRANCH  10  15
TORSDOF 9
ENDMDL
MODEL 8
REMARK VINA RESULT:      -6.7     18.126     21.213
REMARK  Name = 44716358
REMARK  13 active torsions:
REMARK  status: ('A' for Active; 'I' for Inactive)
REMARK    1  A    between atoms: O_1  and  C_27
REMARK    2  A    between atoms: O_1  and  C_33
REMARK    3  A    between atoms: O_2  and  C_31
REMARK    4  A    between atoms: O_2  and  C_34
REMARK    5  A    between atoms: O_3  and  C_32
REMARK    6  A    between atoms: O_3  and  C_35
REMARK    7  A    between atoms: N_5  and  C_20
REMARK    8  A    between atoms: N_6  and  C_15
REMARK    9  A    between atoms: N_6  and  C_19
REMARK   10  A    between atoms: C_9  and  C_16
REMARK   11  A    between atoms: C_10  and  C_15
REMARK   12  A    between atoms: C_18  and  C_21
REMARK   13  A    between atoms: C_19  and  C_22
REMARK                            x       y       z     vdW  Elec       q    Type
REMARK                         _______ _______ _______ _____ _____    ______ ____
ROOT
ATOM      4  N   UNL     1     -18.476   4.685  23.027  0.00  0.00    -0.298 NA
ATOM      8  C   UNL     1     -17.675   2.206  23.031  0.00  0.00    +0.002 C 
ATOM      9  C   UNL     1     -18.525   2.505  24.296  0.00  0.00    +0.055 C 
ATOM     10  C   UNL     1     -17.014   4.622  22.770  0.00  0.00    +0.071 C 
ATOM     11  C   UNL     1     -16.484   3.186  22.972  0.00  0.00    +0.024 C 
ATOM     12  C   UNL     1     -18.573   2.509  21.811  0.00  0.00    +0.019 C 
ATOM     13  C   UNL     1     -18.792   4.036  24.325  0.00  0.00    +0.094 C 
ATOM     14  C   UNL     1     -19.159   3.924  21.953  0.00  0.00    +0.085 C 
ENDROOT
BRANCH   9  16
ATOM      5  N   UNL     1     -18.454   0.804  26.179  0.00  0.00    -0.270 N 
ATOM      7  N   UNL     1     -17.895   0.520  27.368  0.00  0.00    -0.171 NA
ATOM     16  C   UNL     1     -18.027   1.980  25.636  0.00  0.00    +0.044 A 
ATOM     17  C   UNL     1     -17.126   2.502  26.531  0.00  0.00    +0.053 A 
ATOM     18  C   UNL     1     -17.085   1.561  27.578  0.00  0.00    +0.093 A 
ATOM     20  C   UNL     1     -19.412  -0.117  25.613  0.00  0.00    +0.172 C 
BRANCH  18  21
ATOM     21  C   UNL     1     -16.287   1.639  28.774  0.00  0.00    +0.006 A 
ATOM     23  C   UNL     1     -15.386   0.618  29.079  0.00  0.00    +0.059 A 
ATOM     24  C   UNL     1     -16.416   2.734  29.629  0.00  0.00    +0.014 A 
ATOM     27  C   UNL     1     -14.614   0.693  30.239  0.00  0.00    +0.162 A 
ATOM     28  C   UNL     1     -15.645   2.808  30.789  0.00  0.00    +0.050 A 
ATOM     31  C   UNL     1     -14.743   1.787  31.093  0.00  0.00    +0.162 A 
BRANCH  27   1
ATOM      1  O   UNL     1     -13.737  -0.309  30.525  0.00  0.00    -0.491 OA
ATOM     33  C   UNL     1     -13.225  -1.057  29.424  0.00  0.00    +0.277 C 
ENDBRANCH  27   1
BRANCH  31   2
ATOM      2  O   UNL     1     -13.995   1.871  32.229  0.00  0.00    -0.491 OA
ATOM     34  C   UNL     1     -13.601   3.176  32.649  0.00  0.00    +0.277 C 
ENDBRANCH  31   2
ENDBRANCH  18  21
ENDBRANCH   9  16
BRANCH  10  15
ATOM     15  C   UNL     1     -16.232   5.640  23.603  0.00  0.00    +0.100 C 
BRANCH  15   6
ATOM      6  N   UNL     1     -15.484   6.545  22.745  0.00  0.00    -0.311 NA
ATOM     36  H   UNL     1     -15.363   7.435  23.231  0.00  0.00    +0.122 HD
BRANCH   6  19
ATOM     19  C   UNL     1     -14.173   5.997  22.422  0.00  0.00    +0.116 C 
BRANCH  19  22
ATOM     22  C   UNL     1     -13.578   6.650  21.202  0.00  0.00    -0.033 A 
ATOM     25  C   UNL     1     -14.409   7.248  20.256  0.00  0.00    +0.008 A 
ATOM     26  C   UNL     1     -12.195   6.655  21.019  0.00  0.00    +0.008 A 
ATOM     29  C   UNL     1     -13.858   7.853  19.126  0.00  0.00    +0.046 A 
ATOM     30  C   UNL     1     -11.644   7.259  19.889  0.00  0.00    +0.046 A 
ATOM     32  C   UNL     1     -12.476   7.858  18.942  0.00  0.00    +0.120 A 
BRANCH  32   3
ATOM      3  O   UNL     1     -11.939   8.447  17.839  0.00  0.00    -0.495 OA
ATOM     35  C   UNL     1     -10.654   7.989  17.419  0.00  0.00    +0.277 C 
ENDBRANCH  32   3
ENDBRANCH  19  22
ENDBRANCH   6  19
ENDBRANCH  15   6
ENDBRANCH  10  15
TORSDOF 9
ENDMDL
MODEL 9
REMARK VINA RESULT:      -6.7     18.712     22.876
REMARK  Name = 44716358
REMARK  13 active torsions:
REMARK  status: ('A' for Active; 'I' for Inactive)
REMARK    1  A    between atoms: O_1  and  C_27
REMARK    2  A    between atoms: O_1  and  C_33
REMARK    3  A    between atoms: O_2  and  C_31
REMARK    4  A    between atoms: O_2  and  C_34
REMARK    5  A    between atoms: O_3  and  C_32
REMARK    6  A    between atoms: O_3  and  C_35
REMARK    7  A    between atoms: N_5  and  C_20
REMARK    8  A    between atoms: N_6  and  C_15
REMARK    9  A    between atoms: N_6  and  C_19
REMARK   10  A    between atoms: C_9  and  C_16
REMARK   11  A    between atoms: C_10  and  C_15
REMARK   12  A    between atoms: C_18  and  C_21
REMARK   13  A    between atoms: C_19  and  C_22
REMARK                            x       y       z     vdW  Elec       q    Type
REMARK                         _______ _______ _______ _____ _____    ______ ____
ROOT
ATOM      4  N   UNL     1     -10.093   9.381  17.586  0.00  0.00    -0.298 NA
ATOM      8  C   UNL     1     -12.292  10.775  17.525  0.00  0.00    +0.002 C 
ATOM      9  C   UNL     1     -11.399  11.218  18.717  0.00  0.00    +0.055 C 
ATOM     10  C   UNL     1     -11.267   8.476  17.469  0.00  0.00    +0.071 C 
ATOM     11  C   UNL     1     -12.583   9.264  17.639  0.00  0.00    +0.024 C 
ATOM     12  C   UNL     1     -11.456  10.982  16.243  0.00  0.00    +0.019 C 
ATOM     13  C   UNL     1     -10.215  10.215  18.807  0.00  0.00    +0.094 C 
ATOM     14  C   UNL     1     -10.096  10.282  16.408  0.00  0.00    +0.085 C 
ENDROOT
BRANCH   9  16
ATOM      5  N   UNL     1     -12.945  12.464  20.299  0.00  0.00    -0.270 N 
ATOM      7  N   UNL     1     -13.420  12.495  21.556  0.00  0.00    -0.171 NA
ATOM     16  C   UNL     1     -12.065  11.448  20.067  0.00  0.00    +0.044 A 
ATOM     17  C   UNL     1     -11.957  10.766  21.254  0.00  0.00    +0.053 A 
ATOM     18  C   UNL     1     -12.813  11.455  22.134  0.00  0.00    +0.093 A 
ATOM     20  C   UNL     1     -13.386  13.463  19.354  0.00  0.00    +0.172 C 
BRANCH  18  21
ATOM     21  C   UNL     1     -13.060  11.140  23.518  0.00  0.00    +0.006 A 
ATOM     23  C   UNL     1     -12.042  11.287  24.460  0.00  0.00    +0.059 A 
ATOM     24  C   UNL     1     -14.318  10.687  23.915  0.00  0.00    +0.014 A 
ATOM     27  C   UNL     1     -12.282  10.981  25.800  0.00  0.00    +0.162 A 
ATOM     28  C   UNL     1     -14.558  10.380  25.255  0.00  0.00    +0.050 A 
ATOM     31  C   UNL     1     -13.539  10.528  26.196  0.00  0.00    +0.162 A 
BRANCH  27   1
ATOM      1  O   UNL     1     -11.280  11.129  26.710  0.00  0.00    -0.491 OA
ATOM     33  C   UNL     1     -10.379  10.034  26.866  0.00  0.00    +0.277 C 
ENDBRANCH  27   1
BRANCH  31   2
ATOM      2  O   UNL     1     -13.785  10.225  27.502  0.00  0.00    -0.491 OA
ATOM     34  C   UNL     1     -14.369  11.249  28.306  0.00  0.00    +0.277 C 
ENDBRANCH  31   2
ENDBRANCH  18  21
ENDBRANCH   9  16
BRANCH  10  15
ATOM     15  C   UNL     1     -11.185   7.289  18.431  0.00  0.00    +0.100 C 
BRANCH  15   6
ATOM      6  N   UNL     1     -12.349   7.248  19.301  0.00  0.00    -0.311 NA
ATOM     36  H   UNL     1     -12.972   6.505  18.983  0.00  0.00    +0.122 HD
BRANCH   6  19
ATOM     19  C   UNL     1     -11.962   6.984  20.681  0.00  0.00    +0.116 C 
BRANCH  19  22
ATOM     22  C   UNL     1     -13.150   6.644  21.542  0.00  0.00    -0.033 A 
ATOM     25  C   UNL     1     -14.104   7.619  21.830  0.00  0.00    +0.008 A 
ATOM     26  C   UNL     1     -13.295   5.354  22.050  0.00  0.00    +0.008 A 
ATOM     29  C   UNL     1     -15.205   7.304  22.627  0.00  0.00    +0.046 A 
ATOM     30  C   UNL     1     -14.395   5.038  22.848  0.00  0.00    +0.046 A 
ATOM     32  C   UNL     1     -15.350   6.014  23.135  0.00  0.00    +0.120 A 
BRANCH  32   3
ATOM      3  O   UNL     1     -16.424   5.707  23.914  0.00  0.00    -0.495 OA
ATOM     35  C   UNL     1     -17.196   6.797  24.416  0.00  0.00    +0.277 C 
ENDBRANCH  32   3
ENDBRANCH  19  22
ENDBRANCH   6  19
ENDBRANCH  15   6
ENDBRANCH  10  15
TORSDOF 9
ENDMDL
MODEL 10
REMARK VINA RESULT:      -6.7     23.054     26.868
REMARK  Name = 44716358
REMARK  13 active torsions:
REMARK  status: ('A' for Active; 'I' for Inactive)
REMARK    1  A    between atoms: O_1  and  C_27
REMARK    2  A    between atoms: O_1  and  C_33
REMARK    3  A    between atoms: O_2  and  C_31
REMARK    4  A    between atoms: O_2  and  C_34
REMARK    5  A    between atoms: O_3  and  C_32
REMARK    6  A    between atoms: O_3  and  C_35
REMARK    7  A    between atoms: N_5  and  C_20
REMARK    8  A    between atoms: N_6  and  C_15
REMARK    9  A    between atoms: N_6  and  C_19
REMARK   10  A    between atoms: C_9  and  C_16
REMARK   11  A    between atoms: C_10  and  C_15
REMARK   12  A    between atoms: C_18  and  C_21
REMARK   13  A    between atoms: C_19  and  C_22
REMARK                            x       y       z     vdW  Elec       q    Type
REMARK                         _______ _______ _______ _____ _____    ______ ____
ROOT
ATOM      4  N   UNL     1      13.271   5.785   1.445  0.00  0.00    -0.298 NA
ATOM      8  C   UNL     1      12.050   3.540   0.946  0.00  0.00    +0.002 C 
ATOM      9  C   UNL     1      12.295   4.330  -0.369  0.00  0.00    +0.055 C 
ATOM     10  C   UNL     1      12.097   5.635   2.343  0.00  0.00    +0.071 C 
ATOM     11  C   UNL     1      11.244   4.417   1.926  0.00  0.00    +0.024 C 
ATOM     12  C   UNL     1      13.435   3.300   1.585  0.00  0.00    +0.019 C 
ATOM     13  C   UNL     1      12.837   5.732   0.026  0.00  0.00    +0.094 C 
ATOM     14  C   UNL     1      14.182   4.642   1.692  0.00  0.00    +0.085 C 
ENDROOT
BRANCH   9  16
ATOM      5  N   UNL     1      10.857   3.404  -2.246  0.00  0.00    -0.270 N 
ATOM      7  N   UNL     1       9.820   3.675  -3.056  0.00  0.00    -0.171 NA
ATOM     16  C   UNL     1      11.159   4.413  -1.379  0.00  0.00    +0.044 A 
ATOM     17  C   UNL     1      10.255   5.414  -1.641  0.00  0.00    +0.053 A 
ATOM     18  C   UNL     1       9.457   4.905  -2.682  0.00  0.00    +0.093 A 
ATOM     20  C   UNL     1      11.528   2.130  -2.361  0.00  0.00    +0.172 C 
BRANCH  18  21
ATOM     21  C   UNL     1       8.354   5.570  -3.326  0.00  0.00    +0.006 A 
ATOM     23  C   UNL     1       7.780   6.697  -2.738  0.00  0.00    +0.059 A 
ATOM     24  C   UNL     1       7.860   5.087  -4.537  0.00  0.00    +0.014 A 
ATOM     27  C   UNL     1       6.711   7.342  -3.362  0.00  0.00    +0.162 A 
ATOM     28  C   UNL     1       6.791   5.731  -5.161  0.00  0.00    +0.050 A 
ATOM     31  C   UNL     1       6.217   6.858  -4.573  0.00  0.00    +0.162 A 
BRANCH  27   1
ATOM      1  O   UNL     1       6.159   8.441  -2.779  0.00  0.00    -0.491 OA
ATOM     33  C   UNL     1       5.037   8.228  -1.923  0.00  0.00    +0.277 C 
ENDBRANCH  27   1
BRANCH  31   2
ATOM      2  O   UNL     1       5.173   7.479  -5.192  0.00  0.00    -0.491 OA
ATOM     34  C   UNL     1       3.959   6.739  -5.310  0.00  0.00    +0.277 C 
ENDBRANCH  31   2
ENDBRANCH  18  21
ENDBRANCH   9  16
BRANCH  10  15
ATOM     15  C   UNL     1      11.261   6.914   2.428  0.00  0.00    +0.100 C 
BRANCH  15   6
ATOM      6  N   UNL     1      10.986   7.260   3.813  0.00  0.00    -0.311 NA
ATOM     36  H   UNL     1      11.027   8.275   3.912  0.00  0.00    +0.122 HD
BRANCH   6  19
ATOM     19  C   UNL     1       9.665   6.795   4.217  0.00  0.00    +0.116 C 
BRANCH  19  22
ATOM     22  C   UNL     1       9.707   6.066   5.534  0.00  0.00    -0.033 A 
ATOM     25  C   UNL     1       9.820   4.677   5.558  0.00  0.00    +0.008 A 
ATOM     26  C   UNL     1       9.631   6.781   6.729  0.00  0.00    +0.008 A 
ATOM     29  C   UNL     1       9.858   4.001   6.778  0.00  0.00    +0.046 A 
ATOM     30  C   UNL     1       9.668   6.106   7.949  0.00  0.00    +0.046 A 
ATOM     32  C   UNL     1       9.782   4.716   7.973  0.00  0.00    +0.120 A 
BRANCH  32   3
ATOM      3  O   UNL     1       9.818   4.056   9.164  0.00  0.00    -0.495 OA
ATOM     35  C   UNL     1       9.028   4.590  10.226  0.00  0.00    +0.277 C 
ENDBRANCH  32   3
ENDBRANCH  19  22
ENDBRANCH   6  19
ENDBRANCH  15   6
ENDBRANCH  10  15
TORSDOF 9
ENDMDL
