MODEL 1
REMARK VINA RESULT:      -7.7      0.000      0.000
REMARK  Name = 11885121
REMARK  4 active torsions:
REMARK  status: ('A' for Active; 'I' for Inactive)
REMARK    1  A    between atoms: O_3  and  C_29
REMARK    2  A    between atoms: O_3  and  C_30
REMARK    3  A    between atoms: C_16  and  C_19
REMARK    4  A    between atoms: C_17  and  C_20
REMARK                            x       y       z     vdW  Elec       q    Type
REMARK                         _______ _______ _______ _____ _____    ______ ____
ROOT
ATOM      1  O   UNL     1      15.263   6.326  21.569  0.00  0.00    -0.267 OA
ATOM      2  O   UNL     1      11.929   7.345  17.840  0.00  0.00    -0.270 OA
ATOM      4  N   UNL     1      11.652   9.010  19.459  0.00  0.00    -0.297 N 
ATOM      5  N   UNL     1      13.927   8.236  21.508  0.00  0.00    -0.311 N 
ATOM      7  C   UNL     1      11.380   8.145  21.774  0.00  0.00    +0.027 C 
ATOM      8  C   UNL     1      12.498  10.306  21.401  0.00  0.00    +0.054 C 
ATOM      9  C   UNL     1      11.526   9.562  22.316  0.00  0.00    +0.018 C 
ATOM     10  C   UNL     1      10.832   8.174  20.336  0.00  0.00    +0.113 C 
ATOM     11  C   UNL     1      12.741   7.442  21.860  0.00  0.00    +0.130 C 
ATOM     12  C   UNL     1      11.920  10.364  19.972  0.00  0.00    +0.117 C 
ATOM     13  C   UNL     1      13.852   9.624  21.372  0.00  0.00    +0.027 A 
ATOM     14  C   UNL     1      14.968  10.344  21.172  0.00  0.00    +0.022 A 
ATOM     15  C   UNL     1      15.150   7.544  21.421  0.00  0.00    +0.259 A 
ATOM     16  C   UNL     1      12.152   8.476  18.270  0.00  0.00    +0.247 C 
ATOM     17  C   UNL     1      16.377   8.372  21.150  0.00  0.00    +0.047 A 
ATOM     18  C   UNL     1      16.247   9.704  21.056  0.00  0.00    +0.015 A 
ENDROOT
BRANCH  16  19
ATOM      6  N   UNL     1      14.739  10.902  15.916  0.00  0.00    -0.263 NA
ATOM     19  C   UNL     1      13.043   9.312  17.459  0.00  0.00    +0.040 A 
ATOM     21  C   UNL     1      14.273   9.709  17.966  0.00  0.00    +0.033 A 
ATOM     22  C   UNL     1      12.656   9.705  16.185  0.00  0.00    +0.033 A 
ATOM     25  C   UNL     1      15.078  10.499  17.161  0.00  0.00    +0.111 A 
ATOM     26  C   UNL     1      13.534  10.494  15.459  0.00  0.00    +0.111 A 
ENDBRANCH  16  19
BRANCH  17  20
ATOM     20  C   UNL     1      17.697   7.745  20.973  0.00  0.00    -0.012 A 
ATOM     23  C   UNL     1      17.827   6.605  20.177  0.00  0.00    +0.012 A 
ATOM     24  C   UNL     1      18.819   8.288  21.600  0.00  0.00    +0.012 A 
ATOM     27  C   UNL     1      19.078   6.010  20.009  0.00  0.00    +0.046 A 
ATOM     28  C   UNL     1      20.069   7.693  21.432  0.00  0.00    +0.046 A 
ATOM     29  C   UNL     1      20.198   6.554  20.637  0.00  0.00    +0.120 A 
BRANCH  29   3
ATOM      3  O   UNL     1      21.419   5.973  20.473  0.00  0.00    -0.495 OA
ATOM     30  C   UNL     1      21.522   4.582  20.771  0.00  0.00    +0.277 C 
ENDBRANCH  29   3
ENDBRANCH  17  20
TORSDOF 3
ENDMDL
MODEL 2
REMARK VINA RESULT:      -7.5     17.246     20.565
REMARK  Name = 11885121
REMARK  4 active torsions:
REMARK  status: ('A' for Active; 'I' for Inactive)
REMARK    1  A    between atoms: O_3  and  C_29
REMARK    2  A    between atoms: O_3  and  C_30
REMARK    3  A    between atoms: C_16  and  C_19
REMARK    4  A    between atoms: C_17  and  C_20
REMARK                            x       y       z     vdW  Elec       q    Type
REMARK                         _______ _______ _______ _____ _____    ______ ____
ROOT
ATOM      1  O   UNL     1      12.277   7.722   2.826  0.00  0.00    -0.267 OA
ATOM      2  O   UNL     1      13.525   6.631  -2.003  0.00  0.00    -0.270 OA
ATOM      4  N   UNL     1      13.830   4.665  -0.772  0.00  0.00    -0.297 N 
ATOM      5  N   UNL     1      12.823   5.582   2.077  0.00  0.00    -0.311 N 
ATOM      7  C   UNL     1      15.182   4.956   1.294  0.00  0.00    +0.027 C 
ATOM      8  C   UNL     1      13.384   3.275   1.236  0.00  0.00    +0.054 C 
ATOM      9  C   UNL     1      14.803   3.547   1.735  0.00  0.00    +0.018 C 
ATOM     10  C   UNL     1      15.131   5.070  -0.240  0.00  0.00    +0.113 C 
ATOM     11  C   UNL     1      14.242   5.956   1.979  0.00  0.00    +0.130 C 
ATOM     12  C   UNL     1      13.354   3.353  -0.304  0.00  0.00    +0.117 C 
ATOM     13  C   UNL     1      12.402   4.276   1.813  0.00  0.00    +0.027 A 
ATOM     14  C   UNL     1      11.123   3.924   2.027  0.00  0.00    +0.022 A 
ATOM     15  C   UNL     1      11.938   6.570   2.549  0.00  0.00    +0.259 A 
ATOM     16  C   UNL     1      13.129   5.534  -1.610  0.00  0.00    +0.247 C 
ATOM     17  C   UNL     1      10.503   6.157   2.734  0.00  0.00    +0.047 A 
ATOM     18  C   UNL     1      10.162   4.883   2.490  0.00  0.00    +0.015 A 
ENDROOT
BRANCH  16  19
ATOM      6  N   UNL     1       9.241   4.374  -2.898  0.00  0.00    -0.263 NA
ATOM     19  C   UNL     1      11.789   5.134  -2.054  0.00  0.00    +0.040 A 
ATOM     21  C   UNL     1      10.670   5.563  -1.353  0.00  0.00    +0.033 A 
ATOM     22  C   UNL     1      11.642   4.328  -3.174  0.00  0.00    +0.033 A 
ATOM     25  C   UNL     1       9.428   5.157  -1.812  0.00  0.00    +0.111 A 
ATOM     26  C   UNL     1      10.355   3.978  -3.552  0.00  0.00    +0.111 A 
ENDBRANCH  16  19
BRANCH  17  20
ATOM     20  C   UNL     1       9.479   7.128   3.157  0.00  0.00    -0.012 A 
ATOM     23  C   UNL     1       9.064   7.169   4.490  0.00  0.00    +0.012 A 
ATOM     24  C   UNL     1       8.922   8.006   2.227  0.00  0.00    +0.012 A 
ATOM     27  C   UNL     1       8.095   8.088   4.890  0.00  0.00    +0.046 A 
ATOM     28  C   UNL     1       7.952   8.924   2.628  0.00  0.00    +0.046 A 
ATOM     29  C   UNL     1       7.538   8.965   3.960  0.00  0.00    +0.120 A 
BRANCH  29   3
ATOM      3  O   UNL     1       6.591   9.862   4.351  0.00  0.00    -0.495 OA
ATOM     30  C   UNL     1       5.612  10.236   3.383  0.00  0.00    +0.277 C 
ENDBRANCH  29   3
ENDBRANCH  17  20
TORSDOF 3
ENDMDL
MODEL 3
REMARK VINA RESULT:      -7.5     25.882     28.382
REMARK  Name = 11885121
REMARK  4 active torsions:
REMARK  status: ('A' for Active; 'I' for Inactive)
REMARK    1  A    between atoms: O_3  and  C_29
REMARK    2  A    between atoms: O_3  and  C_30
REMARK    3  A    between atoms: C_16  and  C_19
REMARK    4  A    between atoms: C_17  and  C_20
REMARK                            x       y       z     vdW  Elec       q    Type
REMARK                         _______ _______ _______ _____ _____    ______ ____
ROOT
ATOM      1  O   UNL     1     -13.035  10.009  20.511  0.00  0.00    -0.267 OA
ATOM      2  O   UNL     1     -14.404  11.941  15.989  0.00  0.00    -0.270 OA
ATOM      4  N   UNL     1     -12.078  11.707  15.940  0.00  0.00    -0.297 N 
ATOM      5  N   UNL     1     -11.555  10.347  18.741  0.00  0.00    -0.311 N 
ATOM      7  C   UNL     1     -10.914  12.684  17.908  0.00  0.00    +0.027 C 
ATOM      8  C   UNL     1      -9.984  10.690  16.803  0.00  0.00    +0.054 C 
ATOM      9  C   UNL     1      -9.616  12.017  17.465  0.00  0.00    +0.018 C 
ATOM     10  C   UNL     1     -11.829  12.935  16.695  0.00  0.00    +0.113 C 
ATOM     11  C   UNL     1     -11.586  11.800  18.966  0.00  0.00    +0.130 C 
ATOM     12  C   UNL     1     -10.868  10.956  15.567  0.00  0.00    +0.117 C 
ATOM     13  C   UNL     1     -10.724   9.784  17.769  0.00  0.00    +0.027 A 
ATOM     14  C   UNL     1     -10.617   8.450  17.662  0.00  0.00    +0.022 A 
ATOM     15  C   UNL     1     -12.317   9.553  19.619  0.00  0.00    +0.259 A 
ATOM     16  C   UNL     1     -13.392  11.315  15.678  0.00  0.00    +0.247 C 
ATOM     17  C   UNL     1     -12.212   8.062  19.445  0.00  0.00    +0.047 A 
ATOM     18  C   UNL     1     -11.378   7.580  18.512  0.00  0.00    +0.015 A 
ENDROOT
BRANCH  16  19
ATOM      6  N   UNL     1     -14.015   7.598  13.699  0.00  0.00    -0.263 NA
ATOM     19  C   UNL     1     -13.607  10.034  14.996  0.00  0.00    +0.040 A 
ATOM     21  C   UNL     1     -13.547   9.969  13.611  0.00  0.00    +0.033 A 
ATOM     22  C   UNL     1     -13.868   8.890  15.737  0.00  0.00    +0.033 A 
ATOM     25  C   UNL     1     -13.757   8.736  13.015  0.00  0.00    +0.111 A 
ATOM     26  C   UNL     1     -14.064   7.705  15.045  0.00  0.00    +0.111 A 
ENDBRANCH  16  19
BRANCH  17  20
ATOM     20  C   UNL     1     -13.018   7.140  20.263  0.00  0.00    -0.012 A 
ATOM     23  C   UNL     1     -12.398   6.327  21.213  0.00  0.00    +0.012 A 
ATOM     24  C   UNL     1     -14.401   7.078  20.088  0.00  0.00    +0.012 A 
ATOM     27  C   UNL     1     -13.162   5.453  21.988  0.00  0.00    +0.046 A 
ATOM     28  C   UNL     1     -15.163   6.204  20.863  0.00  0.00    +0.046 A 
ATOM     29  C   UNL     1     -14.543   5.391  21.813  0.00  0.00    +0.120 A 
BRANCH  29   3
ATOM      3  O   UNL     1     -15.288   4.539  22.569  0.00  0.00    -0.495 OA
ATOM     30  C   UNL     1     -14.932   4.407  23.944  0.00  0.00    +0.277 C 
ENDBRANCH  29   3
ENDBRANCH  17  20
TORSDOF 3
ENDMDL
MODEL 4
REMARK VINA RESULT:      -7.3     24.892     28.750
REMARK  Name = 11885121
REMARK  4 active torsions:
REMARK  status: ('A' for Active; 'I' for Inactive)
REMARK    1  A    between atoms: O_3  and  C_29
REMARK    2  A    between atoms: O_3  and  C_30
REMARK    3  A    between atoms: C_16  and  C_19
REMARK    4  A    between atoms: C_17  and  C_20
REMARK                            x       y       z     vdW  Elec       q    Type
REMARK                         _______ _______ _______ _____ _____    ______ ____
ROOT
ATOM      1  O   UNL     1     -14.101   8.954  18.002  0.00  0.00    -0.267 OA
ATOM      2  O   UNL     1     -16.561  10.139  22.315  0.00  0.00    -0.270 OA
ATOM      4  N   UNL     1     -15.816   7.935  22.554  0.00  0.00    -0.297 N 
ATOM      5  N   UNL     1     -14.205   7.554  19.864  0.00  0.00    -0.311 N 
ATOM      7  C   UNL     1     -16.385   6.453  20.640  0.00  0.00    +0.027 C 
ATOM      8  C   UNL     1     -14.305   6.076  21.901  0.00  0.00    +0.054 C 
ATOM      9  C   UNL     1     -15.473   5.374  21.211  0.00  0.00    +0.018 C 
ATOM     10  C   UNL     1     -16.908   7.364  21.766  0.00  0.00    +0.113 C 
ATOM     11  C   UNL     1     -15.612   7.239  19.574  0.00  0.00    +0.130 C 
ATOM     12  C   UNL     1     -14.837   6.955  23.051  0.00  0.00    +0.117 C 
ATOM     13  C   UNL     1     -13.531   6.939  20.922  0.00  0.00    +0.027 A 
ATOM     14  C   UNL     1     -12.215   7.146  21.095  0.00  0.00    +0.022 A 
ATOM     15  C   UNL     1     -13.551   8.419  18.966  0.00  0.00    +0.259 A 
ATOM     16  C   UNL     1     -15.745   9.318  22.730  0.00  0.00    +0.247 C 
ATOM     17  C   UNL     1     -12.087   8.668  19.214  0.00  0.00    +0.047 A 
ATOM     18  C   UNL     1     -11.488   8.028  20.229  0.00  0.00    +0.015 A 
ENDROOT
BRANCH  16  19
ATOM      6  N   UNL     1     -12.389  10.899  24.819  0.00  0.00    -0.263 NA
ATOM     19  C   UNL     1     -14.588   9.863  23.450  0.00  0.00    +0.040 A 
ATOM     21  C   UNL     1     -14.635  10.004  24.830  0.00  0.00    +0.033 A 
ATOM     22  C   UNL     1     -13.450  10.237  22.750  0.00  0.00    +0.033 A 
ATOM     25  C   UNL     1     -13.517  10.523  25.463  0.00  0.00    +0.111 A 
ATOM     26  C   UNL     1     -12.385  10.746  23.476  0.00  0.00    +0.111 A 
ENDBRANCH  16  19
BRANCH  17  20
ATOM     20  C   UNL     1     -11.321   9.608  18.378  0.00  0.00    -0.012 A 
ATOM     23  C   UNL     1     -11.135  10.925  18.799  0.00  0.00    +0.012 A 
ATOM     24  C   UNL     1     -10.782   9.181  17.163  0.00  0.00    +0.012 A 
ATOM     27  C   UNL     1     -10.409  11.815  18.006  0.00  0.00    +0.046 A 
ATOM     28  C   UNL     1     -10.057  10.071  16.372  0.00  0.00    +0.046 A 
ATOM     29  C   UNL     1      -9.871  11.388  16.793  0.00  0.00    +0.120 A 
BRANCH  29   3
ATOM      3  O   UNL     1      -9.163  12.256  16.019  0.00  0.00    -0.495 OA
ATOM     30  C   UNL     1      -8.279  13.154  16.690  0.00  0.00    +0.277 C 
ENDBRANCH  29   3
ENDBRANCH  17  20
TORSDOF 3
ENDMDL
MODEL 5
REMARK VINA RESULT:      -7.2      2.161      3.031
REMARK  Name = 11885121
REMARK  4 active torsions:
REMARK  status: ('A' for Active; 'I' for Inactive)
REMARK    1  A    between atoms: O_3  and  C_29
REMARK    2  A    between atoms: O_3  and  C_30
REMARK    3  A    between atoms: C_16  and  C_19
REMARK    4  A    between atoms: C_17  and  C_20
REMARK                            x       y       z     vdW  Elec       q    Type
REMARK                         _______ _______ _______ _____ _____    ______ ____
ROOT
ATOM      1  O   UNL     1      16.011   6.277  18.538  0.00  0.00    -0.267 OA
ATOM      2  O   UNL     1      14.810  10.820  16.544  0.00  0.00    -0.270 OA
ATOM      4  N   UNL     1      13.257  10.402  18.242  0.00  0.00    -0.297 N 
ATOM      5  N   UNL     1      14.344   7.669  19.389  0.00  0.00    -0.311 N 
ATOM      7  C   UNL     1      12.179   8.166  18.111  0.00  0.00    +0.027 C 
ATOM      8  C   UNL     1      12.573   9.206  20.307  0.00  0.00    +0.054 C 
ATOM      9  C   UNL     1      11.577   8.380  19.495  0.00  0.00    +0.018 C 
ATOM     10  C   UNL     1      12.431   9.518  17.420  0.00  0.00    +0.113 C 
ATOM     11  C   UNL     1      13.466   7.343  18.255  0.00  0.00    +0.130 C 
ATOM     12  C   UNL     1      12.787  10.573  19.627  0.00  0.00    +0.117 C 
ATOM     13  C   UNL     1      13.904   8.488  20.431  0.00  0.00    +0.027 A 
ATOM     14  C   UNL     1      14.675   8.674  21.515  0.00  0.00    +0.022 A 
ATOM     15  C   UNL     1      15.600   7.033  19.420  0.00  0.00    +0.259 A 
ATOM     16  C   UNL     1      14.416  10.961  17.700  0.00  0.00    +0.247 C 
ATOM     17  C   UNL     1      16.460   7.298  20.627  0.00  0.00    +0.047 A 
ATOM     18  C   UNL     1      15.973   8.072  21.608  0.00  0.00    +0.015 A 
ENDROOT
BRANCH  16  19
ATOM      6  N   UNL     1      16.886  13.312  20.249  0.00  0.00    -0.263 NA
ATOM     19  C   UNL     1      15.267  11.771  18.579  0.00  0.00    +0.040 A 
ATOM     21  C   UNL     1      16.201  11.154  19.401  0.00  0.00    +0.033 A 
ATOM     22  C   UNL     1      15.138  13.153  18.587  0.00  0.00    +0.033 A 
ATOM     25  C   UNL     1      16.980  11.964  20.211  0.00  0.00    +0.111 A 
ATOM     26  C   UNL     1      15.965  13.873  19.434  0.00  0.00    +0.111 A 
ENDBRANCH  16  19
BRANCH  17  20
ATOM     20  C   UNL     1      17.819   6.739  20.732  0.00  0.00    -0.012 A 
ATOM     23  C   UNL     1      18.726   7.277  21.647  0.00  0.00    +0.012 A 
ATOM     24  C   UNL     1      18.201   5.673  19.916  0.00  0.00    +0.012 A 
ATOM     27  C   UNL     1      20.013   6.747  21.746  0.00  0.00    +0.046 A 
ATOM     28  C   UNL     1      19.488   5.145  20.016  0.00  0.00    +0.046 A 
ATOM     29  C   UNL     1      20.394   5.682  20.931  0.00  0.00    +0.120 A 
BRANCH  29   3
ATOM      3  O   UNL     1      21.650   5.166  21.027  0.00  0.00    -0.495 OA
ATOM     30  C   UNL     1      22.150   4.913  22.339  0.00  0.00    +0.277 C 
ENDBRANCH  29   3
ENDBRANCH  17  20
TORSDOF 3
ENDMDL
MODEL 6
REMARK VINA RESULT:      -7.2     27.719     31.399
REMARK  Name = 11885121
REMARK  4 active torsions:
REMARK  status: ('A' for Active; 'I' for Inactive)
REMARK    1  A    between atoms: O_3  and  C_29
REMARK    2  A    between atoms: O_3  and  C_30
REMARK    3  A    between atoms: C_16  and  C_19
REMARK    4  A    between atoms: C_17  and  C_20
REMARK                            x       y       z     vdW  Elec       q    Type
REMARK                         _______ _______ _______ _____ _____    ______ ____
ROOT
ATOM      1  O   UNL     1     -11.289  -9.566  18.426  0.00  0.00    -0.267 OA
ATOM      2  O   UNL     1      -6.627 -10.600  20.232  0.00  0.00    -0.270 OA
ATOM      4  N   UNL     1      -7.380 -12.543  19.170  0.00  0.00    -0.297 N 
ATOM      5  N   UNL     1     -10.151 -11.560  18.017  0.00  0.00    -0.311 N 
ATOM      7  C   UNL     1      -9.655 -13.267  19.863  0.00  0.00    +0.027 C 
ATOM      8  C   UNL     1      -8.886 -13.690  17.564  0.00  0.00    +0.054 C 
ATOM      9  C   UNL     1      -9.671 -14.287  18.730  0.00  0.00    +0.018 C 
ATOM     10  C   UNL     1      -8.209 -12.969  20.298  0.00  0.00    +0.113 C 
ATOM     11  C   UNL     1     -10.390 -12.003  19.399  0.00  0.00    +0.130 C 
ATOM     12  C   UNL     1      -7.429 -13.432  17.998  0.00  0.00    +0.117 C 
ATOM     13  C   UNL     1      -9.511 -12.390  17.094  0.00  0.00    +0.027 A 
ATOM     14  C   UNL     1      -9.411 -12.017  15.807  0.00  0.00    +0.022 A 
ATOM     15  C   UNL     1     -10.688 -10.311  17.650  0.00  0.00    +0.259 A 
ATOM     16  C   UNL     1      -6.669 -11.344  19.254  0.00  0.00    +0.247 C 
ATOM     17  C   UNL     1     -10.520  -9.900  16.212  0.00  0.00    +0.047 A 
ATOM     18  C   UNL     1      -9.920 -10.750  15.366  0.00  0.00    +0.015 A 
ENDROOT
BRANCH  16  19
ATOM      6  N   UNL     1      -4.495 -10.065  15.825  0.00  0.00    -0.263 NA
ATOM     19  C   UNL     1      -5.920 -10.903  18.072  0.00  0.00    +0.040 A 
ATOM     21  C   UNL     1      -4.595 -11.287  17.909  0.00  0.00    +0.033 A 
ATOM     22  C   UNL     1      -6.536 -10.104  17.119  0.00  0.00    +0.033 A 
ATOM     25  C   UNL     1      -3.932 -10.844  16.776  0.00  0.00    +0.111 A 
ATOM     26  C   UNL     1      -5.785  -9.714  16.021  0.00  0.00    +0.111 A 
ENDBRANCH  16  19
BRANCH  17  20
ATOM     20  C   UNL     1     -10.983  -8.586  15.735  0.00  0.00    -0.012 A 
ATOM     23  C   UNL     1     -10.236  -7.440  16.012  0.00  0.00    +0.012 A 
ATOM     24  C   UNL     1     -12.170  -8.486  15.007  0.00  0.00    +0.012 A 
ATOM     27  C   UNL     1     -10.675  -6.195  15.560  0.00  0.00    +0.046 A 
ATOM     28  C   UNL     1     -12.608  -7.241  14.556  0.00  0.00    +0.046 A 
ATOM     29  C   UNL     1     -11.861  -6.096  14.833  0.00  0.00    +0.120 A 
BRANCH  29   3
ATOM      3  O   UNL     1     -12.290  -4.882  14.393  0.00  0.00    -0.495 OA
ATOM     30  C   UNL     1     -12.273  -4.657  12.984  0.00  0.00    +0.277 C 
ENDBRANCH  29   3
ENDBRANCH  17  20
TORSDOF 3
ENDMDL
MODEL 7
REMARK VINA RESULT:      -7.2      4.396     10.074
REMARK  Name = 11885121
REMARK  4 active torsions:
REMARK  status: ('A' for Active; 'I' for Inactive)
REMARK    1  A    between atoms: O_3  and  C_29
REMARK    2  A    between atoms: O_3  and  C_30
REMARK    3  A    between atoms: C_16  and  C_19
REMARK    4  A    between atoms: C_17  and  C_20
REMARK                            x       y       z     vdW  Elec       q    Type
REMARK                         _______ _______ _______ _____ _____    ______ ____
ROOT
ATOM      1  O   UNL     1      20.053   3.757  20.498  0.00  0.00    -0.267 OA
ATOM      2  O   UNL     1      22.512   3.719  24.971  0.00  0.00    -0.270 OA
ATOM      4  N   UNL     1      23.936   4.758  23.433  0.00  0.00    -0.297 N 
ATOM      5  N   UNL     1      22.107   4.800  20.859  0.00  0.00    -0.311 N 
ATOM      7  C   UNL     1      24.258   3.485  21.322  0.00  0.00    +0.027 C 
ATOM      8  C   UNL     1      24.308   5.946  21.286  0.00  0.00    +0.054 C 
ATOM      9  C   UNL     1      24.960   4.691  20.708  0.00  0.00    +0.018 C 
ATOM     10  C   UNL     1      24.407   3.500  22.854  0.00  0.00    +0.113 C 
ATOM     11  C   UNL     1      22.787   3.496  20.885  0.00  0.00    +0.130 C 
ATOM     12  C   UNL     1      24.499   5.970  22.816  0.00  0.00    +0.117 C 
ATOM     13  C   UNL     1      22.828   5.993  20.959  0.00  0.00    +0.027 A 
ATOM     14  C   UNL     1      22.204   7.173  20.810  0.00  0.00    +0.022 A 
ATOM     15  C   UNL     1      20.718   4.786  20.626  0.00  0.00    +0.259 A 
ATOM     16  C   UNL     1      22.984   4.731  24.454  0.00  0.00    +0.247 C 
ATOM     17  C   UNL     1      20.040   6.124  20.510  0.00  0.00    +0.047 A 
ATOM     18  C   UNL     1      20.788   7.235  20.587  0.00  0.00    +0.015 A 
ENDROOT
BRANCH  16  19
ATOM      6  N   UNL     1      21.489   8.448  25.894  0.00  0.00    -0.263 NA
ATOM     19  C   UNL     1      22.468   6.012  24.951  0.00  0.00    +0.040 A 
ATOM     21  C   UNL     1      23.084   6.636  26.026  0.00  0.00    +0.033 A 
ATOM     22  C   UNL     1      21.366   6.597  24.343  0.00  0.00    +0.033 A 
ATOM     25  C   UNL     1      22.559   7.844  26.457  0.00  0.00    +0.111 A 
ATOM     26  C   UNL     1      20.918   7.807  24.849  0.00  0.00    +0.111 A 
ENDBRANCH  16  19
BRANCH  17  20
ATOM     20  C   UNL     1      18.581   6.227  20.334  0.00  0.00    -0.012 A 
ATOM     23  C   UNL     1      17.780   6.670  21.388  0.00  0.00    +0.012 A 
ATOM     24  C   UNL     1      17.999   5.880  19.114  0.00  0.00    +0.012 A 
ATOM     27  C   UNL     1      16.399   6.768  21.220  0.00  0.00    +0.046 A 
ATOM     28  C   UNL     1      16.618   5.977  18.948  0.00  0.00    +0.046 A 
ATOM     29  C   UNL     1      15.818   6.421  20.001  0.00  0.00    +0.120 A 
BRANCH  29   3
ATOM      3  O   UNL     1      14.470   6.515  19.838  0.00  0.00    -0.495 OA
ATOM     30  C   UNL     1      13.731   7.156  20.878  0.00  0.00    +0.277 C 
ENDBRANCH  29   3
ENDBRANCH  17  20
TORSDOF 3
ENDMDL
MODEL 8
REMARK VINA RESULT:      -7.2     26.975     29.976
REMARK  Name = 11885121
REMARK  4 active torsions:
REMARK  status: ('A' for Active; 'I' for Inactive)
REMARK    1  A    between atoms: O_3  and  C_29
REMARK    2  A    between atoms: O_3  and  C_30
REMARK    3  A    between atoms: C_16  and  C_19
REMARK    4  A    between atoms: C_17  and  C_20
REMARK                            x       y       z     vdW  Elec       q    Type
REMARK                         _______ _______ _______ _____ _____    ______ ____
ROOT
ATOM      1  O   UNL     1      -6.716  -9.988  14.088  0.00  0.00    -0.267 OA
ATOM      2  O   UNL     1      -4.725 -14.420  12.520  0.00  0.00    -0.270 OA
ATOM      4  N   UNL     1      -2.931 -13.082  13.199  0.00  0.00    -0.297 N 
ATOM      5  N   UNL     1      -4.456 -10.532  14.267  0.00  0.00    -0.311 N 
ATOM      7  C   UNL     1      -2.935 -10.797  12.221  0.00  0.00    +0.027 C 
ATOM      8  C   UNL     1      -2.026 -11.158  14.480  0.00  0.00    +0.054 C 
ATOM      9  C   UNL     1      -1.817 -10.391  13.175  0.00  0.00    +0.018 C 
ATOM     10  C   UNL     1      -2.891 -12.312  11.956  0.00  0.00    +0.113 C 
ATOM     11  C   UNL     1      -4.277 -10.353  12.818  0.00  0.00    +0.130 C 
ATOM     12  C   UNL     1      -1.940 -12.674  14.209  0.00  0.00    +0.117 C 
ATOM     13  C   UNL     1      -3.372 -10.829  15.097  0.00  0.00    +0.027 A 
ATOM     14  C   UNL     1      -3.532 -10.867  16.430  0.00  0.00    +0.022 A 
ATOM     15  C   UNL     1      -5.743 -10.286  14.782  0.00  0.00    +0.259 A 
ATOM     16  C   UNL     1      -3.897 -14.076  13.362  0.00  0.00    +0.247 C 
ATOM     17  C   UNL     1      -5.902 -10.381  16.276  0.00  0.00    +0.047 A 
ATOM     18  C   UNL     1      -4.819 -10.644  17.023  0.00  0.00    +0.015 A 
ENDROOT
BRANCH  16  19
ATOM      6  N   UNL     1      -4.093 -16.084  17.111  0.00  0.00    -0.263 NA
ATOM     19  C   UNL     1      -3.964 -14.768  14.654  0.00  0.00    +0.040 A 
ATOM     21  C   UNL     1      -4.779 -14.273  15.664  0.00  0.00    +0.033 A 
ATOM     22  C   UNL     1      -3.214 -15.917  14.865  0.00  0.00    +0.033 A 
ATOM     25  C   UNL     1      -4.807 -14.963  16.865  0.00  0.00    +0.111 A 
ATOM     26  C   UNL     1      -3.313 -16.533  16.102  0.00  0.00    +0.111 A 
ENDBRANCH  16  19
BRANCH  17  20
ATOM     20  C   UNL     1      -7.217 -10.210  16.915  0.00  0.00    -0.012 A 
ATOM     23  C   UNL     1      -7.803 -11.274  17.603  0.00  0.00    +0.012 A 
ATOM     24  C   UNL     1      -7.880  -8.985  16.832  0.00  0.00    +0.012 A 
ATOM     27  C   UNL     1      -9.049 -11.112  18.209  0.00  0.00    +0.046 A 
ATOM     28  C   UNL     1      -9.126  -8.824  17.437  0.00  0.00    +0.046 A 
ATOM     29  C   UNL     1      -9.711  -9.887  18.125  0.00  0.00    +0.120 A 
BRANCH  29   3
ATOM      3  O   UNL     1     -10.927  -9.729  18.715  0.00  0.00    -0.495 OA
ATOM     30  C   UNL     1     -11.084 -10.253  20.033  0.00  0.00    +0.277 C 
ENDBRANCH  29   3
ENDBRANCH  17  20
TORSDOF 3
ENDMDL
MODEL 9
REMARK VINA RESULT:      -7.1     21.205     24.107
REMARK  Name = 11885121
REMARK  4 active torsions:
REMARK  status: ('A' for Active; 'I' for Inactive)
REMARK    1  A    between atoms: O_3  and  C_29
REMARK    2  A    between atoms: O_3  and  C_30
REMARK    3  A    between atoms: C_16  and  C_19
REMARK    4  A    between atoms: C_17  and  C_20
REMARK                            x       y       z     vdW  Elec       q    Type
REMARK                         _______ _______ _______ _____ _____    ______ ____
ROOT
ATOM      1  O   UNL     1       9.474  -9.387  32.531  0.00  0.00    -0.267 OA
ATOM      2  O   UNL     1       9.128  -8.045  37.445  0.00  0.00    -0.270 OA
ATOM      4  N   UNL     1       8.625  -6.135  36.192  0.00  0.00    -0.297 N 
ATOM      5  N   UNL     1       8.736  -7.297  33.258  0.00  0.00    -0.311 N 
ATOM      7  C   UNL     1      10.285  -5.615  34.416  0.00  0.00    +0.027 C 
ATOM      8  C   UNL     1       7.911  -5.061  34.071  0.00  0.00    +0.054 C 
ATOM      9  C   UNL     1       9.339  -4.564  33.846  0.00  0.00    +0.018 C 
ATOM     10  C   UNL     1      10.025  -5.811  35.921  0.00  0.00    +0.113 C 
ATOM     11  C   UNL     1      10.109  -6.918  33.625  0.00  0.00    +0.130 C 
ATOM     12  C   UNL     1       7.650  -5.216  35.583  0.00  0.00    +0.117 C 
ATOM     13  C   UNL     1       7.680  -6.391  33.379  0.00  0.00    +0.027 A 
ATOM     14  C   UNL     1       6.458  -6.714  32.924  0.00  0.00    +0.022 A 
ATOM     15  C   UNL     1       8.563  -8.572  32.686  0.00  0.00    +0.259 A 
ATOM     16  C   UNL     1       8.315  -7.276  36.935  0.00  0.00    +0.247 C 
ATOM     17  C   UNL     1       7.172  -8.923  32.229  0.00  0.00    +0.047 A 
ATOM     18  C   UNL     1       6.204  -8.002  32.346  0.00  0.00    +0.015 A 
ENDROOT
BRANCH  16  19
ATOM      6  N   UNL     1       4.208  -8.271  37.451  0.00  0.00    -0.263 NA
ATOM     19  C   UNL     1       6.899  -7.619  37.113  0.00  0.00    +0.040 A 
ATOM     21  C   UNL     1       6.180  -7.070  38.165  0.00  0.00    +0.033 A 
ATOM     22  C   UNL     1       6.282  -8.492  36.228  0.00  0.00    +0.033 A 
ATOM     25  C   UNL     1       4.847  -7.425  38.290  0.00  0.00    +0.111 A 
ATOM     26  C   UNL     1       4.943  -8.784  36.440  0.00  0.00    +0.111 A 
ENDBRANCH  16  19
BRANCH  17  20
ATOM     20  C   UNL     1       6.864 -10.254  31.679  0.00  0.00    -0.012 A 
ATOM     23  C   UNL     1       7.025 -10.500  30.315  0.00  0.00    +0.012 A 
ATOM     24  C   UNL     1       6.408 -11.269  32.522  0.00  0.00    +0.012 A 
ATOM     27  C   UNL     1       6.733 -11.761  29.794  0.00  0.00    +0.046 A 
ATOM     28  C   UNL     1       6.116 -12.529  32.000  0.00  0.00    +0.046 A 
ATOM     29  C   UNL     1       6.278 -12.775  30.636  0.00  0.00    +0.120 A 
BRANCH  29   3
ATOM      3  O   UNL     1       5.991 -14.005  30.128  0.00  0.00    -0.495 OA
ATOM     30  C   UNL     1       4.725 -14.167  29.490  0.00  0.00    +0.277 C 
ENDBRANCH  29   3
ENDBRANCH  17  20
TORSDOF 3
ENDMDL
MODEL 10
REMARK VINA RESULT:      -7.0     27.279     30.259
REMARK  Name = 11885121
REMARK  4 active torsions:
REMARK  status: ('A' for Active; 'I' for Inactive)
REMARK    1  A    between atoms: O_3  and  C_29
REMARK    2  A    between atoms: O_3  and  C_30
REMARK    3  A    between atoms: C_16  and  C_19
REMARK    4  A    between atoms: C_17  and  C_20
REMARK                            x       y       z     vdW  Elec       q    Type
REMARK                         _______ _______ _______ _____ _____    ______ ____
ROOT
ATOM      1  O   UNL     1      -6.065 -13.612  16.242  0.00  0.00    -0.267 OA
ATOM      2  O   UNL     1     -10.998 -12.323  15.985  0.00  0.00    -0.270 OA
ATOM      4  N   UNL     1     -10.450 -12.428  18.256  0.00  0.00    -0.297 N 
ATOM      5  N   UNL     1      -7.359 -13.051  18.099  0.00  0.00    -0.311 N 
ATOM      7  C   UNL     1      -9.288 -14.520  18.929  0.00  0.00    +0.027 C 
ATOM      8  C   UNL     1      -8.769 -12.409  20.083  0.00  0.00    +0.054 C 
ATOM      9  C   UNL     1      -8.982 -13.908  20.291  0.00  0.00    +0.018 C 
ATOM     10  C   UNL     1     -10.554 -13.886  18.326  0.00  0.00    +0.113 C 
ATOM     11  C   UNL     1      -8.063 -14.340  18.022  0.00  0.00    +0.130 C 
ATOM     12  C   UNL     1     -10.057 -11.777  19.517  0.00  0.00    +0.117 C 
ATOM     13  C   UNL     1      -7.617 -12.147  19.132  0.00  0.00    +0.027 A 
ATOM     14  C   UNL     1      -6.877 -11.033  19.255  0.00  0.00    +0.022 A 
ATOM     15  C   UNL     1      -6.346 -12.825  17.147  0.00  0.00    +0.259 A 
ATOM     16  C   UNL     1     -10.669 -11.781  17.039  0.00  0.00    +0.247 C 
ATOM     17  C   UNL     1      -5.566 -11.546  17.283  0.00  0.00    +0.047 A 
ATOM     18  C   UNL     1      -5.840 -10.730  18.311  0.00  0.00    +0.015 A 
ENDROOT
BRANCH  16  19
ATOM      6  N   UNL     1     -10.092  -7.566  16.880  0.00  0.00    -0.263 NA
ATOM     19  C   UNL     1     -10.470 -10.328  16.985  0.00  0.00    +0.040 A 
ATOM     21  C   UNL     1      -9.215  -9.811  16.694  0.00  0.00    +0.033 A 
ATOM     22  C   UNL     1     -11.537  -9.474  17.223  0.00  0.00    +0.033 A 
ATOM     25  C   UNL     1      -9.080  -8.433  16.654  0.00  0.00    +0.111 A 
ATOM     26  C   UNL     1     -11.297  -8.110  17.159  0.00  0.00    +0.111 A 
ENDBRANCH  16  19
BRANCH  17  20
ATOM     20  C   UNL     1      -4.530 -11.176  16.303  0.00  0.00    -0.012 A 
ATOM     23  C   UNL     1      -3.201 -11.041  16.709  0.00  0.00    +0.012 A 
ATOM     24  C   UNL     1      -4.877 -10.960  14.968  0.00  0.00    +0.012 A 
ATOM     27  C   UNL     1      -2.221 -10.691  15.780  0.00  0.00    +0.046 A 
ATOM     28  C   UNL     1      -3.896 -10.610  14.041  0.00  0.00    +0.046 A 
ATOM     29  C   UNL     1      -2.568 -10.475  14.447  0.00  0.00    +0.120 A 
BRANCH  29   3
ATOM      3  O   UNL     1      -1.611 -10.132  13.541  0.00  0.00    -0.495 OA
ATOM     30  C   UNL     1      -1.921 -10.331  12.162  0.00  0.00    +0.277 C 
ENDBRANCH  29   3
ENDBRANCH  17  20
TORSDOF 3
ENDMDL
