REMARK  Name = 75368576
REMARK  2 active torsions:
REMARK  status: ('A' for Active; 'I' for Inactive)
REMARK    1  A    between atoms: N_5  and  C_14
REMARK    2  A    between atoms: C_14  and  C_16
REMARK                            x       y       z     vdW  Elec       q    Type
REMARK                         _______ _______ _______ _____ _____    ______ ____
ROOT
ATOM      1  O   UNL     1      -4.208  -2.204  -0.163  0.00  0.00    -0.252 OA
ATOM      4  N   UNL     1      -1.937  -1.689  -0.251  0.00  0.00    -0.278 N 
ATOM      5  N   UNL     1       0.823  -1.886   0.260  0.00  0.00    -0.295 NA
ATOM      6  N   UNL     1      -3.390   0.045  -0.156  0.00  0.00    -0.238 N 
ATOM      7  N   UNL     1      -5.770   0.201  -0.071  0.00  0.00    -0.240 NA
ATOM      8  C   UNL     1      -1.109  -0.519  -0.412  0.00  0.00    +0.109 C 
ATOM      9  C   UNL     1       0.124  -0.605   0.486  0.00  0.00    +0.109 C 
ATOM     10  C   UNL     1      -2.056   0.632  -0.096  0.00  0.00    +0.140 C 
ATOM     11  C   UNL     1      -1.324  -3.001  -0.304  0.00  0.00    +0.125 C 
ATOM     12  C   UNL     1      -0.062  -3.028   0.562  0.00  0.00    +0.104 C 
ATOM     13  C   UNL     1      -3.305  -1.379  -0.193  0.00  0.00    +0.311 C 
ATOM     15  C   UNL     1      -4.575   0.833  -0.097  0.00  0.00    +0.129 A 
ATOM     19  C   UNL     1      -4.426   2.211  -0.069  0.00  0.00    +0.044 A 
ATOM     23  C   UNL     1      -5.577   2.989  -0.011  0.00  0.00    +0.005 A 
ATOM     24  C   UNL     1      -6.866   0.990  -0.014  0.00  0.00    +0.113 A 
ATOM     25  C   UNL     1      -6.824   2.375   0.018  0.00  0.00    +0.020 A 
ENDROOT
BRANCH   5  14
ATOM     14  C   UNL     1       2.038  -1.953   1.072  0.00  0.00    +0.119 C 
BRANCH  14  16
ATOM      2  O   UNL     1       4.758   2.087   1.068  0.00  0.00    -0.485 OA
ATOM      3  O   UNL     1       6.268   1.073  -1.168  0.00  0.00    -0.485 OA
ATOM     16  C   UNL     1       3.152  -1.129   0.484  0.00  0.00    -0.030 A 
ATOM     17  C   UNL     1       3.474   0.108   1.042  0.00  0.00    +0.054 A 
ATOM     18  C   UNL     1       3.858  -1.603  -0.623  0.00  0.00    +0.009 A 
ATOM     20  C   UNL     1       4.502   0.872   0.489  0.00  0.00    +0.162 A 
ATOM     21  C   UNL     1       4.895  -0.846  -1.168  0.00  0.00    +0.050 A 
ATOM     22  C   UNL     1       5.227   0.385  -0.602  0.00  0.00    +0.162 A 
ATOM     26  C   UNL     1       5.569   2.917   0.232  0.00  0.00    +0.270 C 
ATOM     27  C   UNL     1       6.738   2.124  -0.319  0.00  0.00    +0.270 C 
ENDBRANCH  14  16
ENDBRANCH   5  14
TORSDOF 2
