REMARK  Name = 24121228
REMARK  12 active torsions:
REMARK  status: ('A' for Active; 'I' for Inactive)
REMARK    1  A    between atoms: O_2  and  C_15
REMARK    2  A    between atoms: O_2  and  C_24
REMARK    3  A    between atoms: O_3  and  C_16
REMARK    4  A    between atoms: O_4  and  C_20
REMARK    5  A    between atoms: N_7  and  C_26
REMARK    6  A    between atoms: N_8  and  C_25
REMARK    7  A    between atoms: C_9  and  C_19
REMARK    8  A    between atoms: C_11  and  C_20
REMARK    9  A    between atoms: C_11  and  C_21
REMARK   10  A    between atoms: C_12  and  C_22
REMARK   11  A    between atoms: C_22  and  C_23
REMARK   12  A    between atoms: C_26  and  C_32
REMARK                            x       y       z     vdW  Elec       q    Type
REMARK                         _______ _______ _______ _____ _____    ______ ____
ROOT
ATOM      9  C   UNL     1      -0.617   0.381   0.187  0.00  0.00    -0.023 C 
ATOM     10  C   UNL     1       0.106  -0.420  -0.964  0.00  0.00    +0.007 C 
ATOM     11  C   UNL     1       1.668  -0.588  -0.836  0.00  0.00    +0.031 C 
ATOM     12  C   UNL     1      -2.088   0.689  -0.317  0.00  0.00    +0.032 C 
ATOM     13  C   UNL     1       0.139   1.719   0.404  0.00  0.00    +0.011 C 
ATOM     14  C   UNL     1      -0.658  -1.722  -1.293  0.00  0.00    +0.007 C 
ATOM     15  C   UNL     1       2.302   0.805  -0.541  0.00  0.00    +0.186 C 
ATOM     16  C   UNL     1      -2.869  -0.575  -0.745  0.00  0.00    +0.119 C 
ATOM     17  C   UNL     1       1.640   1.550   0.613  0.00  0.00    +0.046 C 
ATOM     18  C   UNL     1      -2.090  -1.428  -1.742  0.00  0.00    +0.032 C 
ATOM     19  C   UNL     1      -0.653  -0.374   1.538  0.00  0.00    +0.012 C 
ATOM     21  C   UNL     1       2.240  -1.081  -2.197  0.00  0.00    +0.017 C 
ENDROOT
BRANCH  16   3
ATOM      3  O   UNL     1      -3.224  -1.361   0.387  0.00  0.00    -0.391 OA
ATOM     36  H   UNL     1      -3.744  -2.119   0.070  0.00  0.00    +0.210 HD
ENDBRANCH  16   3
BRANCH  15   2
ATOM      2  O   UNL     1       3.692   0.700  -0.229  0.00  0.00    -0.446 OA
BRANCH   2  24
ATOM      6  O   UNL     1       4.046   2.783  -1.129  0.00  0.00    -0.226 OA
ATOM      8  N   UNL     1       5.779   1.536  -0.222  0.00  0.00    -0.278 N 
ATOM     24  C   UNL     1       4.468   1.771  -0.579  0.00  0.00    +0.401 C 
ATOM     39  H   UNL     1       6.469   2.240  -0.469  0.00  0.00    +0.152 HD
BRANCH   8  25
ATOM     25  C   UNL     1       6.229   0.327   0.423  0.00  0.00    +0.076 C 
ATOM     27  C   UNL     1       6.593  -0.739  -0.614  0.00  0.00    +0.022 C 
ATOM     28  C   UNL     1       7.408   0.622   1.355  0.00  0.00    +0.022 C 
ATOM     29  C   UNL     1       7.123  -2.009   0.046  0.00  0.00    +0.002 C 
ATOM     30  C   UNL     1       7.938  -0.649   2.012  0.00  0.00    +0.002 C 
ATOM     31  C   UNL     1       8.296  -1.711   0.976  0.00  0.00    +0.000 C 
ENDBRANCH   8  25
ENDBRANCH   2  24
ENDBRANCH  15   2
BRANCH  11  20
ATOM     20  C   UNL     1       2.106  -1.638   0.205  0.00  0.00    +0.166 C 
BRANCH  20   4
ATOM      4  O   UNL     1       3.426  -2.029  -0.102  0.00  0.00    -0.394 OA
ATOM     37  H   UNL     1       3.695  -2.688   0.561  0.00  0.00    +0.209 HD
ENDBRANCH  20   4
ENDBRANCH  11  20
BRANCH  12  22
ATOM     22  C   UNL     1      -2.940   1.527   0.649  0.00  0.00    +0.102 C 
BRANCH  22  23
ATOM      5  O   UNL     1      -4.477   2.473  -0.962  0.00  0.00    -0.276 OA
ATOM      7  N   UNL     1      -5.308   1.320   0.877  0.00  0.00    -0.311 N 
ATOM     23  C   UNL     1      -4.302   1.840   0.075  0.00  0.00    +0.214 C 
ATOM     38  H   UNL     1      -5.068   0.826   1.731  0.00  0.00    +0.149 HD
BRANCH   7  26
ATOM     26  C   UNL     1      -6.713   1.468   0.575  0.00  0.00    +0.146 C 
BRANCH  26  32
ATOM      1  S   UNL     1      -7.326  -0.949   1.793  0.00  0.00    -0.100 S 
ATOM     32  C   UNL     1      -7.345   0.115   0.452  0.00  0.00    +0.007 A 
ATOM     33  C   UNL     1      -7.976  -0.440  -0.640  0.00  0.00    +0.013 A 
ATOM     34  C   UNL     1      -8.450  -1.756  -0.371  0.00  0.00    +0.008 A 
ATOM     35  C   UNL     1      -8.164  -2.157   0.915  0.00  0.00    +0.045 A 
ENDBRANCH  26  32
ENDBRANCH   7  26
ENDBRANCH  22  23
ENDBRANCH  12  22
TORSDOF 10
