MODEL 1
REMARK VINA RESULT:      -6.8      0.000      0.000
REMARK  Name = 75536283
REMARK  11 active torsions:
REMARK  status: ('A' for Active; 'I' for Inactive)
REMARK    1  A    between atoms: O_2  and  C_12
REMARK    2  A    between atoms: O_5  and  C_21
REMARK    3  A    between atoms: O_5  and  C_27
REMARK    4  A    between atoms: O_6  and  C_23
REMARK    5  A    between atoms: O_6  and  C_29
REMARK    6  A    between atoms: N_7  and  C_16
REMARK    7  A    between atoms: N_9  and  C_22
REMARK    8  A    between atoms: C_10  and  C_15
REMARK    9  A    between atoms: C_11  and  C_16
REMARK   10  A    between atoms: C_15  and  C_17
REMARK   11  A    between atoms: C_20  and  C_21
REMARK                            x       y       z     vdW  Elec       q    Type
REMARK                         _______ _______ _______ _____ _____    ______ ____
ROOT
ATOM      1  O   UNL     1      12.825   2.891   0.513  0.00  0.00    -0.369 OA
ATOM     10  C   UNL     1      13.035   3.557  -0.735  0.00  0.00    +0.125 C 
ATOM     11  C   UNL     1      13.139   3.666   1.678  0.00  0.00    +0.164 C 
ATOM     12  C   UNL     1      14.581   4.188   1.630  0.00  0.00    +0.145 C 
ATOM     13  C   UNL     1      14.493   3.992  -0.876  0.00  0.00    +0.034 C 
ATOM     14  C   UNL     1      14.910   4.867   0.303  0.00  0.00    +0.036 C 
ENDROOT
BRANCH  12   2
ATOM      2  O   UNL     1      15.476   3.083   1.788  0.00  0.00    -0.389 OA
ATOM     30  H   UNL     1      14.954   2.268   1.698  0.00  0.00    +0.210 HD
ENDBRANCH  12   2
BRANCH  10  15
ATOM     15  C   UNL     1      12.649   2.585  -1.844  0.00  0.00    +0.090 C 
BRANCH  15  17
ATOM      3  O   UNL     1       9.338   2.654  -3.267  0.00  0.00    -0.357 OA
ATOM      8  N   UNL     1      10.422   1.990  -2.706  0.00  0.00    -0.083 NA
ATOM     17  C   UNL     1      11.326   2.945  -2.464  0.00  0.00    +0.086 A 
ATOM     18  C   UNL     1      10.871   4.219  -2.848  0.00  0.00    +0.073 A 
ATOM     20  C   UNL     1       9.617   3.980  -3.347  0.00  0.00    +0.163 A 
BRANCH  20  21
ATOM     21  C   UNL     1       8.572   4.836  -3.921  0.00  0.00    +0.236 C 
BRANCH  21   5
ATOM      5  O   UNL     1       8.576   6.117  -3.284  0.00  0.00    -0.375 OA
ATOM     27  C   UNL     1       7.268   6.665  -3.229  0.00  0.00    +0.194 C 
ENDBRANCH  21   5
ENDBRANCH  20  21
ENDBRANCH  15  17
ENDBRANCH  10  15
BRANCH  11  16
ATOM     16  C   UNL     1      12.110   4.774   1.895  0.00  0.00    +0.140 C 
BRANCH  16   7
ATOM      4  O   UNL     1       9.917   5.101   3.709  0.00  0.00    -0.253 OA
ATOM      7  N   UNL     1      12.175   5.279   3.232  0.00  0.00    -0.297 N 
ATOM      9  N   UNL     1      11.419   5.930   5.312  0.00  0.00    -0.266 N 
ATOM     19  C   UNL     1      11.052   5.411   4.067  0.00  0.00    +0.304 C 
ATOM     31  H   UNL     1      13.073   5.600   3.580  0.00  0.00    +0.150 HD
ATOM     32  H   UNL     1      12.406   6.129   5.451  0.00  0.00    +0.156 HD
BRANCH   9  22
ATOM     22  C   UNL     1      10.581   6.208   6.418  0.00  0.00    +0.077 A 
ATOM     23  C   UNL     1      10.030   7.478   6.591  0.00  0.00    +0.141 A 
ATOM     24  C   UNL     1      10.311   5.198   7.341  0.00  0.00    +0.027 A 
ATOM     25  C   UNL     1       9.208   7.737   7.687  0.00  0.00    +0.047 A 
ATOM     26  C   UNL     1       9.488   5.457   8.437  0.00  0.00    +0.002 A 
ATOM     28  C   UNL     1       8.937   6.727   8.611  0.00  0.00    +0.004 A 
BRANCH  23   6
ATOM      6  O   UNL     1      10.283   8.479   5.701  0.00  0.00    -0.493 OA
ATOM     29  C   UNL     1       9.249   8.792   4.770  0.00  0.00    +0.277 C 
ENDBRANCH  23   6
ENDBRANCH   9  22
ENDBRANCH  16   7
ENDBRANCH  11  16
TORSDOF 9
ENDMDL
MODEL 2
REMARK VINA RESULT:      -6.5     31.506     36.705
REMARK  Name = 75536283
REMARK  11 active torsions:
REMARK  status: ('A' for Active; 'I' for Inactive)
REMARK    1  A    between atoms: O_2  and  C_12
REMARK    2  A    between atoms: O_5  and  C_21
REMARK    3  A    between atoms: O_5  and  C_27
REMARK    4  A    between atoms: O_6  and  C_23
REMARK    5  A    between atoms: O_6  and  C_29
REMARK    6  A    between atoms: N_7  and  C_16
REMARK    7  A    between atoms: N_9  and  C_22
REMARK    8  A    between atoms: C_10  and  C_15
REMARK    9  A    between atoms: C_11  and  C_16
REMARK   10  A    between atoms: C_15  and  C_17
REMARK   11  A    between atoms: C_20  and  C_21
REMARK                            x       y       z     vdW  Elec       q    Type
REMARK                         _______ _______ _______ _____ _____    ______ ____
ROOT
ATOM      1  O   UNL     1     -16.528   0.822  26.530  0.00  0.00    -0.369 OA
ATOM     10  C   UNL     1     -17.688   1.212  27.270  0.00  0.00    +0.125 C 
ATOM     11  C   UNL     1     -16.510   1.241  25.159  0.00  0.00    +0.164 C 
ATOM     12  C   UNL     1     -17.761   0.759  24.411  0.00  0.00    +0.145 C 
ATOM     13  C   UNL     1     -18.954   0.651  26.623  0.00  0.00    +0.034 C 
ATOM     14  C   UNL     1     -19.049   1.085  25.163  0.00  0.00    +0.036 C 
ENDROOT
BRANCH  12   2
ATOM      2  O   UNL     1     -17.689  -0.662  24.263  0.00  0.00    -0.389 OA
ATOM     30  H   UNL     1     -17.188  -1.010  25.019  0.00  0.00    +0.210 HD
ENDBRANCH  12   2
BRANCH  10  15
ATOM     15  C   UNL     1     -17.524   0.683  28.690  0.00  0.00    +0.090 C 
BRANCH  15  17
ATOM      3  O   UNL     1     -14.152   0.697  29.961  0.00  0.00    -0.357 OA
ATOM      8  N   UNL     1     -15.265   0.053  29.434  0.00  0.00    -0.083 NA
ATOM     17  C   UNL     1     -16.172   1.020  29.257  0.00  0.00    +0.086 A 
ATOM     18  C   UNL     1     -15.692   2.281  29.651  0.00  0.00    +0.073 A 
ATOM     20  C   UNL     1     -14.418   2.023  30.086  0.00  0.00    +0.163 A 
BRANCH  20  21
ATOM     21  C   UNL     1     -13.342   2.859  30.632  0.00  0.00    +0.236 C 
BRANCH  21   5
ATOM      5  O   UNL     1     -13.252   2.689  32.049  0.00  0.00    -0.375 OA
ATOM     27  C   UNL     1     -14.010   3.673  32.733  0.00  0.00    +0.194 C 
ENDBRANCH  21   5
ENDBRANCH  20  21
ENDBRANCH  15  17
ENDBRANCH  10  15
BRANCH  11  16
ATOM     16  C   UNL     1     -16.292   2.749  25.047  0.00  0.00    +0.140 C 
BRANCH  16   7
ATOM      4  O   UNL     1     -15.565   5.371  24.150  0.00  0.00    -0.253 OA
ATOM      7  N   UNL     1     -15.550   3.074  23.867  0.00  0.00    -0.297 N 
ATOM      9  N   UNL     1     -14.503   4.399  22.295  0.00  0.00    -0.266 N 
ATOM     19  C   UNL     1     -15.230   4.389  23.489  0.00  0.00    +0.304 C 
ATOM     31  H   UNL     1     -15.281   2.317  23.247  0.00  0.00    +0.150 HD
ATOM     32  H   UNL     1     -14.301   3.494  21.877  0.00  0.00    +0.156 HD
BRANCH   9  22
ATOM     22  C   UNL     1     -13.999   5.519  21.594  0.00  0.00    +0.077 A 
ATOM     23  C   UNL     1     -14.848   6.321  20.831  0.00  0.00    +0.141 A 
ATOM     24  C   UNL     1     -12.638   5.817  21.670  0.00  0.00    +0.027 A 
ATOM     25  C   UNL     1     -14.336   7.421  20.144  0.00  0.00    +0.047 A 
ATOM     26  C   UNL     1     -12.126   6.918  20.983  0.00  0.00    +0.002 A 
ATOM     28  C   UNL     1     -12.975   7.720  20.220  0.00  0.00    +0.004 A 
BRANCH  23   6
ATOM      6  O   UNL     1     -16.180   6.046  20.744  0.00  0.00    -0.493 OA
ATOM     29  C   UNL     1     -17.079   7.035  21.243  0.00  0.00    +0.277 C 
ENDBRANCH  23   6
ENDBRANCH   9  22
ENDBRANCH  16   7
ENDBRANCH  11  16
TORSDOF 9
ENDMDL
MODEL 3
REMARK VINA RESULT:      -6.5     23.109     25.851
REMARK  Name = 75536283
REMARK  11 active torsions:
REMARK  status: ('A' for Active; 'I' for Inactive)
REMARK    1  A    between atoms: O_2  and  C_12
REMARK    2  A    between atoms: O_5  and  C_21
REMARK    3  A    between atoms: O_5  and  C_27
REMARK    4  A    between atoms: O_6  and  C_23
REMARK    5  A    between atoms: O_6  and  C_29
REMARK    6  A    between atoms: N_7  and  C_16
REMARK    7  A    between atoms: N_9  and  C_22
REMARK    8  A    between atoms: C_10  and  C_15
REMARK    9  A    between atoms: C_11  and  C_16
REMARK   10  A    between atoms: C_15  and  C_17
REMARK   11  A    between atoms: C_20  and  C_21
REMARK                            x       y       z     vdW  Elec       q    Type
REMARK                         _______ _______ _______ _____ _____    ______ ____
ROOT
ATOM      1  O   UNL     1      -4.946  -8.686  11.052  0.00  0.00    -0.369 OA
ATOM     10  C   UNL     1      -4.381  -9.917  10.594  0.00  0.00    +0.125 C 
ATOM     11  C   UNL     1      -6.359  -8.553  10.854  0.00  0.00    +0.164 C 
ATOM     12  C   UNL     1      -6.739  -8.755   9.381  0.00  0.00    +0.145 C 
ATOM     13  C   UNL     1      -4.634 -10.103   9.098  0.00  0.00    +0.034 C 
ATOM     14  C   UNL     1      -6.127 -10.024   8.792  0.00  0.00    +0.036 C 
ENDROOT
BRANCH  12   2
ATOM      2  O   UNL     1      -6.252  -7.644   8.623  0.00  0.00    -0.389 OA
ATOM     30  H   UNL     1      -7.023  -7.133   8.323  0.00  0.00    +0.210 HD
ENDBRANCH  12   2
BRANCH  10  15
ATOM     15  C   UNL     1      -2.886  -9.873  10.889  0.00  0.00    +0.090 C 
BRANCH  15  17
ATOM      3  O   UNL     1      -1.785 -11.428  13.948  0.00  0.00    -0.357 OA
ATOM      8  N   UNL     1      -2.015 -10.316  13.147  0.00  0.00    -0.083 NA
ATOM     17  C   UNL     1      -2.512 -10.808  12.008  0.00  0.00    +0.086 A 
ATOM     18  C   UNL     1      -2.617 -12.209  12.032  0.00  0.00    +0.073 A 
ATOM     20  C   UNL     1      -2.147 -12.549  13.274  0.00  0.00    +0.163 A 
BRANCH  20  21
ATOM     21  C   UNL     1      -1.970 -13.825  13.978  0.00  0.00    +0.236 C 
BRANCH  21   5
ATOM      5  O   UNL     1      -3.190 -14.570  13.971  0.00  0.00    -0.375 OA
ATOM     27  C   UNL     1      -4.086 -14.096  14.963  0.00  0.00    +0.194 C 
ENDBRANCH  21   5
ENDBRANCH  20  21
ENDBRANCH  15  17
ENDBRANCH  10  15
BRANCH  11  16
ATOM     16  C   UNL     1      -7.136  -9.466  11.801  0.00  0.00    +0.140 C 
BRANCH  16   7
ATOM      4  O   UNL     1      -6.035 -11.280  13.725  0.00  0.00    -0.253 OA
ATOM      7  N   UNL     1      -6.820  -9.176  13.166  0.00  0.00    -0.297 N 
ATOM      9  N   UNL     1      -6.078  -9.555  15.317  0.00  0.00    -0.266 N 
ATOM     19  C   UNL     1      -6.280 -10.121  14.055  0.00  0.00    +0.304 C 
ATOM     31  H   UNL     1      -7.041  -8.252  13.523  0.00  0.00    +0.150 HD
ATOM     32  H   UNL     1      -6.329  -8.575  15.423  0.00  0.00    +0.156 HD
BRANCH   9  22
ATOM     22  C   UNL     1      -5.554 -10.178  16.475  0.00  0.00    +0.077 A 
ATOM     23  C   UNL     1      -6.329 -10.301  17.628  0.00  0.00    +0.141 A 
ATOM     24  C   UNL     1      -4.249 -10.669  16.455  0.00  0.00    +0.027 A 
ATOM     25  C   UNL     1      -5.799 -10.916  18.762  0.00  0.00    +0.047 A 
ATOM     26  C   UNL     1      -3.718 -11.284  17.589  0.00  0.00    +0.002 A 
ATOM     28  C   UNL     1      -4.493 -11.407  18.743  0.00  0.00    +0.004 A 
BRANCH  23   6
ATOM      6  O   UNL     1      -7.607  -9.827  17.667  0.00  0.00    -0.493 OA
ATOM     29  C   UNL     1      -8.596 -10.680  18.241  0.00  0.00    +0.277 C 
ENDBRANCH  23   6
ENDBRANCH   9  22
ENDBRANCH  16   7
ENDBRANCH  11  16
TORSDOF 9
ENDMDL
MODEL 4
REMARK VINA RESULT:      -6.4     23.565     26.088
REMARK  Name = 75536283
REMARK  11 active torsions:
REMARK  status: ('A' for Active; 'I' for Inactive)
REMARK    1  A    between atoms: O_2  and  C_12
REMARK    2  A    between atoms: O_5  and  C_21
REMARK    3  A    between atoms: O_5  and  C_27
REMARK    4  A    between atoms: O_6  and  C_23
REMARK    5  A    between atoms: O_6  and  C_29
REMARK    6  A    between atoms: N_7  and  C_16
REMARK    7  A    between atoms: N_9  and  C_22
REMARK    8  A    between atoms: C_10  and  C_15
REMARK    9  A    between atoms: C_11  and  C_16
REMARK   10  A    between atoms: C_15  and  C_17
REMARK   11  A    between atoms: C_20  and  C_21
REMARK                            x       y       z     vdW  Elec       q    Type
REMARK                         _______ _______ _______ _____ _____    ______ ____
ROOT
ATOM      1  O   UNL     1      -4.237  -9.436  11.197  0.00  0.00    -0.369 OA
ATOM     10  C   UNL     1      -4.045 -10.842  11.023  0.00  0.00    +0.125 C 
ATOM     11  C   UNL     1      -5.520  -8.940  10.792  0.00  0.00    +0.164 C 
ATOM     12  C   UNL     1      -5.824  -9.306   9.334  0.00  0.00    +0.145 C 
ATOM     13  C   UNL     1      -4.224 -11.233   9.557  0.00  0.00    +0.034 C 
ATOM     14  C   UNL     1      -5.590 -10.786   9.044  0.00  0.00    +0.036 C 
ENDROOT
BRANCH  12   2
ATOM      2  O   UNL     1      -4.959  -8.552   8.480  0.00  0.00    -0.389 OA
ATOM     30  H   UNL     1      -4.847  -7.673   8.879  0.00  0.00    +0.210 HD
ENDBRANCH  12   2
BRANCH  10  15
ATOM     15  C   UNL     1      -2.638 -11.176  11.506  0.00  0.00    +0.090 C 
BRANCH  15  17
ATOM      3  O   UNL     1      -1.891 -13.513  14.146  0.00  0.00    -0.357 OA
ATOM      8  N   UNL     1      -1.529 -12.521  13.243  0.00  0.00    -0.083 NA
ATOM     17  C   UNL     1      -2.654 -12.229  12.581  0.00  0.00    +0.086 A 
ATOM     18  C   UNL     1      -3.746 -12.998  13.019  0.00  0.00    +0.073 A 
ATOM     20  C   UNL     1      -3.213 -13.789  14.003  0.00  0.00    +0.163 A 
BRANCH  20  21
ATOM     21  C   UNL     1      -3.767 -14.822  14.887  0.00  0.00    +0.236 C 
BRANCH  21   5
ATOM      5  O   UNL     1      -4.535 -14.221  15.933  0.00  0.00    -0.375 OA
ATOM     27  C   UNL     1      -5.339 -15.183  16.595  0.00  0.00    +0.194 C 
ENDBRANCH  21   5
ENDBRANCH  20  21
ENDBRANCH  15  17
ENDBRANCH  10  15
BRANCH  11  16
ATOM     16  C   UNL     1      -6.613  -9.388  11.761  0.00  0.00    +0.140 C 
BRANCH  16   7
ATOM      4  O   UNL     1      -6.286 -11.262  13.903  0.00  0.00    -0.253 OA
ATOM      7  N   UNL     1      -6.255  -9.087  13.113  0.00  0.00    -0.297 N 
ATOM      9  N   UNL     1      -5.759  -9.476  15.333  0.00  0.00    -0.266 N 
ATOM     19  C   UNL     1      -6.113 -10.063  14.115  0.00  0.00    +0.304 C 
ATOM     31  H   UNL     1      -6.142  -8.112  13.373  0.00  0.00    +0.150 HD
ATOM     32  H   UNL     1      -5.648  -8.465  15.336  0.00  0.00    +0.156 HD
BRANCH   9  22
ATOM     22  C   UNL     1      -5.525 -10.118  16.571  0.00  0.00    +0.077 A 
ATOM     23  C   UNL     1      -4.314 -10.764  16.819  0.00  0.00    +0.141 A 
ATOM     24  C   UNL     1      -6.522 -10.104  17.547  0.00  0.00    +0.027 A 
ATOM     25  C   UNL     1      -4.098 -11.394  18.045  0.00  0.00    +0.047 A 
ATOM     26  C   UNL     1      -6.306 -10.735  18.772  0.00  0.00    +0.002 A 
ATOM     28  C   UNL     1      -5.095 -11.380  19.022  0.00  0.00    +0.004 A 
BRANCH  23   6
ATOM      6  O   UNL     1      -3.328 -10.789  15.879  0.00  0.00    -0.493 OA
ATOM     29  C   UNL     1      -1.982 -10.759  16.351  0.00  0.00    +0.277 C 
ENDBRANCH  23   6
ENDBRANCH   9  22
ENDBRANCH  16   7
ENDBRANCH  11  16
TORSDOF 9
ENDMDL
MODEL 5
REMARK VINA RESULT:      -6.4     15.165     19.679
REMARK  Name = 75536283
REMARK  11 active torsions:
REMARK  status: ('A' for Active; 'I' for Inactive)
REMARK    1  A    between atoms: O_2  and  C_12
REMARK    2  A    between atoms: O_5  and  C_21
REMARK    3  A    between atoms: O_5  and  C_27
REMARK    4  A    between atoms: O_6  and  C_23
REMARK    5  A    between atoms: O_6  and  C_29
REMARK    6  A    between atoms: N_7  and  C_16
REMARK    7  A    between atoms: N_9  and  C_22
REMARK    8  A    between atoms: C_10  and  C_15
REMARK    9  A    between atoms: C_11  and  C_16
REMARK   10  A    between atoms: C_15  and  C_17
REMARK   11  A    between atoms: C_20  and  C_21
REMARK                            x       y       z     vdW  Elec       q    Type
REMARK                         _______ _______ _______ _____ _____    ______ ____
ROOT
ATOM      1  O   UNL     1      13.530   9.186  20.804  0.00  0.00    -0.369 OA
ATOM     10  C   UNL     1      12.768   9.185  19.594  0.00  0.00    +0.125 C 
ATOM     11  C   UNL     1      13.434   7.989  21.586  0.00  0.00    +0.164 C 
ATOM     12  C   UNL     1      11.973   7.655  21.919  0.00  0.00    +0.145 C 
ATOM     13  C   UNL     1      11.284   8.973  19.891  0.00  0.00    +0.034 C 
ATOM     14  C   UNL     1      11.073   7.688  20.687  0.00  0.00    +0.036 C 
ENDROOT
BRANCH  12   2
ATOM      2  O   UNL     1      11.479   8.626  22.846  0.00  0.00    -0.389 OA
ATOM     30  H   UNL     1      10.816   9.163  22.381  0.00  0.00    +0.210 HD
ENDBRANCH  12   2
BRANCH  10  15
ATOM     15  C   UNL     1      12.996  10.527  18.907  0.00  0.00    +0.090 C 
BRANCH  15  17
ATOM      3  O   UNL     1      13.553   9.661  15.453  0.00  0.00    -0.357 OA
ATOM      8  N   UNL     1      12.818   9.608  16.631  0.00  0.00    -0.083 NA
ATOM     17  C   UNL     1      13.507  10.353  17.502  0.00  0.00    +0.086 A 
ATOM     18  C   UNL     1      14.673  10.896  16.935  0.00  0.00    +0.073 A 
ATOM     20  C   UNL     1      14.655  10.430  15.646  0.00  0.00    +0.163 A 
BRANCH  20  21
ATOM     21  C   UNL     1      15.551  10.594  14.495  0.00  0.00    +0.236 C 
BRANCH  21   5
ATOM      5  O   UNL     1      14.833  11.132  13.381  0.00  0.00    -0.375 OA
ATOM     27  C   UNL     1      14.568  12.514  13.561  0.00  0.00    +0.194 C 
ENDBRANCH  21   5
ENDBRANCH  20  21
ENDBRANCH  15  17
ENDBRANCH  10  15
BRANCH  11  16
ATOM     16  C   UNL     1      14.172   6.832  20.913  0.00  0.00    +0.140 C 
BRANCH  16   7
ATOM      4  O   UNL     1      16.711   7.463  19.747  0.00  0.00    -0.253 OA
ATOM      7  N   UNL     1      15.458   6.631  21.507  0.00  0.00    -0.297 N 
ATOM      9  N   UNL     1      17.758   6.657  21.688  0.00  0.00    -0.266 N 
ATOM     19  C   UNL     1      16.667   6.967  20.871  0.00  0.00    +0.304 C 
ATOM     31  H   UNL     1      15.502   6.181  22.415  0.00  0.00    +0.150 HD
ATOM     32  H   UNL     1      17.548   6.255  22.598  0.00  0.00    +0.156 HD
BRANCH   9  22
ATOM     22  C   UNL     1      19.132   6.844  21.408  0.00  0.00    +0.077 A 
ATOM     23  C   UNL     1      19.784   8.014  21.797  0.00  0.00    +0.141 A 
ATOM     24  C   UNL     1      19.834   5.845  20.734  0.00  0.00    +0.027 A 
ATOM     25  C   UNL     1      21.139   8.185  21.513  0.00  0.00    +0.047 A 
ATOM     26  C   UNL     1      21.189   6.015  20.450  0.00  0.00    +0.002 A 
ATOM     28  C   UNL     1      21.842   7.185  20.839  0.00  0.00    +0.004 A 
BRANCH  23   6
ATOM      6  O   UNL     1      19.116   9.003  22.455  0.00  0.00    -0.493 OA
ATOM     29  C   UNL     1      19.855  10.180  22.777  0.00  0.00    +0.277 C 
ENDBRANCH  23   6
ENDBRANCH   9  22
ENDBRANCH  16   7
ENDBRANCH  11  16
TORSDOF 9
ENDMDL
MODEL 6
REMARK VINA RESULT:      -6.3     27.769     30.343
REMARK  Name = 75536283
REMARK  11 active torsions:
REMARK  status: ('A' for Active; 'I' for Inactive)
REMARK    1  A    between atoms: O_2  and  C_12
REMARK    2  A    between atoms: O_5  and  C_21
REMARK    3  A    between atoms: O_5  and  C_27
REMARK    4  A    between atoms: O_6  and  C_23
REMARK    5  A    between atoms: O_6  and  C_29
REMARK    6  A    between atoms: N_7  and  C_16
REMARK    7  A    between atoms: N_9  and  C_22
REMARK    8  A    between atoms: C_10  and  C_15
REMARK    9  A    between atoms: C_11  and  C_16
REMARK   10  A    between atoms: C_15  and  C_17
REMARK   11  A    between atoms: C_20  and  C_21
REMARK                            x       y       z     vdW  Elec       q    Type
REMARK                         _______ _______ _______ _____ _____    ______ ____
ROOT
ATOM      1  O   UNL     1      -7.060 -11.727  17.312  0.00  0.00    -0.369 OA
ATOM     10  C   UNL     1      -6.540 -10.441  16.963  0.00  0.00    +0.125 C 
ATOM     11  C   UNL     1      -6.444 -12.346  18.449  0.00  0.00    +0.164 C 
ATOM     12  C   UNL     1      -4.924 -12.458  18.269  0.00  0.00    +0.145 C 
ATOM     13  C   UNL     1      -5.044 -10.529  16.660  0.00  0.00    +0.034 C 
ATOM     14  C   UNL     1      -4.291 -11.137  17.839  0.00  0.00    +0.036 C 
ENDROOT
BRANCH  12   2
ATOM      2  O   UNL     1      -4.651 -13.425  17.252  0.00  0.00    -0.389 OA
ATOM     30  H   UNL     1      -4.017 -14.064  17.618  0.00  0.00    +0.210 HD
ENDBRANCH  12   2
BRANCH  10  15
ATOM     15  C   UNL     1      -7.313  -9.949  15.745  0.00  0.00    +0.090 C 
BRANCH  15  17
ATOM      3  O   UNL     1      -9.715  -7.830  17.395  0.00  0.00    -0.357 OA
ATOM      8  N   UNL     1      -8.539  -8.570  17.372  0.00  0.00    -0.083 NA
ATOM     17  C   UNL     1      -8.476  -9.080  16.138  0.00  0.00    +0.086 A 
ATOM     18  C   UNL     1      -9.574  -8.699  15.347  0.00  0.00    +0.073 A 
ATOM     20  C   UNL     1     -10.323  -7.915  16.184  0.00  0.00    +0.163 A 
BRANCH  20  21
ATOM     21  C   UNL     1     -11.588  -7.187  16.033  0.00  0.00    +0.236 C 
BRANCH  21   5
ATOM      5  O   UNL     1     -11.340  -5.841  15.619  0.00  0.00    -0.375 OA
ATOM     27  C   UNL     1     -11.943  -5.571  14.364  0.00  0.00    +0.194 C 
ENDBRANCH  21   5
ENDBRANCH  20  21
ENDBRANCH  15  17
ENDBRANCH  10  15
BRANCH  11  16
ATOM     16  C   UNL     1      -6.842 -11.638  19.743  0.00  0.00    +0.140 C 
BRANCH  16   7
ATOM      4  O   UNL     1      -9.617 -12.285  20.038  0.00  0.00    -0.253 OA
ATOM      7  N   UNL     1      -7.951 -10.761  19.527  0.00  0.00    -0.297 N 
ATOM      9  N   UNL     1     -10.155 -10.087  19.411  0.00  0.00    -0.266 N 
ATOM     19  C   UNL     1      -9.292 -11.150  19.692  0.00  0.00    +0.304 C 
ATOM     31  H   UNL     1      -7.762  -9.821  19.194  0.00  0.00    +0.150 HD
ATOM     32  H   UNL     1      -9.722  -9.207  19.143  0.00  0.00    +0.156 HD
BRANCH   9  22
ATOM     22  C   UNL     1     -11.569 -10.079  19.461  0.00  0.00    +0.077 A 
ATOM     23  C   UNL     1     -12.322 -10.450  18.346  0.00  0.00    +0.141 A 
ATOM     24  C   UNL     1     -12.208  -9.694  20.639  0.00  0.00    +0.027 A 
ATOM     25  C   UNL     1     -13.715 -10.436  18.411  0.00  0.00    +0.047 A 
ATOM     26  C   UNL     1     -13.602  -9.680  20.703  0.00  0.00    +0.002 A 
ATOM     28  C   UNL     1     -14.355 -10.050  19.589  0.00  0.00    +0.004 A 
BRANCH  23   6
ATOM      6  O   UNL     1     -11.716 -10.828  17.186  0.00  0.00    -0.493 OA
ATOM     29  C   UNL     1     -12.549 -10.966  16.036  0.00  0.00    +0.277 C 
ENDBRANCH  23   6
ENDBRANCH   9  22
ENDBRANCH  16   7
ENDBRANCH  11  16
TORSDOF 9
ENDMDL
MODEL 7
REMARK VINA RESULT:      -6.2     28.117     32.033
REMARK  Name = 75536283
REMARK  11 active torsions:
REMARK  status: ('A' for Active; 'I' for Inactive)
REMARK    1  A    between atoms: O_2  and  C_12
REMARK    2  A    between atoms: O_5  and  C_21
REMARK    3  A    between atoms: O_5  and  C_27
REMARK    4  A    between atoms: O_6  and  C_23
REMARK    5  A    between atoms: O_6  and  C_29
REMARK    6  A    between atoms: N_7  and  C_16
REMARK    7  A    between atoms: N_9  and  C_22
REMARK    8  A    between atoms: C_10  and  C_15
REMARK    9  A    between atoms: C_11  and  C_16
REMARK   10  A    between atoms: C_15  and  C_17
REMARK   11  A    between atoms: C_20  and  C_21
REMARK                            x       y       z     vdW  Elec       q    Type
REMARK                         _______ _______ _______ _____ _____    ______ ____
ROOT
ATOM      1  O   UNL     1     -10.817   8.822  20.157  0.00  0.00    -0.369 OA
ATOM     10  C   UNL     1     -11.798   7.900  19.674  0.00  0.00    +0.125 C 
ATOM     11  C   UNL     1     -10.818  10.105  19.517  0.00  0.00    +0.164 C 
ATOM     12  C   UNL     1     -10.666   9.970  17.996  0.00  0.00    +0.145 C 
ATOM     13  C   UNL     1     -11.609   7.645  18.179  0.00  0.00    +0.034 C 
ATOM     14  C   UNL     1     -11.642   8.958  17.401  0.00  0.00    +0.036 C 
ENDROOT
BRANCH  12   2
ATOM      2  O   UNL     1      -9.340   9.521  17.703  0.00  0.00    -0.389 OA
ATOM     30  H   UNL     1      -8.726  10.222  17.979  0.00  0.00    +0.210 HD
ENDBRANCH  12   2
BRANCH  10  15
ATOM     15  C   UNL     1     -11.644   6.608  20.468  0.00  0.00    +0.090 C 
BRANCH  15  17
ATOM      3  O   UNL     1     -14.972   6.379  21.830  0.00  0.00    -0.357 OA
ATOM      8  N   UNL     1     -14.027   6.942  20.981  0.00  0.00    -0.083 NA
ATOM     17  C   UNL     1     -12.899   6.265  21.222  0.00  0.00    +0.086 A 
ATOM     18  C   UNL     1     -13.072   5.273  22.204  0.00  0.00    +0.073 A 
ATOM     20  C   UNL     1     -14.392   5.387  22.552  0.00  0.00    +0.163 A 
BRANCH  20  21
ATOM     21  C   UNL     1     -15.255   4.680  23.507  0.00  0.00    +0.236 C 
BRANCH  21   5
ATOM      5  O   UNL     1     -15.828   3.521  22.894  0.00  0.00    -0.375 OA
ATOM     27  C   UNL     1     -17.138   3.279  23.381  0.00  0.00    +0.194 C 
ENDBRANCH  21   5
ENDBRANCH  20  21
ENDBRANCH  15  17
ENDBRANCH  10  15
BRANCH  11  16
ATOM     16  C   UNL     1     -12.043  10.922  19.924  0.00  0.00    +0.140 C 
BRANCH  16   7
ATOM      4  O   UNL     1     -12.878   9.793  22.421  0.00  0.00    -0.253 OA
ATOM      7  N   UNL     1     -11.867  11.496  21.223  0.00  0.00    -0.297 N 
ATOM      9  N   UNL     1     -11.999  11.672  23.520  0.00  0.00    -0.266 N 
ATOM     19  C   UNL     1     -12.306  10.881  22.409  0.00  0.00    +0.304 C 
ATOM     31  H   UNL     1     -11.444  12.416  21.287  0.00  0.00    +0.150 HD
ATOM     32  H   UNL     1     -11.513  12.547  23.337  0.00  0.00    +0.156 HD
BRANCH   9  22
ATOM     22  C   UNL     1     -12.273  11.402  24.881  0.00  0.00    +0.077 A 
ATOM     23  C   UNL     1     -13.505  11.745  25.439  0.00  0.00    +0.141 A 
ATOM     24  C   UNL     1     -11.297  10.789  25.666  0.00  0.00    +0.027 A 
ATOM     25  C   UNL     1     -13.760  11.474  26.783  0.00  0.00    +0.047 A 
ATOM     26  C   UNL     1     -11.552  10.518  27.010  0.00  0.00    +0.002 A 
ATOM     28  C   UNL     1     -12.784  10.860  27.570  0.00  0.00    +0.004 A 
BRANCH  23   6
ATOM      6  O   UNL     1     -14.472  12.345  24.689  0.00  0.00    -0.493 OA
ATOM     29  C   UNL     1     -14.713  13.730  24.933  0.00  0.00    +0.277 C 
ENDBRANCH  23   6
ENDBRANCH   9  22
ENDBRANCH  16   7
ENDBRANCH  11  16
TORSDOF 9
ENDMDL
MODEL 8
REMARK VINA RESULT:      -6.2      2.957     10.136
REMARK  Name = 75536283
REMARK  11 active torsions:
REMARK  status: ('A' for Active; 'I' for Inactive)
REMARK    1  A    between atoms: O_2  and  C_12
REMARK    2  A    between atoms: O_5  and  C_21
REMARK    3  A    between atoms: O_5  and  C_27
REMARK    4  A    between atoms: O_6  and  C_23
REMARK    5  A    between atoms: O_6  and  C_29
REMARK    6  A    between atoms: N_7  and  C_16
REMARK    7  A    between atoms: N_9  and  C_22
REMARK    8  A    between atoms: C_10  and  C_15
REMARK    9  A    between atoms: C_11  and  C_16
REMARK   10  A    between atoms: C_15  and  C_17
REMARK   11  A    between atoms: C_20  and  C_21
REMARK                            x       y       z     vdW  Elec       q    Type
REMARK                         _______ _______ _______ _____ _____    ______ ____
ROOT
ATOM      1  O   UNL     1      10.389   7.311   6.192  0.00  0.00    -0.369 OA
ATOM     10  C   UNL     1       9.173   7.809   6.755  0.00  0.00    +0.125 C 
ATOM     11  C   UNL     1      10.548   5.888   6.246  0.00  0.00    +0.164 C 
ATOM     12  C   UNL     1      10.417   5.366   7.684  0.00  0.00    +0.145 C 
ATOM     13  C   UNL     1       9.056   7.411   8.226  0.00  0.00    +0.034 C 
ATOM     14  C   UNL     1       9.168   5.897   8.383  0.00  0.00    +0.036 C 
ENDROOT
BRANCH  12   2
ATOM      2  O   UNL     1      11.555   5.796   8.436  0.00  0.00    -0.389 OA
ATOM     30  H   UNL     1      11.658   6.751   8.289  0.00  0.00    +0.210 HD
ENDBRANCH  12   2
BRANCH  10  15
ATOM     15  C   UNL     1       9.185   9.326   6.603  0.00  0.00    +0.090 C 
BRANCH  15  17
ATOM      3  O   UNL     1      11.729  10.667   8.775  0.00  0.00    -0.357 OA
ATOM      8  N   UNL     1      11.319   9.982   7.638  0.00  0.00    -0.083 NA
ATOM     17  C   UNL     1       9.983   9.988   7.694  0.00  0.00    +0.086 A 
ATOM     18  C   UNL     1       9.500  10.656   8.832  0.00  0.00    +0.073 A 
ATOM     20  C   UNL     1      10.637  11.063   9.478  0.00  0.00    +0.163 A 
BRANCH  20  21
ATOM     21  C   UNL     1      10.890  11.806  10.719  0.00  0.00    +0.236 C 
BRANCH  21   5
ATOM      5  O   UNL     1      12.284  11.779  11.038  0.00  0.00    -0.375 OA
ATOM     27  C   UNL     1      12.798  13.091  11.200  0.00  0.00    +0.194 C 
ENDBRANCH  21   5
ENDBRANCH  20  21
ENDBRANCH  15  17
ENDBRANCH  10  15
BRANCH  11  16
ATOM     16  C   UNL     1       9.603   5.190   5.269  0.00  0.00    +0.140 C 
BRANCH  16   7
ATOM      4  O   UNL     1      11.146   5.987   2.992  0.00  0.00    -0.253 OA
ATOM      7  N   UNL     1      10.326   4.330   4.383  0.00  0.00    -0.297 N 
ATOM      9  N   UNL     1      11.660   3.730   2.599  0.00  0.00    -0.266 N 
ATOM     19  C   UNL     1      11.064   4.795   3.281  0.00  0.00    +0.304 C 
ATOM     31  H   UNL     1      10.264   3.328   4.532  0.00  0.00    +0.150 HD
ATOM     32  H   UNL     1      11.497   2.799   2.975  0.00  0.00    +0.156 HD
BRANCH   9  22
ATOM     22  C   UNL     1      12.478   3.786   1.446  0.00  0.00    +0.077 A 
ATOM     23  C   UNL     1      11.910   3.916   0.179  0.00  0.00    +0.141 A 
ATOM     24  C   UNL     1      13.863   3.707   1.586  0.00  0.00    +0.027 A 
ATOM     25  C   UNL     1      12.728   3.969  -0.949  0.00  0.00    +0.047 A 
ATOM     26  C   UNL     1      14.682   3.759   0.458  0.00  0.00    +0.002 A 
ATOM     28  C   UNL     1      14.115   3.889  -0.810  0.00  0.00    +0.004 A 
BRANCH  23   6
ATOM      6  O   UNL     1      10.558   3.995   0.021  0.00  0.00    -0.493 OA
ATOM     29  C   UNL     1      10.028   5.250  -0.402  0.00  0.00    +0.277 C 
ENDBRANCH  23   6
ENDBRANCH   9  22
ENDBRANCH  16   7
ENDBRANCH  11  16
TORSDOF 9
ENDMDL
MODEL 9
REMARK VINA RESULT:      -6.1      2.534      8.262
REMARK  Name = 75536283
REMARK  11 active torsions:
REMARK  status: ('A' for Active; 'I' for Inactive)
REMARK    1  A    between atoms: O_2  and  C_12
REMARK    2  A    between atoms: O_5  and  C_21
REMARK    3  A    between atoms: O_5  and  C_27
REMARK    4  A    between atoms: O_6  and  C_23
REMARK    5  A    between atoms: O_6  and  C_29
REMARK    6  A    between atoms: N_7  and  C_16
REMARK    7  A    between atoms: N_9  and  C_22
REMARK    8  A    between atoms: C_10  and  C_15
REMARK    9  A    between atoms: C_11  and  C_16
REMARK   10  A    between atoms: C_15  and  C_17
REMARK   11  A    between atoms: C_20  and  C_21
REMARK                            x       y       z     vdW  Elec       q    Type
REMARK                         _______ _______ _______ _____ _____    ______ ____
ROOT
ATOM      1  O   UNL     1      10.395   7.195   6.249  0.00  0.00    -0.369 OA
ATOM     10  C   UNL     1       9.185   7.699   6.821  0.00  0.00    +0.125 C 
ATOM     11  C   UNL     1      10.508   5.766   6.223  0.00  0.00    +0.164 C 
ATOM     12  C   UNL     1      10.334   5.167   7.625  0.00  0.00    +0.145 C 
ATOM     13  C   UNL     1       9.030   7.220   8.264  0.00  0.00    +0.034 C 
ATOM     14  C   UNL     1       9.091   5.697   8.334  0.00  0.00    +0.036 C 
ENDROOT
BRANCH  12   2
ATOM      2  O   UNL     1      11.471   5.515   8.419  0.00  0.00    -0.389 OA
ATOM     30  H   UNL     1      11.573   4.830   9.101  0.00  0.00    +0.210 HD
ENDBRANCH  12   2
BRANCH  10  15
ATOM     15  C   UNL     1       9.248   9.221   6.758  0.00  0.00    +0.090 C 
BRANCH  15  17
ATOM      3  O   UNL     1       7.520  11.240   4.324  0.00  0.00    -0.357 OA
ATOM      8  N   UNL     1       8.321  11.087   5.449  0.00  0.00    -0.083 NA
ATOM     17  C   UNL     1       8.433   9.765   5.616  0.00  0.00    +0.086 A 
ATOM     18  C   UNL     1       7.730   9.042   4.637  0.00  0.00    +0.073 A 
ATOM     20  C   UNL     1       7.174  10.017   3.850  0.00  0.00    +0.163 A 
BRANCH  20  21
ATOM     21  C   UNL     1       6.321   9.993   2.655  0.00  0.00    +0.236 C 
BRANCH  21   5
ATOM      5  O   UNL     1       6.952   9.248   1.610  0.00  0.00    -0.375 OA
ATOM     27  C   UNL     1       7.790  10.078   0.823  0.00  0.00    +0.194 C 
ENDBRANCH  21   5
ENDBRANCH  20  21
ENDBRANCH  15  17
ENDBRANCH  10  15
BRANCH  11  16
ATOM     16  C   UNL     1       9.558   5.157   5.192  0.00  0.00    +0.140 C 
BRANCH  16   7
ATOM      4  O   UNL     1      11.195   5.967   2.985  0.00  0.00    -0.253 OA
ATOM      7  N   UNL     1      10.263   4.298   4.291  0.00  0.00    -0.297 N 
ATOM      9  N   UNL     1      11.615   3.705   2.517  0.00  0.00    -0.266 N 
ATOM     19  C   UNL     1      11.051   4.770   3.225  0.00  0.00    +0.304 C 
ATOM     31  H   UNL     1      10.152   3.295   4.399  0.00  0.00    +0.150 HD
ATOM     32  H   UNL     1      11.400   2.769   2.853  0.00  0.00    +0.156 HD
BRANCH   9  22
ATOM     22  C   UNL     1      12.464   3.766   1.387  0.00  0.00    +0.077 A 
ATOM     23  C   UNL     1      11.930   3.887   0.104  0.00  0.00    +0.141 A 
ATOM     24  C   UNL     1      13.845   3.703   1.566  0.00  0.00    +0.027 A 
ATOM     25  C   UNL     1      12.779   3.945  -1.001  0.00  0.00    +0.047 A 
ATOM     26  C   UNL     1      14.694   3.760   0.461  0.00  0.00    +0.002 A 
ATOM     28  C   UNL     1      14.162   3.881  -0.823  0.00  0.00    +0.004 A 
BRANCH  23   6
ATOM      6  O   UNL     1      10.583   3.950  -0.092  0.00  0.00    -0.493 OA
ATOM     29  C   UNL     1      10.034   5.229  -0.405  0.00  0.00    +0.277 C 
ENDBRANCH  23   6
ENDBRANCH   9  22
ENDBRANCH  16   7
ENDBRANCH  11  16
TORSDOF 9
ENDMDL
MODEL 10
REMARK VINA RESULT:      -6.0     24.241     26.683
REMARK  Name = 75536283
REMARK  11 active torsions:
REMARK  status: ('A' for Active; 'I' for Inactive)
REMARK    1  A    between atoms: O_2  and  C_12
REMARK    2  A    between atoms: O_5  and  C_21
REMARK    3  A    between atoms: O_5  and  C_27
REMARK    4  A    between atoms: O_6  and  C_23
REMARK    5  A    between atoms: O_6  and  C_29
REMARK    6  A    between atoms: N_7  and  C_16
REMARK    7  A    between atoms: N_9  and  C_22
REMARK    8  A    between atoms: C_10  and  C_15
REMARK    9  A    between atoms: C_11  and  C_16
REMARK   10  A    between atoms: C_15  and  C_17
REMARK   11  A    between atoms: C_20  and  C_21
REMARK                            x       y       z     vdW  Elec       q    Type
REMARK                         _______ _______ _______ _____ _____    ______ ____
ROOT
ATOM      1  O   UNL     1      -4.094 -11.487  13.668  0.00  0.00    -0.369 OA
ATOM     10  C   UNL     1      -2.929 -10.667  13.543  0.00  0.00    +0.125 C 
ATOM     11  C   UNL     1      -4.890 -11.241  14.834  0.00  0.00    +0.164 C 
ATOM     12  C   UNL     1      -4.056 -11.365  16.116  0.00  0.00    +0.145 C 
ATOM     13  C   UNL     1      -2.009 -10.850  14.749  0.00  0.00    +0.034 C 
ATOM     14  C   UNL     1      -2.759 -10.563  16.046  0.00  0.00    +0.036 C 
ENDROOT
BRANCH  12   2
ATOM      2  O   UNL     1      -3.709 -12.740  16.308  0.00  0.00    -0.389 OA
ATOM     30  H   UNL     1      -4.099 -13.025  17.151  0.00  0.00    +0.210 HD
ENDBRANCH  12   2
BRANCH  10  15
ATOM     15  C   UNL     1      -2.222 -11.070  12.254  0.00  0.00    +0.090 C 
BRANCH  15  17
ATOM      3  O   UNL     1      -3.389  -9.037   9.517  0.00  0.00    -0.357 OA
ATOM      8  N   UNL     1      -2.603  -9.250  10.643  0.00  0.00    -0.083 NA
ATOM     17  C   UNL     1      -2.899 -10.491  11.042  0.00  0.00    +0.086 A 
ATOM     18  C   UNL     1      -3.857 -11.103  10.214  0.00  0.00    +0.073 A 
ATOM     20  C   UNL     1      -4.131 -10.147   9.272  0.00  0.00    +0.163 A 
BRANCH  20  21
ATOM     21  C   UNL     1      -5.026 -10.094   8.109  0.00  0.00    +0.236 C 
BRANCH  21   5
ATOM      5  O   UNL     1      -5.122 -11.383   7.498  0.00  0.00    -0.375 OA
ATOM     27  C   UNL     1      -6.042 -11.371   6.418  0.00  0.00    +0.194 C 
ENDBRANCH  21   5
ENDBRANCH  20  21
ENDBRANCH  15  17
ENDBRANCH  10  15
BRANCH  11  16
ATOM     16  C   UNL     1      -5.625  -9.905  14.728  0.00  0.00    +0.140 C 
BRANCH  16   7
ATOM      4  O   UNL     1      -8.247 -10.746  15.516  0.00  0.00    -0.253 OA
ATOM      7  N   UNL     1      -6.292  -9.588  15.954  0.00  0.00    -0.297 N 
ATOM      9  N   UNL     1      -7.976  -9.572  17.531  0.00  0.00    -0.266 N 
ATOM     19  C   UNL     1      -7.585 -10.039  16.273  0.00  0.00    +0.304 C 
ATOM     31  H   UNL     1      -5.824  -8.968  16.607  0.00  0.00    +0.150 HD
ATOM     32  H   UNL     1      -7.303  -8.999  18.034  0.00  0.00    +0.156 HD
BRANCH   9  22
ATOM     22  C   UNL     1      -9.199  -9.806  18.203  0.00  0.00    +0.077 A 
ATOM     23  C   UNL     1      -9.238 -10.598  19.350  0.00  0.00    +0.141 A 
ATOM     24  C   UNL     1     -10.371  -9.238  17.705  0.00  0.00    +0.027 A 
ATOM     25  C   UNL     1     -10.452 -10.822  20.000  0.00  0.00    +0.047 A 
ATOM     26  C   UNL     1     -11.585  -9.461  18.355  0.00  0.00    +0.002 A 
ATOM     28  C   UNL     1     -11.626 -10.253  19.503  0.00  0.00    +0.004 A 
BRANCH  23   6
ATOM      6  O   UNL     1      -8.104 -11.163  19.852  0.00  0.00    -0.493 OA
ATOM     29  C   UNL     1      -7.899 -12.550  19.585  0.00  0.00    +0.277 C 
ENDBRANCH  23   6
ENDBRANCH   9  22
ENDBRANCH  16   7
ENDBRANCH  11  16
TORSDOF 9
ENDMDL
