MODEL 1
REMARK VINA RESULT:      -7.6      0.000      0.000
REMARK  Name = 40778211
REMARK  10 active torsions:
REMARK  status: ('A' for Active; 'I' for Inactive)
REMARK    1  A    between atoms: O_3  and  C_12
REMARK    2  A    between atoms: O_4  and  C_13
REMARK    3  A    between atoms: O_6  and  C_24
REMARK    4  A    between atoms: O_6  and  C_32
REMARK    5  A    between atoms: N_9  and  C_22
REMARK    6  A    between atoms: N_10  and  C_16
REMARK    7  A    between atoms: C_11  and  C_15
REMARK    8  A    between atoms: C_14  and  C_16
REMARK    9  A    between atoms: C_15  and  C_17
REMARK   10  A    between atoms: C_23  and  C_26
REMARK                            x       y       z     vdW  Elec       q    Type
REMARK                         _______ _______ _______ _____ _____    ______ ____
ROOT
ATOM      2  O   UNL     1     -15.420   1.324  31.842  0.00  0.00    -0.366 OA
ATOM     11  C   UNL     1     -15.330   1.263  30.399  0.00  0.00    +0.159 C 
ATOM     12  C   UNL     1     -13.985   1.877  30.026  0.00  0.00    +0.175 C 
ATOM     13  C   UNL     1     -13.757   2.852  31.163  0.00  0.00    +0.176 C 
ATOM     14  C   UNL     1     -14.299   2.071  32.348  0.00  0.00    +0.167 C 
ENDROOT
BRANCH  12   3
ATOM      3  O   UNL     1     -13.003   0.841  30.058  0.00  0.00    -0.387 OA
ATOM     36  H   UNL     1     -13.050   0.370  29.209  0.00  0.00    +0.210 HD
ENDBRANCH  12   3
BRANCH  13   4
ATOM      4  O   UNL     1     -12.400   3.202  31.335  0.00  0.00    -0.387 OA
ATOM     37  H   UNL     1     -11.901   2.377  31.466  0.00  0.00    +0.210 HD
ENDBRANCH  13   4
BRANCH  11  15
ATOM     15  C   UNL     1     -16.514   2.031  29.827  0.00  0.00    +0.130 C 
BRANCH  15  17
ATOM      5  O   UNL     1     -17.434   0.275  28.521  0.00  0.00    -0.276 OA
ATOM      8  N   UNL     1     -16.765   2.184  27.378  0.00  0.00    -0.298 N 
ATOM      9  N   UNL     1     -16.223   3.615  24.920  0.00  0.00    -0.324 N 
ATOM     17  C   UNL     1     -16.948   1.407  28.523  0.00  0.00    +0.218 C 
ATOM     18  C   UNL     1     -16.186   3.530  27.383  0.00  0.00    +0.126 C 
ATOM     19  C   UNL     1     -17.152   1.649  26.075  0.00  0.00    +0.126 C 
ATOM     20  C   UNL     1     -16.566   4.343  26.144  0.00  0.00    +0.124 C 
ATOM     21  C   UNL     1     -16.240   2.149  24.957  0.00  0.00    +0.124 C 
BRANCH   9  22
ATOM     22  C   UNL     1     -15.925   4.293  23.740  0.00  0.00    +0.072 A 
ATOM     24  C   UNL     1     -16.913   4.518  22.782  0.00  0.00    +0.141 A 
ATOM     25  C   UNL     1     -14.625   4.749  23.523  0.00  0.00    +0.027 A 
ATOM     27  C   UNL     1     -16.600   5.199  21.605  0.00  0.00    +0.047 A 
ATOM     28  C   UNL     1     -14.313   5.430  22.346  0.00  0.00    +0.002 A 
ATOM     29  C   UNL     1     -15.301   5.655  21.387  0.00  0.00    +0.004 A 
BRANCH  24   6
ATOM      6  O   UNL     1     -18.189   4.079  22.975  0.00  0.00    -0.493 OA
ATOM     32  C   UNL     1     -18.642   3.017  22.136  0.00  0.00    +0.277 C 
ENDBRANCH  24   6
ENDBRANCH   9  22
ENDBRANCH  15  17
ENDBRANCH  11  15
BRANCH  14  16
ATOM     16  C   UNL     1     -14.752   2.956  33.495  0.00  0.00    +0.138 C 
BRANCH  16  10
ATOM      7  O   UNL     1     -14.911   5.040  35.463  0.00  0.00    -0.270 OA
ATOM     10  N   UNL     1     -14.159   4.257  33.412  0.00  0.00    -0.309 N 
ATOM     23  C   UNL     1     -14.287   5.211  34.419  0.00  0.00    +0.244 C 
ATOM     38  H   UNL     1     -13.583   4.446  32.598  0.00  0.00    +0.149 HD
BRANCH  23  26
ATOM      1  F   UNL     1     -12.667   8.639  31.373  0.00  0.00    -0.205 F 
ATOM     26  C   UNL     1     -13.634   6.522  34.170  0.00  0.00    +0.039 A 
ATOM     30  C   UNL     1     -13.453   6.974  32.864  0.00  0.00    +0.051 A 
ATOM     31  C   UNL     1     -13.202   7.301  35.243  0.00  0.00    +0.013 A 
ATOM     33  C   UNL     1     -12.841   8.205  32.629  0.00  0.00    +0.124 A 
ATOM     34  C   UNL     1     -12.589   8.532  35.010  0.00  0.00    +0.004 A 
ATOM     35  C   UNL     1     -12.408   8.984  33.702  0.00  0.00    +0.038 A 
ENDBRANCH  23  26
ENDBRANCH  16  10
ENDBRANCH  14  16
TORSDOF 9
ENDMDL
MODEL 2
REMARK VINA RESULT:      -7.4      3.697      9.804
REMARK  Name = 40778211
REMARK  10 active torsions:
REMARK  status: ('A' for Active; 'I' for Inactive)
REMARK    1  A    between atoms: O_3  and  C_12
REMARK    2  A    between atoms: O_4  and  C_13
REMARK    3  A    between atoms: O_6  and  C_24
REMARK    4  A    between atoms: O_6  and  C_32
REMARK    5  A    between atoms: N_9  and  C_22
REMARK    6  A    between atoms: N_10  and  C_16
REMARK    7  A    between atoms: C_11  and  C_15
REMARK    8  A    between atoms: C_14  and  C_16
REMARK    9  A    between atoms: C_15  and  C_17
REMARK   10  A    between atoms: C_23  and  C_26
REMARK                            x       y       z     vdW  Elec       q    Type
REMARK                         _______ _______ _______ _____ _____    ______ ____
ROOT
ATOM      2  O   UNL     1     -16.094   3.049  23.183  0.00  0.00    -0.366 OA
ATOM     11  C   UNL     1     -17.514   2.805  23.054  0.00  0.00    +0.159 C 
ATOM     12  C   UNL     1     -18.046   3.865  22.096  0.00  0.00    +0.175 C 
ATOM     13  C   UNL     1     -17.082   5.011  22.326  0.00  0.00    +0.176 C 
ATOM     14  C   UNL     1     -15.766   4.271  22.499  0.00  0.00    +0.167 C 
ENDROOT
BRANCH  12   3
ATOM      3  O   UNL     1     -17.914   3.366  20.765  0.00  0.00    -0.387 OA
ATOM     36  H   UNL     1     -18.237   4.055  20.162  0.00  0.00    +0.210 HD
ENDBRANCH  12   3
BRANCH  13   4
ATOM      4  O   UNL     1     -17.037   5.927  21.254  0.00  0.00    -0.387 OA
ATOM     37  H   UNL     1     -17.023   5.411  20.429  0.00  0.00    +0.210 HD
ENDBRANCH  13   4
BRANCH  11  15
ATOM     15  C   UNL     1     -18.130   2.894  24.443  0.00  0.00    +0.130 C 
BRANCH  15  17
ATOM      5  O   UNL     1     -17.980   0.557  24.834  0.00  0.00    -0.276 OA
ATOM      8  N   UNL     1     -17.096   1.947  26.473  0.00  0.00    -0.298 N 
ATOM      9  N   UNL     1     -15.971   2.374  29.105  0.00  0.00    -0.324 N 
ATOM     17  C   UNL     1     -17.734   1.688  25.259  0.00  0.00    +0.218 C 
ATOM     18  C   UNL     1     -16.806   3.292  26.976  0.00  0.00    +0.126 C 
ATOM     19  C   UNL     1     -16.689   0.833  27.324  0.00  0.00    +0.126 C 
ATOM     20  C   UNL     1     -15.682   3.306  28.013  0.00  0.00    +0.124 C 
ATOM     21  C   UNL     1     -16.777   1.186  28.808  0.00  0.00    +0.124 C 
BRANCH   9  22
ATOM     22  C   UNL     1     -15.465   2.587  30.386  0.00  0.00    +0.072 A 
ATOM     24  C   UNL     1     -14.252   2.020  30.774  0.00  0.00    +0.141 A 
ATOM     25  C   UNL     1     -16.184   3.379  31.282  0.00  0.00    +0.027 A 
ATOM     27  C   UNL     1     -13.758   2.242  32.059  0.00  0.00    +0.047 A 
ATOM     28  C   UNL     1     -15.688   3.602  32.567  0.00  0.00    +0.002 A 
ATOM     29  C   UNL     1     -14.475   3.033  32.956  0.00  0.00    +0.004 A 
BRANCH  24   6
ATOM      6  O   UNL     1     -13.536   1.242  29.914  0.00  0.00    -0.493 OA
ATOM     32  C   UNL     1     -13.623  -0.171  30.092  0.00  0.00    +0.277 C 
ENDBRANCH  24   6
ENDBRANCH   9  22
ENDBRANCH  15  17
ENDBRANCH  11  15
BRANCH  14  16
ATOM     16  C   UNL     1     -14.741   5.048  23.306  0.00  0.00    +0.138 C 
BRANCH  16  10
ATOM      7  O   UNL     1     -14.938   7.824  22.604  0.00  0.00    -0.270 OA
ATOM     10  N   UNL     1     -13.854   5.778  22.450  0.00  0.00    -0.309 N 
ATOM     23  C   UNL     1     -14.025   7.130  22.163  0.00  0.00    +0.244 C 
ATOM     38  H   UNL     1     -13.046   5.278  22.094  0.00  0.00    +0.149 HD
BRANCH  23  26
ATOM      1  F   UNL     1     -10.894   6.765  18.460  0.00  0.00    -0.205 F 
ATOM     26  C   UNL     1     -13.035   7.737  21.237  0.00  0.00    +0.039 A 
ATOM     30  C   UNL     1     -12.417   6.951  20.264  0.00  0.00    +0.051 A 
ATOM     31  C   UNL     1     -12.722   9.092  21.340  0.00  0.00    +0.013 A 
ATOM     33  C   UNL     1     -11.487   7.520  19.394  0.00  0.00    +0.124 A 
ATOM     34  C   UNL     1     -11.792   9.662  20.471  0.00  0.00    +0.004 A 
ATOM     35  C   UNL     1     -11.174   8.876  19.497  0.00  0.00    +0.038 A 
ENDBRANCH  23  26
ENDBRANCH  16  10
ENDBRANCH  14  16
TORSDOF 9
ENDMDL
MODEL 3
REMARK VINA RESULT:      -7.2     18.433     21.448
REMARK  Name = 40778211
REMARK  10 active torsions:
REMARK  status: ('A' for Active; 'I' for Inactive)
REMARK    1  A    between atoms: O_3  and  C_12
REMARK    2  A    between atoms: O_4  and  C_13
REMARK    3  A    between atoms: O_6  and  C_24
REMARK    4  A    between atoms: O_6  and  C_32
REMARK    5  A    between atoms: N_9  and  C_22
REMARK    6  A    between atoms: N_10  and  C_16
REMARK    7  A    between atoms: C_11  and  C_15
REMARK    8  A    between atoms: C_14  and  C_16
REMARK    9  A    between atoms: C_15  and  C_17
REMARK   10  A    between atoms: C_23  and  C_26
REMARK                            x       y       z     vdW  Elec       q    Type
REMARK                         _______ _______ _______ _____ _____    ______ ____
ROOT
ATOM      2  O   UNL     1      -8.420 -12.243  19.114  0.00  0.00    -0.366 OA
ATOM     11  C   UNL     1      -6.978 -12.135  19.099  0.00  0.00    +0.159 C 
ATOM     12  C   UNL     1      -6.660 -10.667  18.830  0.00  0.00    +0.175 C 
ATOM     13  C   UNL     1      -7.865 -10.226  18.026  0.00  0.00    +0.176 C 
ATOM     14  C   UNL     1      -8.987 -10.981  18.718  0.00  0.00    +0.167 C 
ENDROOT
BRANCH  12   3
ATOM      3  O   UNL     1      -6.625  -9.987  20.084  0.00  0.00    -0.387 OA
ATOM     36  H   UNL     1      -6.658  -9.033  19.899  0.00  0.00    +0.210 HD
ENDBRANCH  12   3
BRANCH  13   4
ATOM      4  O   UNL     1      -8.073  -8.830  18.051  0.00  0.00    -0.387 OA
ATOM     37  H   UNL     1      -7.296  -8.412  17.641  0.00  0.00    +0.210 HD
ENDBRANCH  13   4
BRANCH  11  15
ATOM     15  C   UNL     1      -6.453 -13.066  18.014  0.00  0.00    +0.130 C 
BRANCH  15  17
ATOM      5  O   UNL     1      -4.137 -12.806  18.468  0.00  0.00    -0.276 OA
ATOM      8  N   UNL     1      -4.860 -12.186  16.348  0.00  0.00    -0.298 N 
ATOM      9  N   UNL     1      -4.408 -10.949  13.771  0.00  0.00    -0.324 N 
ATOM     17  C   UNL     1      -5.043 -12.676  17.642  0.00  0.00    +0.218 C 
ATOM     18  C   UNL     1      -5.939 -12.033  15.369  0.00  0.00    +0.126 C 
ATOM     19  C   UNL     1      -3.526 -11.781  15.914  0.00  0.00    +0.126 C 
ATOM     20  C   UNL     1      -5.428 -11.988  13.928  0.00  0.00    +0.124 C 
ATOM     21  C   UNL     1      -3.576 -10.613  14.930  0.00  0.00    +0.124 C 
BRANCH   9  22
ATOM     22  C   UNL     1      -4.205 -10.320  12.544  0.00  0.00    +0.072 A 
ATOM     24  C   UNL     1      -5.207  -9.537  11.973  0.00  0.00    +0.141 A 
ATOM     25  C   UNL     1      -2.985 -10.480  11.887  0.00  0.00    +0.027 A 
ATOM     27  C   UNL     1      -4.990  -8.913  10.745  0.00  0.00    +0.047 A 
ATOM     28  C   UNL     1      -2.768  -9.855  10.659  0.00  0.00    +0.002 A 
ATOM     29  C   UNL     1      -3.771  -9.072  10.087  0.00  0.00    +0.004 A 
BRANCH  24   6
ATOM      6  O   UNL     1      -6.407  -9.370  12.598  0.00  0.00    -0.493 OA
ATOM     32  C   UNL     1      -7.571  -9.354  11.773  0.00  0.00    +0.277 C 
ENDBRANCH  24   6
ENDBRANCH   9  22
ENDBRANCH  15  17
ENDBRANCH  11  15
BRANCH  14  16
ATOM     16  C   UNL     1     -10.192 -11.221  17.825  0.00  0.00    +0.138 C 
BRANCH  16  10
ATOM      7  O   UNL     1     -12.164  -9.281  18.588  0.00  0.00    -0.270 OA
ATOM     10  N   UNL     1     -10.547 -10.035  17.105  0.00  0.00    -0.309 N 
ATOM     23  C   UNL     1     -11.521  -9.144  17.551  0.00  0.00    +0.244 C 
ATOM     38  H   UNL     1     -10.015  -9.833  16.265  0.00  0.00    +0.149 HD
BRANCH  23  26
ATOM      1  F   UNL     1     -14.580  -6.418  14.932  0.00  0.00    -0.205 F 
ATOM     26  C   UNL     1     -11.792  -7.975  16.677  0.00  0.00    +0.039 A 
ATOM     30  C   UNL     1     -13.083  -7.741  16.206  0.00  0.00    +0.051 A 
ATOM     31  C   UNL     1     -10.755  -7.110  16.326  0.00  0.00    +0.013 A 
ATOM     33  C   UNL     1     -13.339  -6.643  15.385  0.00  0.00    +0.124 A 
ATOM     34  C   UNL     1     -11.009  -6.012  15.505  0.00  0.00    +0.004 A 
ATOM     35  C   UNL     1     -12.302  -5.778  15.034  0.00  0.00    +0.038 A 
ENDBRANCH  23  26
ENDBRANCH  16  10
ENDBRANCH  14  16
TORSDOF 9
ENDMDL
MODEL 4
REMARK VINA RESULT:      -7.2     32.723     36.124
REMARK  Name = 40778211
REMARK  10 active torsions:
REMARK  status: ('A' for Active; 'I' for Inactive)
REMARK    1  A    between atoms: O_3  and  C_12
REMARK    2  A    between atoms: O_4  and  C_13
REMARK    3  A    between atoms: O_6  and  C_24
REMARK    4  A    between atoms: O_6  and  C_32
REMARK    5  A    between atoms: N_9  and  C_22
REMARK    6  A    between atoms: N_10  and  C_16
REMARK    7  A    between atoms: C_11  and  C_15
REMARK    8  A    between atoms: C_14  and  C_16
REMARK    9  A    between atoms: C_15  and  C_17
REMARK   10  A    between atoms: C_23  and  C_26
REMARK                            x       y       z     vdW  Elec       q    Type
REMARK                         _______ _______ _______ _____ _____    ______ ____
ROOT
ATOM      2  O   UNL     1      11.008   6.804   7.441  0.00  0.00    -0.366 OA
ATOM     11  C   UNL     1      10.007   6.280   8.344  0.00  0.00    +0.159 C 
ATOM     12  C   UNL     1       9.670   4.879   7.844  0.00  0.00    +0.175 C 
ATOM     13  C   UNL     1       9.944   4.999   6.360  0.00  0.00    +0.176 C 
ATOM     14  C   UNL     1      11.179   5.884   6.348  0.00  0.00    +0.167 C 
ENDROOT
BRANCH  12   3
ATOM      3  O   UNL     1      10.585   3.964   8.446  0.00  0.00    -0.387 OA
ATOM     36  H   UNL     1      11.186   3.652   7.748  0.00  0.00    +0.210 HD
ENDBRANCH  12   3
BRANCH  13   4
ATOM      4  O   UNL     1      10.178   3.756   5.733  0.00  0.00    -0.387 OA
ATOM     37  H   UNL     1       9.442   3.166   5.972  0.00  0.00    +0.210 HD
ENDBRANCH  13   4
BRANCH  11  15
ATOM     15  C   UNL     1       8.813   7.225   8.315  0.00  0.00    +0.130 C 
BRANCH  15  17
ATOM      5  O   UNL     1       9.892   9.339   8.266  0.00  0.00    -0.276 OA
ATOM      8  N   UNL     1       8.742   8.711   6.347  0.00  0.00    -0.298 N 
ATOM      9  N   UNL     1       7.655   9.300   3.730  0.00  0.00    -0.324 N 
ATOM     17  C   UNL     1       9.203   8.524   7.651  0.00  0.00    +0.218 C 
ATOM     18  C   UNL     1       7.922   7.740   5.619  0.00  0.00    +0.126 C 
ATOM     19  C   UNL     1       9.070   9.945   5.639  0.00  0.00    +0.126 C 
ATOM     20  C   UNL     1       7.993   7.924   4.102  0.00  0.00    +0.124 C 
ATOM     21  C   UNL     1       7.954  10.370   4.686  0.00  0.00    +0.124 C 
BRANCH   9  22
ATOM     22  C   UNL     1       7.097   9.592   2.487  0.00  0.00    +0.072 A 
ATOM     24  C   UNL     1       7.878   9.557   1.333  0.00  0.00    +0.141 A 
ATOM     25  C   UNL     1       5.744   9.920   2.404  0.00  0.00    +0.027 A 
ATOM     27  C   UNL     1       7.306   9.851   0.095  0.00  0.00    +0.047 A 
ATOM     28  C   UNL     1       5.172  10.214   1.166  0.00  0.00    +0.002 A 
ATOM     29  C   UNL     1       5.954  10.180   0.011  0.00  0.00    +0.004 A 
BRANCH  24   6
ATOM      6  O   UNL     1       9.202   9.240   1.392  0.00  0.00    -0.493 OA
ATOM     32  C   UNL     1       9.632   8.108   0.638  0.00  0.00    +0.277 C 
ENDBRANCH  24   6
ENDBRANCH   9  22
ENDBRANCH  15  17
ENDBRANCH  11  15
BRANCH  14  16
ATOM     16  C   UNL     1      11.354   6.656   5.053  0.00  0.00    +0.138 C 
BRANCH  16  10
ATOM      7  O   UNL     1      12.616   7.391   2.582  0.00  0.00    -0.270 OA
ATOM     10  N   UNL     1      11.684   5.780   3.968  0.00  0.00    -0.309 N 
ATOM     23  C   UNL     1      12.299   6.225   2.800  0.00  0.00    +0.244 C 
ATOM     38  H   UNL     1      11.499   4.792   4.105  0.00  0.00    +0.149 HD
BRANCH  23  26
ATOM      1  F   UNL     1      10.841   3.629  -1.046  0.00  0.00    -0.205 F 
ATOM     26  C   UNL     1      12.551   5.197   1.758  0.00  0.00    +0.039 A 
ATOM     30  C   UNL     1      11.559   4.889   0.828  0.00  0.00    +0.051 A 
ATOM     31  C   UNL     1      13.780   4.539   1.710  0.00  0.00    +0.013 A 
ATOM     33  C   UNL     1      11.794   3.925  -0.151  0.00  0.00    +0.124 A 
ATOM     34  C   UNL     1      14.016   3.573   0.731  0.00  0.00    +0.004 A 
ATOM     35  C   UNL     1      13.024   3.266  -0.200  0.00  0.00    +0.038 A 
ENDBRANCH  23  26
ENDBRANCH  16  10
ENDBRANCH  14  16
TORSDOF 9
ENDMDL
MODEL 5
REMARK VINA RESULT:      -7.1      4.242      7.975
REMARK  Name = 40778211
REMARK  10 active torsions:
REMARK  status: ('A' for Active; 'I' for Inactive)
REMARK    1  A    between atoms: O_3  and  C_12
REMARK    2  A    between atoms: O_4  and  C_13
REMARK    3  A    between atoms: O_6  and  C_24
REMARK    4  A    between atoms: O_6  and  C_32
REMARK    5  A    between atoms: N_9  and  C_22
REMARK    6  A    between atoms: N_10  and  C_16
REMARK    7  A    between atoms: C_11  and  C_15
REMARK    8  A    between atoms: C_14  and  C_16
REMARK    9  A    between atoms: C_15  and  C_17
REMARK   10  A    between atoms: C_23  and  C_26
REMARK                            x       y       z     vdW  Elec       q    Type
REMARK                         _______ _______ _______ _____ _____    ______ ____
ROOT
ATOM      2  O   UNL     1     -17.576   4.828  24.272  0.00  0.00    -0.366 OA
ATOM     11  C   UNL     1     -16.596   4.662  23.221  0.00  0.00    +0.159 C 
ATOM     12  C   UNL     1     -16.074   3.235  23.342  0.00  0.00    +0.175 C 
ATOM     13  C   UNL     1     -16.246   2.959  24.821  0.00  0.00    +0.176 C 
ATOM     14  C   UNL     1     -17.564   3.657  25.109  0.00  0.00    +0.167 C 
ENDROOT
BRANCH  12   3
ATOM      3  O   UNL     1     -16.929   2.386  22.576  0.00  0.00    -0.387 OA
ATOM     36  H   UNL     1     -16.513   1.508  22.543  0.00  0.00    +0.210 HD
ENDBRANCH  12   3
BRANCH  13   4
ATOM      4  O   UNL     1     -16.297   1.583  25.130  0.00  0.00    -0.387 OA
ATOM     37  H   UNL     1     -15.481   1.177  24.791  0.00  0.00    +0.210 HD
ENDBRANCH  13   4
BRANCH  11  15
ATOM     15  C   UNL     1     -15.512   5.712  23.427  0.00  0.00    +0.130 C 
BRANCH  15  17
ATOM      5  O   UNL     1     -16.935   7.459  22.682  0.00  0.00    -0.276 OA
ATOM      8  N   UNL     1     -14.789   7.410  21.791  0.00  0.00    -0.298 N 
ATOM      9  N   UNL     1     -12.800   8.339  19.904  0.00  0.00    -0.324 N 
ATOM     17  C   UNL     1     -15.821   6.938  22.604  0.00  0.00    +0.218 C 
ATOM     18  C   UNL     1     -13.466   6.788  21.699  0.00  0.00    +0.126 C 
ATOM     19  C   UNL     1     -15.012   8.588  20.957  0.00  0.00    +0.126 C 
ATOM     20  C   UNL     1     -12.395   7.749  21.181  0.00  0.00    +0.124 C 
ATOM     21  C   UNL     1     -14.233   8.515  19.645  0.00  0.00    +0.124 C 
BRANCH   9  22
ATOM     22  C   UNL     1     -11.853   8.756  18.971  0.00  0.00    +0.072 A 
ATOM     24  C   UNL     1     -11.251  10.009  19.083  0.00  0.00    +0.141 A 
ATOM     25  C   UNL     1     -11.507   7.907  17.920  0.00  0.00    +0.027 A 
ATOM     27  C   UNL     1     -10.304  10.414  18.143  0.00  0.00    +0.047 A 
ATOM     28  C   UNL     1     -10.559   8.312  16.981  0.00  0.00    +0.002 A 
ATOM     29  C   UNL     1      -9.957   9.566  17.091  0.00  0.00    +0.004 A 
BRANCH  24   6
ATOM      6  O   UNL     1     -11.577  10.854  20.102  0.00  0.00    -0.493 OA
ATOM     32  C   UNL     1     -12.452  11.937  19.791  0.00  0.00    +0.277 C 
ENDBRANCH  24   6
ENDBRANCH   9  22
ENDBRANCH  15  17
ENDBRANCH  11  15
BRANCH  14  16
ATOM     16  C   UNL     1     -17.723   4.068  26.562  0.00  0.00    +0.138 C 
BRANCH  16  10
ATOM      7  O   UNL     1     -18.227   2.543  28.941  0.00  0.00    -0.270 OA
ATOM     10  N   UNL     1     -16.745   3.429  27.391  0.00  0.00    -0.309 N 
ATOM     23  C   UNL     1     -17.080   2.705  28.533  0.00  0.00    +0.244 C 
ATOM     38  H   UNL     1     -15.780   3.477  27.081  0.00  0.00    +0.149 HD
BRANCH  23  26
ATOM      1  F   UNL     1     -12.749   3.146  30.701  0.00  0.00    -0.205 F 
ATOM     26  C   UNL     1     -15.948   2.125  29.299  0.00  0.00    +0.039 A 
ATOM     30  C   UNL     1     -14.859   2.923  29.647  0.00  0.00    +0.051 A 
ATOM     31  C   UNL     1     -15.974   0.780  29.672  0.00  0.00    +0.013 A 
ATOM     33  C   UNL     1     -13.796   2.379  30.367  0.00  0.00    +0.124 A 
ATOM     34  C   UNL     1     -14.911   0.235  30.391  0.00  0.00    +0.004 A 
ATOM     35  C   UNL     1     -13.821   1.034  30.740  0.00  0.00    +0.038 A 
ENDBRANCH  23  26
ENDBRANCH  16  10
ENDBRANCH  14  16
TORSDOF 9
ENDMDL
MODEL 6
REMARK VINA RESULT:      -7.0     18.933     22.182
REMARK  Name = 40778211
REMARK  10 active torsions:
REMARK  status: ('A' for Active; 'I' for Inactive)
REMARK    1  A    between atoms: O_3  and  C_12
REMARK    2  A    between atoms: O_4  and  C_13
REMARK    3  A    between atoms: O_6  and  C_24
REMARK    4  A    between atoms: O_6  and  C_32
REMARK    5  A    between atoms: N_9  and  C_22
REMARK    6  A    between atoms: N_10  and  C_16
REMARK    7  A    between atoms: C_11  and  C_15
REMARK    8  A    between atoms: C_14  and  C_16
REMARK    9  A    between atoms: C_15  and  C_17
REMARK   10  A    between atoms: C_23  and  C_26
REMARK                            x       y       z     vdW  Elec       q    Type
REMARK                         _______ _______ _______ _____ _____    ______ ____
ROOT
ATOM      2  O   UNL     1      -4.608 -11.627  18.694  0.00  0.00    -0.366 OA
ATOM     11  C   UNL     1      -6.017 -11.928  18.823  0.00  0.00    +0.159 C 
ATOM     12  C   UNL     1      -6.452 -12.526  17.490  0.00  0.00    +0.175 C 
ATOM     13  C   UNL     1      -5.490 -11.871  16.521  0.00  0.00    +0.176 C 
ATOM     14  C   UNL     1      -4.206 -11.854  17.332  0.00  0.00    +0.167 C 
ENDROOT
BRANCH  12   3
ATOM      3  O   UNL     1      -6.222 -13.934  17.541  0.00  0.00    -0.387 OA
ATOM     36  H   UNL     1      -5.264 -14.076  17.455  0.00  0.00    +0.210 HD
ENDBRANCH  12   3
BRANCH  13   4
ATOM      4  O   UNL     1      -5.344 -12.583  15.311  0.00  0.00    -0.387 OA
ATOM     37  H   UNL     1      -5.761 -12.055  14.609  0.00  0.00    +0.210 HD
ENDBRANCH  13   4
BRANCH  11  15
ATOM     15  C   UNL     1      -6.741 -10.631  19.159  0.00  0.00    +0.130 C 
BRANCH  15  17
ATOM      5  O   UNL     1      -8.665 -11.706  20.040  0.00  0.00    -0.276 OA
ATOM      8  N   UNL     1      -9.025 -10.127  18.374  0.00  0.00    -0.298 N 
ATOM      9  N   UNL     1     -10.748  -8.787  16.473  0.00  0.00    -0.324 N 
ATOM     17  C   UNL     1      -8.228 -10.879  19.239  0.00  0.00    +0.218 C 
ATOM     18  C   UNL     1      -8.502  -9.144  17.422  0.00  0.00    +0.126 C 
ATOM     19  C   UNL     1     -10.473 -10.314  18.385  0.00  0.00    +0.126 C 
ATOM     20  C   UNL     1      -9.552  -8.119  16.992  0.00  0.00    +0.124 C 
ATOM     21  C   UNL     1     -11.085 -10.113  17.000  0.00  0.00    +0.124 C 
BRANCH   9  22
ATOM     22  C   UNL     1     -11.566  -8.168  15.531  0.00  0.00    +0.072 A 
ATOM     24  C   UNL     1     -11.372  -8.389  14.168  0.00  0.00    +0.141 A 
ATOM     25  C   UNL     1     -12.587  -7.321  15.962  0.00  0.00    +0.027 A 
ATOM     27  C   UNL     1     -12.199  -7.762  13.236  0.00  0.00    +0.047 A 
ATOM     28  C   UNL     1     -13.414  -6.695  15.030  0.00  0.00    +0.002 A 
ATOM     29  C   UNL     1     -13.220  -6.915  13.666  0.00  0.00    +0.004 A 
BRANCH  24   6
ATOM      6  O   UNL     1     -10.379  -9.211  13.726  0.00  0.00    -0.493 OA
ATOM     32  C   UNL     1     -10.776 -10.455  13.152  0.00  0.00    +0.277 C 
ENDBRANCH  24   6
ENDBRANCH   9  22
ENDBRANCH  15  17
ENDBRANCH  11  15
BRANCH  14  16
ATOM     16  C   UNL     1      -3.235 -10.770  16.900  0.00  0.00    +0.138 C 
BRANCH  16  10
ATOM      7  O   UNL     1      -1.377 -11.471  14.827  0.00  0.00    -0.270 OA
ATOM     10  N   UNL     1      -3.366 -10.484  15.502  0.00  0.00    -0.309 N 
ATOM     23  C   UNL     1      -2.411 -10.864  14.561  0.00  0.00    +0.244 C 
ATOM     38  H   UNL     1      -4.224 -10.032  15.206  0.00  0.00    +0.149 HD
BRANCH  23  26
ATOM      1  F   UNL     1      -0.986  -8.872  10.359  0.00  0.00    -0.205 F 
ATOM     26  C   UNL     1      -2.681 -10.470  13.155  0.00  0.00    +0.039 A 
ATOM     30  C   UNL     1      -1.688  -9.844  12.403  0.00  0.00    +0.051 A 
ATOM     31  C   UNL     1      -3.929 -10.726  12.586  0.00  0.00    +0.013 A 
ATOM     33  C   UNL     1      -1.940  -9.474  11.082  0.00  0.00    +0.124 A 
ATOM     34  C   UNL     1      -4.183 -10.356  11.265  0.00  0.00    +0.004 A 
ATOM     35  C   UNL     1      -3.188  -9.730  10.513  0.00  0.00    +0.038 A 
ENDBRANCH  23  26
ENDBRANCH  16  10
ENDBRANCH  14  16
TORSDOF 9
ENDMDL
MODEL 7
REMARK VINA RESULT:      -7.0     19.594     22.548
REMARK  Name = 40778211
REMARK  10 active torsions:
REMARK  status: ('A' for Active; 'I' for Inactive)
REMARK    1  A    between atoms: O_3  and  C_12
REMARK    2  A    between atoms: O_4  and  C_13
REMARK    3  A    between atoms: O_6  and  C_24
REMARK    4  A    between atoms: O_6  and  C_32
REMARK    5  A    between atoms: N_9  and  C_22
REMARK    6  A    between atoms: N_10  and  C_16
REMARK    7  A    between atoms: C_11  and  C_15
REMARK    8  A    between atoms: C_14  and  C_16
REMARK    9  A    between atoms: C_15  and  C_17
REMARK   10  A    between atoms: C_23  and  C_26
REMARK                            x       y       z     vdW  Elec       q    Type
REMARK                         _______ _______ _______ _____ _____    ______ ____
ROOT
ATOM      2  O   UNL     1      -6.165 -12.116  17.791  0.00  0.00    -0.366 OA
ATOM     11  C   UNL     1      -5.304 -11.157  18.448  0.00  0.00    +0.159 C 
ATOM     12  C   UNL     1      -6.126 -10.546  19.579  0.00  0.00    +0.175 C 
ATOM     13  C   UNL     1      -7.537 -10.660  19.041  0.00  0.00    +0.176 C 
ATOM     14  C   UNL     1      -7.489 -12.010  18.344  0.00  0.00    +0.167 C 
ENDROOT
BRANCH  12   3
ATOM      3  O   UNL     1      -5.967 -11.369  20.734  0.00  0.00    -0.387 OA
ATOM     36  H   UNL     1      -5.785 -12.273  20.425  0.00  0.00    +0.210 HD
ENDBRANCH  12   3
BRANCH  13   4
ATOM      4  O   UNL     1      -8.524 -10.620  20.049  0.00  0.00    -0.387 OA
ATOM     37  H   UNL     1      -8.199 -10.031  20.752  0.00  0.00    +0.210 HD
ENDBRANCH  13   4
BRANCH  11  15
ATOM     15  C   UNL     1      -4.869 -10.133  17.408  0.00  0.00    +0.130 C 
BRANCH  15  17
ATOM      5  O   UNL     1      -2.732 -11.119  17.101  0.00  0.00    -0.276 OA
ATOM      8  N   UNL     1      -3.982 -10.721  15.183  0.00  0.00    -0.298 N 
ATOM      9  N   UNL     1      -4.246 -10.599  12.303  0.00  0.00    -0.324 N 
ATOM     17  C   UNL     1      -3.758 -10.703  16.561  0.00  0.00    +0.218 C 
ATOM     18  C   UNL     1      -5.202 -10.225  14.543  0.00  0.00    +0.126 C 
ATOM     19  C   UNL     1      -2.950 -11.249  14.294  0.00  0.00    +0.126 C 
ATOM     20  C   UNL     1      -5.422 -10.815  13.149  0.00  0.00    +0.124 C 
ATOM     21  C   UNL     1      -2.931 -10.526  12.948  0.00  0.00    +0.124 C 
BRANCH   9  22
ATOM     22  C   UNL     1      -4.364 -10.503  10.918  0.00  0.00    +0.072 A 
ATOM     24  C   UNL     1      -4.340 -11.647  10.122  0.00  0.00    +0.141 A 
ATOM     25  C   UNL     1      -4.510  -9.247  10.330  0.00  0.00    +0.027 A 
ATOM     27  C   UNL     1      -4.460 -11.536   8.737  0.00  0.00    +0.047 A 
ATOM     28  C   UNL     1      -4.631  -9.136   8.945  0.00  0.00    +0.002 A 
ATOM     29  C   UNL     1      -4.606 -10.280   8.148  0.00  0.00    +0.004 A 
BRANCH  24   6
ATOM      6  O   UNL     1      -4.197 -12.884  10.678  0.00  0.00    -0.493 OA
ATOM     32  C   UNL     1      -5.219 -13.840  10.401  0.00  0.00    +0.277 C 
ENDBRANCH  24   6
ENDBRANCH   9  22
ENDBRANCH  15  17
ENDBRANCH  11  15
BRANCH  14  16
ATOM     16  C   UNL     1      -8.518 -12.153  17.237  0.00  0.00    +0.138 C 
BRANCH  16  10
ATOM      7  O   UNL     1      -8.667 -10.605  14.824  0.00  0.00    -0.270 OA
ATOM     10  N   UNL     1      -9.247 -10.934  17.046  0.00  0.00    -0.309 N 
ATOM     23  C   UNL     1      -9.264 -10.247  15.835  0.00  0.00    +0.244 C 
ATOM     38  H   UNL     1      -9.807 -10.609  17.827  0.00  0.00    +0.149 HD
BRANCH  23  26
ATOM      1  F   UNL     1     -12.236  -7.140  13.561  0.00  0.00    -0.205 F 
ATOM     26  C   UNL     1     -10.047  -8.984  15.807  0.00  0.00    +0.039 A 
ATOM     30  C   UNL     1     -10.788  -8.648  14.675  0.00  0.00    +0.051 A 
ATOM     31  C   UNL     1     -10.039  -8.134  16.913  0.00  0.00    +0.013 A 
ATOM     33  C   UNL     1     -11.524  -7.463  14.649  0.00  0.00    +0.124 A 
ATOM     34  C   UNL     1     -10.773  -6.949  16.887  0.00  0.00    +0.004 A 
ATOM     35  C   UNL     1     -11.516  -6.613  15.755  0.00  0.00    +0.038 A 
ENDBRANCH  23  26
ENDBRANCH  16  10
ENDBRANCH  14  16
TORSDOF 9
ENDMDL
MODEL 8
REMARK VINA RESULT:      -6.8     33.273     36.213
REMARK  Name = 40778211
REMARK  10 active torsions:
REMARK  status: ('A' for Active; 'I' for Inactive)
REMARK    1  A    between atoms: O_3  and  C_12
REMARK    2  A    between atoms: O_4  and  C_13
REMARK    3  A    between atoms: O_6  and  C_24
REMARK    4  A    between atoms: O_6  and  C_32
REMARK    5  A    between atoms: N_9  and  C_22
REMARK    6  A    between atoms: N_10  and  C_16
REMARK    7  A    between atoms: C_11  and  C_15
REMARK    8  A    between atoms: C_14  and  C_16
REMARK    9  A    between atoms: C_15  and  C_17
REMARK   10  A    between atoms: C_23  and  C_26
REMARK                            x       y       z     vdW  Elec       q    Type
REMARK                         _______ _______ _______ _____ _____    ______ ____
ROOT
ATOM      2  O   UNL     1      10.655   6.973   5.977  0.00  0.00    -0.366 OA
ATOM     11  C   UNL     1      10.267   7.162   7.357  0.00  0.00    +0.159 C 
ATOM     12  C   UNL     1      10.180   5.770   7.974  0.00  0.00    +0.175 C 
ATOM     13  C   UNL     1       9.823   4.916   6.775  0.00  0.00    +0.176 C 
ATOM     14  C   UNL     1      10.653   5.565   5.680  0.00  0.00    +0.167 C 
ENDROOT
BRANCH  12   3
ATOM      3  O   UNL     1      11.476   5.422   8.462  0.00  0.00    -0.387 OA
ATOM     36  H   UNL     1      12.120   5.662   7.775  0.00  0.00    +0.210 HD
ENDBRANCH  12   3
BRANCH  13   4
ATOM      4  O   UNL     1      10.146   3.552   6.945  0.00  0.00    -0.387 OA
ATOM     37  H   UNL     1      10.439   3.212   6.082  0.00  0.00    +0.210 HD
ENDBRANCH  13   4
BRANCH  11  15
ATOM     15  C   UNL     1       8.936   7.902   7.369  0.00  0.00    +0.130 C 
BRANCH  15  17
ATOM      5  O   UNL     1       9.623  10.168   7.192  0.00  0.00    -0.276 OA
ATOM      8  N   UNL     1       8.552   9.255   5.343  0.00  0.00    -0.298 N 
ATOM      9  N   UNL     1       7.308   9.518   2.742  0.00  0.00    -0.324 N 
ATOM     17  C   UNL     1       9.073   9.215   6.637  0.00  0.00    +0.218 C 
ATOM     18  C   UNL     1       7.897   8.122   4.686  0.00  0.00    +0.126 C 
ATOM     19  C   UNL     1       8.637  10.493   4.571  0.00  0.00    +0.126 C 
ATOM     20  C   UNL     1       7.894   8.242   3.161  0.00  0.00    +0.124 C 
ATOM     21  C   UNL     1       7.439  10.669   3.640  0.00  0.00    +0.124 C 
BRANCH   9  22
ATOM     22  C   UNL     1       6.675   9.647   1.508  0.00  0.00    +0.072 A 
ATOM     24  C   UNL     1       5.292   9.805   1.433  0.00  0.00    +0.141 A 
ATOM     25  C   UNL     1       7.438   9.619   0.341  0.00  0.00    +0.027 A 
ATOM     27  C   UNL     1       4.671   9.934   0.190  0.00  0.00    +0.047 A 
ATOM     28  C   UNL     1       6.818   9.748  -0.901  0.00  0.00    +0.002 A 
ATOM     29  C   UNL     1       5.434   9.905  -0.977  0.00  0.00    +0.004 A 
BRANCH  24   6
ATOM      6  O   UNL     1       4.528   9.834   2.561  0.00  0.00    -0.493 OA
ATOM     32  C   UNL     1       3.719  10.991   2.766  0.00  0.00    +0.277 C 
ENDBRANCH  24   6
ENDBRANCH   9  22
ENDBRANCH  15  17
ENDBRANCH  11  15
BRANCH  14  16
ATOM     16  C   UNL     1      10.095   5.338   4.287  0.00  0.00    +0.138 C 
BRANCH  16  10
ATOM      7  O   UNL     1       9.895   5.278   1.424  0.00  0.00    -0.270 OA
ATOM     10  N   UNL     1      11.132   4.981   3.365  0.00  0.00    -0.309 N 
ATOM     23  C   UNL     1      10.947   4.980   1.984  0.00  0.00    +0.244 C 
ATOM     38  H   UNL     1      12.044   4.776   3.759  0.00  0.00    +0.149 HD
BRANCH  23  26
ATOM      1  F   UNL     1      15.461   3.210   1.614  0.00  0.00    -0.205 F 
ATOM     26  C   UNL     1      12.112   4.560   1.165  0.00  0.00    +0.039 A 
ATOM     30  C   UNL     1      13.262   4.073   1.786  0.00  0.00    +0.051 A 
ATOM     31  C   UNL     1      12.058   4.654  -0.226  0.00  0.00    +0.013 A 
ATOM     33  C   UNL     1      14.356   3.678   1.017  0.00  0.00    +0.124 A 
ATOM     34  C   UNL     1      13.152   4.260  -0.995  0.00  0.00    +0.004 A 
ATOM     35  C   UNL     1      14.302   3.772  -0.374  0.00  0.00    +0.038 A 
ENDBRANCH  23  26
ENDBRANCH  16  10
ENDBRANCH  14  16
TORSDOF 9
ENDMDL
MODEL 9
REMARK VINA RESULT:      -6.7     34.529     38.594
REMARK  Name = 40778211
REMARK  10 active torsions:
REMARK  status: ('A' for Active; 'I' for Inactive)
REMARK    1  A    between atoms: O_3  and  C_12
REMARK    2  A    between atoms: O_4  and  C_13
REMARK    3  A    between atoms: O_6  and  C_24
REMARK    4  A    between atoms: O_6  and  C_32
REMARK    5  A    between atoms: N_9  and  C_22
REMARK    6  A    between atoms: N_10  and  C_16
REMARK    7  A    between atoms: C_11  and  C_15
REMARK    8  A    between atoms: C_14  and  C_16
REMARK    9  A    between atoms: C_15  and  C_17
REMARK   10  A    between atoms: C_23  and  C_26
REMARK                            x       y       z     vdW  Elec       q    Type
REMARK                         _______ _______ _______ _____ _____    ______ ____
ROOT
ATOM      2  O   UNL     1      11.087   7.145   7.109  0.00  0.00    -0.366 OA
ATOM     11  C   UNL     1      11.132   8.581   6.944  0.00  0.00    +0.159 C 
ATOM     12  C   UNL     1       9.683   9.056   6.918  0.00  0.00    +0.175 C 
ATOM     13  C   UNL     1       8.965   7.846   6.359  0.00  0.00    +0.176 C 
ATOM     14  C   UNL     1       9.719   6.708   7.026  0.00  0.00    +0.167 C 
ENDROOT
BRANCH  12   3
ATOM      3  O   UNL     1       9.274   9.298   8.264  0.00  0.00    -0.387 OA
ATOM     36  H   UNL     1       8.723  10.099   8.261  0.00  0.00    +0.210 HD
ENDBRANCH  12   3
BRANCH  13   4
ATOM      4  O   UNL     1       7.587   7.822   6.670  0.00  0.00    -0.387 OA
ATOM     37  H   UNL     1       7.499   8.019   7.618  0.00  0.00    +0.210 HD
ENDBRANCH  13   4
BRANCH  11  15
ATOM     15  C   UNL     1      11.879   8.877   5.650  0.00  0.00    +0.130 C 
BRANCH  15  17
ATOM      5  O   UNL     1      12.539  11.123   6.042  0.00  0.00    -0.276 OA
ATOM      8  N   UNL     1      14.239   9.544   5.913  0.00  0.00    -0.298 N 
ATOM      9  N   UNL     1      17.041   8.836   5.764  0.00  0.00    -0.324 N 
ATOM     17  C   UNL     1      12.906   9.958   5.885  0.00  0.00    +0.218 C 
ATOM     18  C   UNL     1      14.673   8.158   5.725  0.00  0.00    +0.126 C 
ATOM     19  C   UNL     1      15.293  10.532   6.127  0.00  0.00    +0.126 C 
ATOM     20  C   UNL     1      16.063   7.890   6.303  0.00  0.00    +0.124 C 
ATOM     21  C   UNL     1      16.575  10.171   5.377  0.00  0.00    +0.124 C 
BRANCH   9  22
ATOM     22  C   UNL     1      18.388   8.494   5.653  0.00  0.00    +0.072 A 
ATOM     24  C   UNL     1      18.913   8.065   4.436  0.00  0.00    +0.141 A 
ATOM     25  C   UNL     1      19.211   8.587   6.775  0.00  0.00    +0.027 A 
ATOM     27  C   UNL     1      20.263   7.726   4.340  0.00  0.00    +0.047 A 
ATOM     28  C   UNL     1      20.561   8.249   6.679  0.00  0.00    +0.002 A 
ATOM     29  C   UNL     1      21.087   7.818   5.461  0.00  0.00    +0.004 A 
BRANCH  24   6
ATOM      6  O   UNL     1      18.125   7.967   3.328  0.00  0.00    -0.493 OA
ATOM     32  C   UNL     1      18.609   8.575   2.132  0.00  0.00    +0.277 C 
ENDBRANCH  24   6
ENDBRANCH   9  22
ENDBRANCH  15  17
ENDBRANCH  11  15
BRANCH  14  16
ATOM     16  C   UNL     1       9.646   5.403   6.254  0.00  0.00    +0.138 C 
BRANCH  16  10
ATOM      7  O   UNL     1       9.519   6.049   3.460  0.00  0.00    -0.270 OA
ATOM     10  N   UNL     1      10.714   5.303   5.304  0.00  0.00    -0.309 N 
ATOM     23  C   UNL     1      10.563   5.640   3.961  0.00  0.00    +0.244 C 
ATOM     38  H   UNL     1      11.620   5.022   5.663  0.00  0.00    +0.149 HD
BRANCH  23  26
ATOM      1  F   UNL     1      13.234   2.937   0.926  0.00  0.00    -0.205 F 
ATOM     26  C   UNL     1      11.758   5.455   3.099  0.00  0.00    +0.039 A 
ATOM     30  C   UNL     1      11.939   4.260   2.404  0.00  0.00    +0.051 A 
ATOM     31  C   UNL     1      12.701   6.477   2.985  0.00  0.00    +0.013 A 
ATOM     33  C   UNL     1      13.061   4.086   1.594  0.00  0.00    +0.124 A 
ATOM     34  C   UNL     1      13.824   6.304   2.176  0.00  0.00    +0.004 A 
ATOM     35  C   UNL     1      14.004   5.108   1.480  0.00  0.00    +0.038 A 
ENDBRANCH  23  26
ENDBRANCH  16  10
ENDBRANCH  14  16
TORSDOF 9
ENDMDL
MODEL 10
REMARK VINA RESULT:      -6.6     36.285     40.359
REMARK  Name = 40778211
REMARK  10 active torsions:
REMARK  status: ('A' for Active; 'I' for Inactive)
REMARK    1  A    between atoms: O_3  and  C_12
REMARK    2  A    between atoms: O_4  and  C_13
REMARK    3  A    between atoms: O_6  and  C_24
REMARK    4  A    between atoms: O_6  and  C_32
REMARK    5  A    between atoms: N_9  and  C_22
REMARK    6  A    between atoms: N_10  and  C_16
REMARK    7  A    between atoms: C_11  and  C_15
REMARK    8  A    between atoms: C_14  and  C_16
REMARK    9  A    between atoms: C_15  and  C_17
REMARK   10  A    between atoms: C_23  and  C_26
REMARK                            x       y       z     vdW  Elec       q    Type
REMARK                         _______ _______ _______ _____ _____    ______ ____
ROOT
ATOM      2  O   UNL     1      13.232   5.227   0.135  0.00  0.00    -0.366 OA
ATOM     11  C   UNL     1      14.341   6.141   0.301  0.00  0.00    +0.159 C 
ATOM     12  C   UNL     1      15.506   5.312   0.828  0.00  0.00    +0.175 C 
ATOM     13  C   UNL     1      14.793   4.206   1.578  0.00  0.00    +0.176 C 
ATOM     14  C   UNL     1      13.601   3.945   0.673  0.00  0.00    +0.167 C 
ENDROOT
BRANCH  12   3
ATOM      3  O   UNL     1      16.211   4.777  -0.292  0.00  0.00    -0.387 OA
ATOM     36  H   UNL     1      15.561   4.629  -1.000  0.00  0.00    +0.210 HD
ENDBRANCH  12   3
BRANCH  13   4
ATOM      4  O   UNL     1      15.585   3.051   1.757  0.00  0.00    -0.387 OA
ATOM     37  H   UNL     1      15.049   2.403   2.247  0.00  0.00    +0.210 HD
ENDBRANCH  13   4
BRANCH  11  15
ATOM     15  C   UNL     1      13.902   7.234   1.266  0.00  0.00    +0.130 C 
BRANCH  15  17
ATOM      5  O   UNL     1      14.855   9.161   0.260  0.00  0.00    -0.276 OA
ATOM      8  N   UNL     1      15.758   8.493   2.294  0.00  0.00    -0.298 N 
ATOM      9  N   UNL     1      17.776   8.678   4.360  0.00  0.00    -0.324 N 
ATOM     17  C   UNL     1      14.877   8.385   1.216  0.00  0.00    +0.218 C 
ATOM     18  C   UNL     1      15.783   7.569   3.429  0.00  0.00    +0.126 C 
ATOM     19  C   UNL     1      16.738   9.575   2.316  0.00  0.00    +0.126 C 
ATOM     20  C   UNL     1      16.437   8.175   4.672  0.00  0.00    +0.124 C 
ATOM     21  C   UNL     1      18.038   9.155   2.999  0.00  0.00    +0.124 C 
BRANCH   9  22
ATOM     22  C   UNL     1      18.767   8.739   5.338  0.00  0.00    +0.072 A 
ATOM     24  C   UNL     1      19.876   7.896   5.278  0.00  0.00    +0.141 A 
ATOM     25  C   UNL     1      18.643   9.656   6.382  0.00  0.00    +0.027 A 
ATOM     27  C   UNL     1      20.860   7.968   6.264  0.00  0.00    +0.047 A 
ATOM     28  C   UNL     1      19.628   9.728   7.367  0.00  0.00    +0.002 A 
ATOM     29  C   UNL     1      20.737   8.884   7.308  0.00  0.00    +0.004 A 
BRANCH  24   6
ATOM      6  O   UNL     1      20.015   6.992   4.267  0.00  0.00    -0.493 OA
ATOM     32  C   UNL     1      21.178   7.109   3.450  0.00  0.00    +0.277 C 
ENDBRANCH  24   6
ENDBRANCH   9  22
ENDBRANCH  15  17
ENDBRANCH  11  15
BRANCH  14  16
ATOM     16  C   UNL     1      12.415   3.337   1.401  0.00  0.00    +0.138 C 
BRANCH  16  10
ATOM      7  O   UNL     1      10.308   5.206   1.958  0.00  0.00    -0.270 OA
ATOM     10  N   UNL     1      12.172   4.005   2.645  0.00  0.00    -0.309 N 
ATOM     23  C   UNL     1      11.121   4.900   2.827  0.00  0.00    +0.244 C 
ATOM     38  H   UNL     1      12.774   3.757   3.423  0.00  0.00    +0.149 HD
BRANCH  23  26
ATOM      1  F   UNL     1       9.278   5.041   7.327  0.00  0.00    -0.205 F 
ATOM     26  C   UNL     1      11.019   5.530   4.169  0.00  0.00    +0.039 A 
ATOM     30  C   UNL     1      10.180   4.980   5.137  0.00  0.00    +0.051 A 
ATOM     31  C   UNL     1      11.764   6.673   4.461  0.00  0.00    +0.013 A 
ATOM     33  C   UNL     1      10.085   5.570   6.396  0.00  0.00    +0.124 A 
ATOM     34  C   UNL     1      11.669   7.265   5.720  0.00  0.00    +0.004 A 
ATOM     35  C   UNL     1      10.830   6.713   6.689  0.00  0.00    +0.038 A 
ENDBRANCH  23  26
ENDBRANCH  16  10
ENDBRANCH  14  16
TORSDOF 9
ENDMDL
