REMARK  Name = 44715906
REMARK  13 active torsions:
REMARK  status: ('A' for Active; 'I' for Inactive)
REMARK    1  A    between atoms: O_1  and  C_37
REMARK    2  A    between atoms: O_1  and  C_43
REMARK    3  A    between atoms: O_2  and  C_38
REMARK    4  A    between atoms: O_2  and  C_44
REMARK    5  A    between atoms: N_4  and  C_14
REMARK    6  A    between atoms: N_4  and  C_17
REMARK    7  A    between atoms: N_4  and  C_18
REMARK    8  A    between atoms: N_5  and  C_20
REMARK    9  A    between atoms: C_8  and  C_15
REMARK   10  A    between atoms: C_9  and  C_14
REMARK   11  A    between atoms: C_17  and  C_21
REMARK   12  A    between atoms: C_18  and  C_22
REMARK   13  A    between atoms: C_19  and  C_23
REMARK                            x       y       z     vdW  Elec       q    Type
REMARK                         _______ _______ _______ _____ _____    ______ ____
ROOT
ATOM      3  N   UNL     1       2.180   3.999   0.009  0.00  0.00    -0.298 NA
ATOM      7  C   UNL     1       0.933   2.853  -1.969  0.00  0.00    +0.002 C 
ATOM      8  C   UNL     1      -0.073   3.609  -1.057  0.00  0.00    +0.055 C 
ATOM      9  C   UNL     1       2.593   2.575  -0.095  0.00  0.00    +0.071 C 
ATOM     10  C   UNL     1       1.717   1.827  -1.123  0.00  0.00    +0.024 C 
ATOM     11  C   UNL     1       1.950   3.899  -2.472  0.00  0.00    +0.019 C 
ATOM     12  C   UNL     1       0.711   4.090   0.198  0.00  0.00    +0.094 C 
ATOM     13  C   UNL     1       2.525   4.667  -1.269  0.00  0.00    +0.085 C 
ENDROOT
BRANCH   8  15
ATOM      5  N   UNL     1      -2.332   3.489   0.092  0.00  0.00    -0.270 N 
ATOM      6  N   UNL     1      -3.408   2.709   0.297  0.00  0.00    -0.171 NA
ATOM     15  C   UNL     1      -1.376   2.913  -0.691  0.00  0.00    +0.044 A 
ATOM     16  C   UNL     1      -1.859   1.671  -1.022  0.00  0.00    +0.053 A 
ATOM     19  C   UNL     1      -3.113   1.600  -0.386  0.00  0.00    +0.093 A 
ATOM     20  C   UNL     1      -2.288   4.802   0.693  0.00  0.00    +0.172 C 
BRANCH  19  23
ATOM     23  C   UNL     1      -4.033   0.493  -0.416  0.00  0.00    +0.003 A 
ATOM     28  C   UNL     1      -3.712  -0.661  -1.131  0.00  0.00    +0.018 A 
ATOM     29  C   UNL     1      -5.242   0.575   0.268  0.00  0.00    +0.011 A 
ATOM     30  C   UNL     1      -4.598  -1.750  -1.171  0.00  0.00    -0.017 A 
ATOM     31  C   UNL     1      -6.135  -0.497   0.239  0.00  0.00    +0.009 A 
ATOM     36  C   UNL     1      -5.828  -1.666  -0.475  0.00  0.00    -0.018 A 
ATOM     39  C   UNL     1      -4.291  -2.919  -1.885  0.00  0.00    +0.008 A 
ATOM     40  C   UNL     1      -6.714  -2.755  -0.515  0.00  0.00    +0.008 A 
ATOM     41  C   UNL     1      -5.184  -3.991  -1.914  0.00  0.00    +0.001 A 
ATOM     42  C   UNL     1      -6.393  -3.909  -1.230  0.00  0.00    +0.001 A 
ENDBRANCH  19  23
ENDBRANCH   8  15
BRANCH   9  14
ATOM     14  C   UNL     1       2.605   1.870   1.263  0.00  0.00    +0.104 C 
BRANCH  14   4
ATOM      4  N   UNL     1       3.151   0.528   1.144  0.00  0.00    -0.293 NA
BRANCH   4  17
ATOM     17  C   UNL     1       4.613   0.569   1.048  0.00  0.00    +0.120 C 
BRANCH  17  21
ATOM     21  C   UNL     1       5.166  -0.667   0.389  0.00  0.00    -0.033 A 
ATOM     24  C   UNL     1       6.078  -1.473   1.071  0.00  0.00    +0.008 A 
ATOM     26  C   UNL     1       4.765  -1.006  -0.903  0.00  0.00    +0.008 A 
ATOM     32  C   UNL     1       6.590  -2.618   0.460  0.00  0.00    +0.046 A 
ATOM     34  C   UNL     1       5.277  -2.151  -1.514  0.00  0.00    +0.046 A 
ATOM     37  C   UNL     1       6.189  -2.957  -0.833  0.00  0.00    +0.120 A 
BRANCH  37   1
ATOM      1  O   UNL     1       6.688  -4.074  -1.428  0.00  0.00    -0.495 OA
ATOM     43  C   UNL     1       6.236  -4.362  -2.751  0.00  0.00    +0.277 C 
ENDBRANCH  37   1
ENDBRANCH  17  21
ENDBRANCH   4  17
BRANCH   4  18
ATOM     18  C   UNL     1       2.743  -0.302   2.281  0.00  0.00    +0.120 C 
BRANCH  18  22
ATOM     22  C   UNL     1       1.318  -0.770   2.151  0.00  0.00    -0.033 A 
ATOM     25  C   UNL     1       0.386  -0.449   3.137  0.00  0.00    +0.008 A 
ATOM     27  C   UNL     1       0.931  -1.524   1.043  0.00  0.00    +0.008 A 
ATOM     33  C   UNL     1      -0.934  -0.883   3.016  0.00  0.00    +0.046 A 
ATOM     35  C   UNL     1      -0.389  -1.958   0.922  0.00  0.00    +0.046 A 
ATOM     38  C   UNL     1      -1.322  -1.638   1.908  0.00  0.00    +0.120 A 
BRANCH  38   2
ATOM      2  O   UNL     1      -2.610  -2.060   1.790  0.00  0.00    -0.495 OA
ATOM     44  C   UNL     1      -3.511  -1.696   2.834  0.00  0.00    +0.277 C 
ENDBRANCH  38   2
ENDBRANCH  18  22
ENDBRANCH   4  18
ENDBRANCH  14   4
ENDBRANCH   9  14
TORSDOF 10
