REMARK  Name = 75537105
REMARK  3 active torsions:
REMARK  status: ('A' for Active; 'I' for Inactive)
REMARK    1  A    between atoms: N_3  and  C_12
REMARK    2  A    between atoms: N_4  and  C_13
REMARK    3  A    between atoms: C_12  and  C_14
REMARK                            x       y       z     vdW  Elec       q    Type
REMARK                         _______ _______ _______ _____ _____    ______ ____
ROOT
ATOM      1  O   UNL     1       4.637   0.947  -0.111  0.00  0.00    -0.252 OA
ATOM      2  N   UNL     1       2.318   0.612  -0.279  0.00  0.00    -0.278 N 
ATOM      3  N   UNL     1      -0.429   0.982   0.197  0.00  0.00    -0.295 NA
ATOM      4  N   UNL     1       3.644  -1.192  -0.104  0.00  0.00    -0.287 N 
ATOM      6  C   UNL     1       1.421  -0.515  -0.431  0.00  0.00    +0.109 C 
ATOM      7  C   UNL     1       0.188  -0.336   0.453  0.00  0.00    +0.109 C 
ATOM      8  C   UNL     1       2.291  -1.721  -0.083  0.00  0.00    +0.132 C 
ATOM      9  C   UNL     1       1.788   1.956  -0.363  0.00  0.00    +0.125 C 
ATOM     10  C   UNL     1       0.521   2.074   0.489  0.00  0.00    +0.104 C 
ATOM     11  C   UNL     1       3.657   0.216  -0.163  0.00  0.00    +0.305 C 
ATOM     13  C   UNL     1       4.802  -2.042   0.070  0.00  0.00    +0.133 C 
ENDROOT
BRANCH   3  12
ATOM     12  C   UNL     1      -1.645   1.138   0.994  0.00  0.00    +0.121 C 
BRANCH  12  14
ATOM      5  N   UNL     1      -4.252  -1.560   0.490  0.00  0.00    -0.263 NA
ATOM     14  C   UNL     1      -2.802   0.373   0.409  0.00  0.00    -0.015 A 
ATOM     15  C   UNL     1      -3.481   0.845  -0.709  0.00  0.00    +0.008 A 
ATOM     16  C   UNL     1      -3.223  -0.824   0.966  0.00  0.00    +0.115 A 
ATOM     17  C   UNL     1      -4.545   0.116  -1.228  0.00  0.00    +0.020 A 
ATOM     18  C   UNL     1      -4.888  -1.069  -0.598  0.00  0.00    +0.111 A 
ENDBRANCH  12  14
ENDBRANCH   3  12
TORSDOF 2
