REMARK  Name = 45784164
REMARK  12 active torsions:
REMARK  status: ('A' for Active; 'I' for Inactive)
REMARK    1  A    between atoms: N_3  and  C_16
REMARK    2  A    between atoms: N_5  and  C_25
REMARK    3  A    between atoms: N_7  and  C_29
REMARK    4  A    between atoms: C_9  and  C_13
REMARK    5  A    between atoms: C_10  and  C_16
REMARK    6  A    between atoms: C_12  and  C_17
REMARK    7  A    between atoms: C_13  and  C_18
REMARK    8  A    between atoms: C_13  and  C_19
REMARK    9  A    between atoms: C_14  and  C_20
REMARK   10  A    between atoms: C_17  and  C_21
REMARK   11  A    between atoms: C_23  and  C_24
REMARK   12  A    between atoms: C_25  and  C_27
REMARK                            x       y       z     vdW  Elec       q    Type
REMARK                         _______ _______ _______ _____ _____    ______ ____
ROOT
ATOM      9  C   UNL     1       1.640   0.727  -1.215  0.00  0.00    +0.000 C 
ATOM     10  C   UNL     1       3.161   0.966  -1.047  0.00  0.00    +0.032 C 
ATOM     11  C   UNL     1       0.854   1.991  -0.837  0.00  0.00    +0.012 C 
ATOM     12  C   UNL     1       1.121   2.432   0.615  0.00  0.00    +0.024 C 
ATOM     14  C   UNL     1       2.601   2.433   0.939  0.00  0.00    -0.073 C 
ATOM     15  C   UNL     1       3.500   1.784   0.178  0.00  0.00    -0.022 C 
ATOM     20  C   UNL     1       3.032   3.237   2.135  0.00  0.00    +0.039 C 
ENDROOT
BRANCH   9  13
ATOM     13  C   UNL     1       1.285   0.303  -2.643  0.00  0.00    -0.013 C 
ATOM     18  C   UNL     1       1.192   1.524  -3.553  0.00  0.00    +0.007 C 
ATOM     19  C   UNL     1      -0.023  -0.481  -2.656  0.00  0.00    +0.007 C 
ENDBRANCH   9  13
BRANCH  10  16
ATOM     16  C   UNL     1       3.928  -0.361  -1.002  0.00  0.00    +0.113 C 
BRANCH  16   3
ATOM      2  O   UNL     1       2.753  -2.994  -0.910  0.00  0.00    -0.253 OA
ATOM      3  N   UNL     1       3.582  -1.108   0.165  0.00  0.00    -0.299 N 
ATOM      5  N   UNL     1       2.776  -2.885   1.408  0.00  0.00    -0.300 N 
ATOM     22  C   UNL     1       3.012  -2.387   0.129  0.00  0.00    +0.300 C 
ATOM     30  H   UNL     1       3.819  -0.724   1.075  0.00  0.00    +0.150 HD
ATOM     31  H   UNL     1       3.010  -2.304   2.208  0.00  0.00    +0.150 HD
BRANCH   5  25
ATOM     25  C   UNL     1       2.194  -4.184   1.647  0.00  0.00    +0.102 C 
ATOM     27  C   UNL     1       0.688  -4.156   1.484  0.00  0.00    +0.024 C 
ENDBRANCH   5  25
ENDBRANCH  16   3
ENDBRANCH  10  16
BRANCH  12  17
ATOM     17  C   UNL     1       0.343   1.562   1.608  0.00  0.00    +0.105 C 
BRANCH  17  21
ATOM      1  O   UNL     1      -1.651   0.483   0.705  0.00  0.00    -0.419 OA
ATOM      4  N   UNL     1      -2.020   2.514   1.566  0.00  0.00    -0.112 NA
ATOM      6  N   UNL     1      -3.224   2.025   1.094  0.00  0.00    -0.106 NA
ATOM     21  C   UNL     1      -1.131   1.581   1.317  0.00  0.00    +0.218 A 
ATOM     23  C   UNL     1      -2.961   0.837   0.601  0.00  0.00    +0.266 A 
BRANCH  23  24
ATOM      7  N   UNL     1      -3.913  -1.363   0.019  0.00  0.00    -0.329 N 
ATOM      8  N   UNL     1      -5.768  -0.800  -1.065  0.00  0.00    -0.243 NA
ATOM     24  C   UNL     1      -3.944   0.004   0.014  0.00  0.00    +0.125 A 
ATOM     26  C   UNL     1      -5.098   0.328  -0.660  0.00  0.00    +0.143 A 
ATOM     28  C   UNL     1      -5.028  -1.800  -0.641  0.00  0.00    +0.199 A 
ATOM     29  C   UNL     1      -2.902  -2.212   0.605  0.00  0.00    +0.150 C 
ENDBRANCH  23  24
ENDBRANCH  17  21
ENDBRANCH  12  17
TORSDOF 7
